data_str_m2_o10_o17_pcu_sym.84
_audit_creation_date              2020-01-03
_audit_creation_method            'Materials Studio'
_symmetry_space_group_name_H-M    'P1'
_symmetry_Int_Tables_number       1
_symmetry_cell_setting            triclinic
loop_
_symmetry_equiv_pos_as_xyz
  x,y,z
_cell_length_a                    30.0314
_cell_length_b                    25.8799
_cell_length_c                    22.3702
_cell_angle_alpha                 102.9013
_cell_angle_beta                  94.5712
_cell_angle_gamma                 92.5508
loop_
_atom_site_label
_atom_site_type_symbol
_atom_site_fract_x
_atom_site_fract_y
_atom_site_fract_z
_atom_site_U_iso_or_equiv
_atom_site_adp_type
_atom_site_occupancy
C1     C     0.24275   0.06661   0.15136   0.00000  Uiso   1.00
C2     C     0.09520   0.15130   0.21489   0.00000  Uiso   1.00
C3     C     0.38385   0.16544   0.16505   0.00000  Uiso   1.00
C4     C     0.11626   0.16835   0.16844   0.00000  Uiso   1.00
C5     C     0.40899   0.14817   0.21156   0.00000  Uiso   1.00
C6     C     0.09118   0.18583   0.12205   0.00000  Uiso   1.00
C7     C     0.45536   0.14823   0.21229   0.00000  Uiso   1.00
C8     C     0.04483   0.18597   0.12144   0.00000  Uiso   1.00
C9     C     0.47673   0.16661   0.16637   0.00000  Uiso   1.00
C10    C     0.02345   0.16760   0.16736   0.00000  Uiso   1.00
C11    C     0.45141   0.18404   0.11949   0.00000  Uiso   1.00
C12    C     0.24456   0.26591   0.18217   0.00000  Uiso   1.00
C13    C     0.04875   0.15016   0.21424   0.00000  Uiso   1.00
C14    C     0.48067   0.13041   0.25821   0.00000  Uiso   1.00
C15    C     0.01953   0.20388   0.07559   0.00000  Uiso   1.00
C16    C     0.20314   0.31578   0.08105   0.00000  Uiso   1.00
C17    C     0.16049   0.00958   0.06723   0.00000  Uiso   1.00
C18    C     0.21459   0.01306   0.25247   0.00000  Uiso   1.00
C19    C     0.16779   0.03327   0.24418   0.00000  Uiso   1.00
C20    C     0.02717   0.13145   0.25924   0.00000  Uiso   1.00
C21    C     0.47302   0.20283   0.07454   0.00000  Uiso   1.00
C22    C     0.22818   0.01055   0.14266   0.00000  Uiso   1.00
C23    C     0.23137   0.32056   0.19095   0.00000  Uiso   1.00
C24    C     0.16445   0.16708   0.16733   0.00000  Uiso   1.00
C25    C     0.33557   0.16634   0.16602   0.00000  Uiso   1.00
C26    C     0.40492   0.18276   0.11876   0.00000  Uiso   1.00
Cu27   Cu    0.25500   0.17246   0.22813   0.00000  Uiso   1.00
Cu28   Cu    0.24499   0.16087   0.10521   0.00000  Uiso   1.00
H29    H     0.38524   0.19635   0.08314   0.00000  Uiso   1.00
H30    H     0.45397   0.21657   0.03855   0.00000  Uiso   1.00
H31    H     0.13804   0.01060   0.10455   0.00000  Uiso   1.00
H32    H     0.16792   0.05070   0.06254   0.00000  Uiso   1.00
H33    H     0.14240   0.32003   0.02342   0.00000  Uiso   1.00
H34    H     0.22599   0.31460   0.04442   0.00000  Uiso   1.00
H35    H     0.19097   0.27453   0.07981   0.00000  Uiso   1.00
H36    H     0.16776   0.06411   0.21689   0.00000  Uiso   1.00
H37    H     0.14362   0.33315   0.22052   0.00000  Uiso   1.00
H38    H     0.15631   0.05119   0.28961   0.00000  Uiso   1.00
H39    H     0.21121   0.31669   0.28069   0.00000  Uiso   1.00
H40    H     0.11484   0.13785   0.25064   0.00000  Uiso   1.00
H41    H     0.23877   0.04476   0.27966   0.00000  Uiso   1.00
H42    H     0.46451   0.11585   0.29340   0.00000  Uiso   1.00
H43    H     0.03570   0.21847   0.04042   0.00000  Uiso   1.00
H44    H     0.21242   0.12916   0.31692   0.00000  Uiso   1.00
H45    H     0.28668   0.20562   0.01678   0.00000  Uiso   1.00
H46    H     0.39241   0.13439   0.24699   0.00000  Uiso   1.00
H47    H     0.10780   0.19961   0.08663   0.00000  Uiso   1.00
H48    H     0.04623   0.11771   0.29523   0.00000  Uiso   1.00
N49    N     0.23744   0.15214   0.01284   0.00000  Uiso   1.00
N50    N     0.26255   0.18119   0.32049   0.00000  Uiso   1.00
O51    O     0.25325   0.09538   0.20659   0.00000  Uiso   1.00
O52    O     0.24674   0.23796   0.12674   0.00000  Uiso   1.00
O53    O     0.24480   0.08559   0.10279   0.00000  Uiso   1.00
O54    O     0.25520   0.24774   0.23055   0.00000  Uiso   1.00
O55    O     0.18935   0.17155   0.21857   0.00000  Uiso   1.00
O56    O     0.31064   0.16179   0.11476   0.00000  Uiso   1.00
O57    O     0.18090   0.16176   0.11477   0.00000  Uiso   1.00
O58    O     0.31910   0.17157   0.21857   0.00000  Uiso   1.00
C59    C     0.74275   0.06661   0.15136   0.00000  Uiso   1.00
C60    C     0.59520   0.15130   0.21489   0.00000  Uiso   1.00
C61    C     0.88385   0.16544   0.16505   0.00000  Uiso   1.00
C62    C     0.61626   0.16835   0.16844   0.00000  Uiso   1.00
C63    C     0.90899   0.14817   0.21156   0.00000  Uiso   1.00
C64    C     0.59118   0.18583   0.12205   0.00000  Uiso   1.00
C65    C     0.95536   0.14823   0.21229   0.00000  Uiso   1.00
C66    C     0.54483   0.18597   0.12144   0.00000  Uiso   1.00
C67    C     0.97673   0.16661   0.16637   0.00000  Uiso   1.00
C68    C     0.52345   0.16760   0.16736   0.00000  Uiso   1.00
C69    C     0.95141   0.18404   0.11949   0.00000  Uiso   1.00
C70    C     0.74456   0.26591   0.18217   0.00000  Uiso   1.00
C71    C     0.54875   0.15016   0.21424   0.00000  Uiso   1.00
C72    C     0.98067   0.13041   0.25821   0.00000  Uiso   1.00
C73    C     0.51953   0.20388   0.07559   0.00000  Uiso   1.00
C74    C     0.70314   0.31578   0.08105   0.00000  Uiso   1.00
C75    C     0.66049   0.00958   0.06723   0.00000  Uiso   1.00
C76    C     0.71459   0.01306   0.25247   0.00000  Uiso   1.00
C77    C     0.66779   0.03327   0.24418   0.00000  Uiso   1.00
C78    C     0.52717   0.13145   0.25924   0.00000  Uiso   1.00
C79    C     0.97302   0.20283   0.07454   0.00000  Uiso   1.00
C80    C     0.72818   0.01055   0.14266   0.00000  Uiso   1.00
C81    C     0.73137   0.32056   0.19095   0.00000  Uiso   1.00
C82    C     0.66445   0.16708   0.16733   0.00000  Uiso   1.00
C83    C     0.83557   0.16634   0.16602   0.00000  Uiso   1.00
C84    C     0.90492   0.18276   0.11876   0.00000  Uiso   1.00
Cu85   Cu    0.75500   0.17246   0.22813   0.00000  Uiso   1.00
Cu86   Cu    0.74499   0.16087   0.10521   0.00000  Uiso   1.00
H87    H     0.88524   0.19635   0.08314   0.00000  Uiso   1.00
H88    H     0.95397   0.21657   0.03855   0.00000  Uiso   1.00
H89    H     0.63804   0.01060   0.10455   0.00000  Uiso   1.00
H90    H     0.66792   0.05070   0.06254   0.00000  Uiso   1.00
H91    H     0.64240   0.32003   0.02342   0.00000  Uiso   1.00
H92    H     0.72599   0.31460   0.04442   0.00000  Uiso   1.00
H93    H     0.69097   0.27453   0.07981   0.00000  Uiso   1.00
H94    H     0.66776   0.06411   0.21689   0.00000  Uiso   1.00
H95    H     0.64362   0.33315   0.22052   0.00000  Uiso   1.00
H96    H     0.65631   0.05119   0.28961   0.00000  Uiso   1.00
H97    H     0.71121   0.31669   0.28069   0.00000  Uiso   1.00
H98    H     0.61484   0.13785   0.25064   0.00000  Uiso   1.00
H99    H     0.73877   0.04476   0.27966   0.00000  Uiso   1.00
H100   H     0.96451   0.11585   0.29340   0.00000  Uiso   1.00
H101   H     0.53570   0.21847   0.04042   0.00000  Uiso   1.00
H102   H     0.71242   0.12916   0.31692   0.00000  Uiso   1.00
H103   H     0.78668   0.20562   0.01678   0.00000  Uiso   1.00
H104   H     0.89241   0.13439   0.24699   0.00000  Uiso   1.00
H105   H     0.60780   0.19961   0.08663   0.00000  Uiso   1.00
H106   H     0.54623   0.11771   0.29523   0.00000  Uiso   1.00
N107   N     0.73744   0.15214   0.01284   0.00000  Uiso   1.00
N108   N     0.76255   0.18119   0.32049   0.00000  Uiso   1.00
O109   O     0.75325   0.09538   0.20659   0.00000  Uiso   1.00
O110   O     0.74674   0.23796   0.12674   0.00000  Uiso   1.00
O111   O     0.74480   0.08559   0.10279   0.00000  Uiso   1.00
O112   O     0.75520   0.24774   0.23055   0.00000  Uiso   1.00
O113   O     0.68935   0.17155   0.21857   0.00000  Uiso   1.00
O114   O     0.81064   0.16179   0.11476   0.00000  Uiso   1.00
O115   O     0.68090   0.16176   0.11477   0.00000  Uiso   1.00
O116   O     0.81910   0.17157   0.21857   0.00000  Uiso   1.00
C117   C     0.24275   0.39995   0.15136   0.00000  Uiso   1.00
C118   C     0.09520   0.48463   0.21489   0.00000  Uiso   1.00
C119   C     0.38385   0.49877   0.16505   0.00000  Uiso   1.00
C120   C     0.11626   0.50168   0.16844   0.00000  Uiso   1.00
C121   C     0.40899   0.48151   0.21156   0.00000  Uiso   1.00
C122   C     0.09118   0.51917   0.12205   0.00000  Uiso   1.00
C123   C     0.45536   0.48157   0.21229   0.00000  Uiso   1.00
C124   C     0.04483   0.51930   0.12144   0.00000  Uiso   1.00
C125   C     0.47673   0.49995   0.16637   0.00000  Uiso   1.00
C126   C     0.02345   0.50093   0.16736   0.00000  Uiso   1.00
C127   C     0.45141   0.51737   0.11949   0.00000  Uiso   1.00
C128   C     0.24456   0.59924   0.18217   0.00000  Uiso   1.00
C129   C     0.04875   0.48349   0.21424   0.00000  Uiso   1.00
C130   C     0.48067   0.46375   0.25821   0.00000  Uiso   1.00
C131   C     0.01953   0.53721   0.07559   0.00000  Uiso   1.00
C132   C     0.20314   0.64911   0.08105   0.00000  Uiso   1.00
C133   C     0.16049   0.34292   0.06723   0.00000  Uiso   1.00
C134   C     0.21459   0.34639   0.25247   0.00000  Uiso   1.00
C135   C     0.16779   0.36660   0.24418   0.00000  Uiso   1.00
C136   C     0.02717   0.46478   0.25924   0.00000  Uiso   1.00
C137   C     0.47302   0.53617   0.07454   0.00000  Uiso   1.00
C138   C     0.22818   0.34388   0.14266   0.00000  Uiso   1.00
C139   C     0.23137   0.65389   0.19095   0.00000  Uiso   1.00
C140   C     0.16445   0.50042   0.16733   0.00000  Uiso   1.00
C141   C     0.33557   0.49968   0.16602   0.00000  Uiso   1.00
C142   C     0.40492   0.51610   0.11876   0.00000  Uiso   1.00
Cu143  Cu    0.25500   0.50579   0.22813   0.00000  Uiso   1.00
Cu144  Cu    0.24499   0.49421   0.10521   0.00000  Uiso   1.00
H145   H     0.38524   0.52969   0.08314   0.00000  Uiso   1.00
H146   H     0.45397   0.54991   0.03855   0.00000  Uiso   1.00
H147   H     0.13804   0.34393   0.10455   0.00000  Uiso   1.00
H148   H     0.16792   0.38403   0.06254   0.00000  Uiso   1.00
H149   H     0.14240   0.65337   0.02342   0.00000  Uiso   1.00
H150   H     0.22599   0.64794   0.04442   0.00000  Uiso   1.00
H151   H     0.19097   0.60787   0.07981   0.00000  Uiso   1.00
H152   H     0.16776   0.39744   0.21689   0.00000  Uiso   1.00
H153   H     0.14362   0.66649   0.22052   0.00000  Uiso   1.00
H154   H     0.15631   0.38452   0.28961   0.00000  Uiso   1.00
H155   H     0.21121   0.65003   0.28069   0.00000  Uiso   1.00
H156   H     0.11484   0.47119   0.25064   0.00000  Uiso   1.00
H157   H     0.23877   0.37809   0.27966   0.00000  Uiso   1.00
H158   H     0.46451   0.44918   0.29340   0.00000  Uiso   1.00
H159   H     0.03570   0.55180   0.04042   0.00000  Uiso   1.00
H160   H     0.21242   0.46249   0.31692   0.00000  Uiso   1.00
H161   H     0.28668   0.53895   0.01678   0.00000  Uiso   1.00
H162   H     0.39241   0.46772   0.24699   0.00000  Uiso   1.00
H163   H     0.10780   0.53294   0.08663   0.00000  Uiso   1.00
H164   H     0.04623   0.45104   0.29523   0.00000  Uiso   1.00
N165   N     0.23744   0.48547   0.01284   0.00000  Uiso   1.00
N166   N     0.26255   0.51453   0.32049   0.00000  Uiso   1.00
O167   O     0.25325   0.42871   0.20659   0.00000  Uiso   1.00
O168   O     0.24674   0.57129   0.12674   0.00000  Uiso   1.00
O169   O     0.24480   0.41892   0.10279   0.00000  Uiso   1.00
O170   O     0.25520   0.58108   0.23055   0.00000  Uiso   1.00
O171   O     0.18935   0.50488   0.21857   0.00000  Uiso   1.00
O172   O     0.31064   0.49512   0.11476   0.00000  Uiso   1.00
O173   O     0.18090   0.49510   0.11477   0.00000  Uiso   1.00
O174   O     0.31910   0.50490   0.21857   0.00000  Uiso   1.00
C175   C     0.74275   0.39995   0.15136   0.00000  Uiso   1.00
C176   C     0.59520   0.48463   0.21489   0.00000  Uiso   1.00
C177   C     0.88385   0.49877   0.16505   0.00000  Uiso   1.00
C178   C     0.61626   0.50168   0.16844   0.00000  Uiso   1.00
C179   C     0.90899   0.48151   0.21156   0.00000  Uiso   1.00
C180   C     0.59118   0.51917   0.12205   0.00000  Uiso   1.00
C181   C     0.95536   0.48157   0.21229   0.00000  Uiso   1.00
C182   C     0.54483   0.51930   0.12144   0.00000  Uiso   1.00
C183   C     0.97673   0.49995   0.16637   0.00000  Uiso   1.00
C184   C     0.52345   0.50093   0.16736   0.00000  Uiso   1.00
C185   C     0.95141   0.51737   0.11949   0.00000  Uiso   1.00
C186   C     0.74456   0.59924   0.18217   0.00000  Uiso   1.00
C187   C     0.54875   0.48349   0.21424   0.00000  Uiso   1.00
C188   C     0.98067   0.46375   0.25821   0.00000  Uiso   1.00
C189   C     0.51953   0.53721   0.07559   0.00000  Uiso   1.00
C190   C     0.70314   0.64911   0.08105   0.00000  Uiso   1.00
C191   C     0.66049   0.34292   0.06723   0.00000  Uiso   1.00
C192   C     0.71459   0.34639   0.25247   0.00000  Uiso   1.00
C193   C     0.66779   0.36660   0.24418   0.00000  Uiso   1.00
C194   C     0.52717   0.46478   0.25924   0.00000  Uiso   1.00
C195   C     0.97302   0.53617   0.07454   0.00000  Uiso   1.00
C196   C     0.72818   0.34388   0.14266   0.00000  Uiso   1.00
C197   C     0.73137   0.65389   0.19095   0.00000  Uiso   1.00
C198   C     0.66445   0.50042   0.16733   0.00000  Uiso   1.00
C199   C     0.83557   0.49968   0.16602   0.00000  Uiso   1.00
C200   C     0.90492   0.51610   0.11876   0.00000  Uiso   1.00
Cu201  Cu    0.75500   0.50579   0.22813   0.00000  Uiso   1.00
Cu202  Cu    0.74499   0.49421   0.10521   0.00000  Uiso   1.00
H203   H     0.88524   0.52969   0.08314   0.00000  Uiso   1.00
H204   H     0.95397   0.54991   0.03855   0.00000  Uiso   1.00
H205   H     0.63804   0.34393   0.10455   0.00000  Uiso   1.00
H206   H     0.66792   0.38403   0.06254   0.00000  Uiso   1.00
H207   H     0.64240   0.65337   0.02342   0.00000  Uiso   1.00
H208   H     0.72599   0.64794   0.04442   0.00000  Uiso   1.00
H209   H     0.69097   0.60787   0.07981   0.00000  Uiso   1.00
H210   H     0.66776   0.39744   0.21689   0.00000  Uiso   1.00
H211   H     0.64362   0.66649   0.22052   0.00000  Uiso   1.00
H212   H     0.65631   0.38452   0.28961   0.00000  Uiso   1.00
H213   H     0.71121   0.65003   0.28069   0.00000  Uiso   1.00
H214   H     0.61484   0.47119   0.25064   0.00000  Uiso   1.00
H215   H     0.73877   0.37809   0.27966   0.00000  Uiso   1.00
H216   H     0.96451   0.44918   0.29340   0.00000  Uiso   1.00
H217   H     0.53570   0.55180   0.04042   0.00000  Uiso   1.00
H218   H     0.71242   0.46249   0.31692   0.00000  Uiso   1.00
H219   H     0.78668   0.53895   0.01678   0.00000  Uiso   1.00
H220   H     0.89241   0.46772   0.24699   0.00000  Uiso   1.00
H221   H     0.60780   0.53294   0.08663   0.00000  Uiso   1.00
H222   H     0.54623   0.45104   0.29523   0.00000  Uiso   1.00
N223   N     0.73744   0.48547   0.01284   0.00000  Uiso   1.00
N224   N     0.76255   0.51453   0.32049   0.00000  Uiso   1.00
O225   O     0.75325   0.42871   0.20659   0.00000  Uiso   1.00
O226   O     0.74674   0.57129   0.12674   0.00000  Uiso   1.00
O227   O     0.74480   0.41892   0.10279   0.00000  Uiso   1.00
O228   O     0.75520   0.58108   0.23055   0.00000  Uiso   1.00
O229   O     0.68935   0.50488   0.21857   0.00000  Uiso   1.00
O230   O     0.81064   0.49512   0.11476   0.00000  Uiso   1.00
O231   O     0.68090   0.49510   0.11477   0.00000  Uiso   1.00
O232   O     0.81910   0.50490   0.21857   0.00000  Uiso   1.00
C233   C     0.24275   0.73328   0.15136   0.00000  Uiso   1.00
C234   C     0.09520   0.81797   0.21489   0.00000  Uiso   1.00
C235   C     0.38385   0.83211   0.16505   0.00000  Uiso   1.00
C236   C     0.11626   0.83502   0.16844   0.00000  Uiso   1.00
C237   C     0.40899   0.81484   0.21156   0.00000  Uiso   1.00
C238   C     0.09118   0.85250   0.12205   0.00000  Uiso   1.00
C239   C     0.45536   0.81490   0.21229   0.00000  Uiso   1.00
C240   C     0.04483   0.85263   0.12144   0.00000  Uiso   1.00
C241   C     0.47673   0.83328   0.16637   0.00000  Uiso   1.00
C242   C     0.02345   0.83427   0.16736   0.00000  Uiso   1.00
C243   C     0.45141   0.85071   0.11949   0.00000  Uiso   1.00
C244   C     0.24456   0.93257   0.18217   0.00000  Uiso   1.00
C245   C     0.04875   0.81683   0.21424   0.00000  Uiso   1.00
C246   C     0.48067   0.79708   0.25821   0.00000  Uiso   1.00
C247   C     0.01953   0.87055   0.07559   0.00000  Uiso   1.00
C248   C     0.20314   0.98245   0.08105   0.00000  Uiso   1.00
C249   C     0.16049   0.67625   0.06723   0.00000  Uiso   1.00
C250   C     0.21459   0.67972   0.25247   0.00000  Uiso   1.00
C251   C     0.16779   0.69993   0.24418   0.00000  Uiso   1.00
C252   C     0.02717   0.79811   0.25924   0.00000  Uiso   1.00
C253   C     0.47302   0.86950   0.07454   0.00000  Uiso   1.00
C254   C     0.22818   0.67722   0.14266   0.00000  Uiso   1.00
C255   C     0.23137   0.98722   0.19095   0.00000  Uiso   1.00
C256   C     0.16445   0.83375   0.16733   0.00000  Uiso   1.00
C257   C     0.33557   0.83301   0.16602   0.00000  Uiso   1.00
C258   C     0.40492   0.84943   0.11876   0.00000  Uiso   1.00
Cu259  Cu    0.25500   0.83913   0.22813   0.00000  Uiso   1.00
Cu260  Cu    0.24499   0.82754   0.10521   0.00000  Uiso   1.00
H261   H     0.38524   0.86302   0.08314   0.00000  Uiso   1.00
H262   H     0.45397   0.88324   0.03855   0.00000  Uiso   1.00
H263   H     0.13804   0.67727   0.10455   0.00000  Uiso   1.00
H264   H     0.16792   0.71736   0.06254   0.00000  Uiso   1.00
H265   H     0.14240   0.98670   0.02342   0.00000  Uiso   1.00
H266   H     0.22599   0.98127   0.04442   0.00000  Uiso   1.00
H267   H     0.19097   0.94120   0.07981   0.00000  Uiso   1.00
H268   H     0.16776   0.73078   0.21689   0.00000  Uiso   1.00
H269   H     0.14362   0.99982   0.22052   0.00000  Uiso   1.00
H270   H     0.15631   0.71786   0.28961   0.00000  Uiso   1.00
H271   H     0.21121   0.98336   0.28069   0.00000  Uiso   1.00
H272   H     0.11484   0.80452   0.25064   0.00000  Uiso   1.00
H273   H     0.23877   0.71142   0.27966   0.00000  Uiso   1.00
H274   H     0.46451   0.78252   0.29340   0.00000  Uiso   1.00
H275   H     0.03570   0.88513   0.04042   0.00000  Uiso   1.00
H276   H     0.21242   0.79583   0.31692   0.00000  Uiso   1.00
H277   H     0.28668   0.87228   0.01678   0.00000  Uiso   1.00
H278   H     0.39241   0.80105   0.24699   0.00000  Uiso   1.00
H279   H     0.10780   0.86627   0.08663   0.00000  Uiso   1.00
H280   H     0.04623   0.78437   0.29523   0.00000  Uiso   1.00
N281   N     0.23744   0.81881   0.01284   0.00000  Uiso   1.00
N282   N     0.26255   0.84786   0.32049   0.00000  Uiso   1.00
O283   O     0.25325   0.76204   0.20659   0.00000  Uiso   1.00
O284   O     0.24674   0.90462   0.12674   0.00000  Uiso   1.00
O285   O     0.24480   0.75226   0.10279   0.00000  Uiso   1.00
O286   O     0.25520   0.91441   0.23055   0.00000  Uiso   1.00
O287   O     0.18935   0.83821   0.21857   0.00000  Uiso   1.00
O288   O     0.31064   0.82845   0.11476   0.00000  Uiso   1.00
O289   O     0.18090   0.82843   0.11477   0.00000  Uiso   1.00
O290   O     0.31910   0.83824   0.21857   0.00000  Uiso   1.00
C291   C     0.74275   0.73328   0.15136   0.00000  Uiso   1.00
C292   C     0.59520   0.81797   0.21489   0.00000  Uiso   1.00
C293   C     0.88385   0.83211   0.16505   0.00000  Uiso   1.00
C294   C     0.61626   0.83502   0.16844   0.00000  Uiso   1.00
C295   C     0.90899   0.81484   0.21156   0.00000  Uiso   1.00
C296   C     0.59118   0.85250   0.12205   0.00000  Uiso   1.00
C297   C     0.95536   0.81490   0.21229   0.00000  Uiso   1.00
C298   C     0.54483   0.85263   0.12144   0.00000  Uiso   1.00
C299   C     0.97673   0.83328   0.16637   0.00000  Uiso   1.00
C300   C     0.52345   0.83427   0.16736   0.00000  Uiso   1.00
C301   C     0.95141   0.85071   0.11949   0.00000  Uiso   1.00
C302   C     0.74456   0.93257   0.18217   0.00000  Uiso   1.00
C303   C     0.54875   0.81683   0.21424   0.00000  Uiso   1.00
C304   C     0.98067   0.79708   0.25821   0.00000  Uiso   1.00
C305   C     0.51953   0.87055   0.07559   0.00000  Uiso   1.00
C306   C     0.70314   0.98245   0.08105   0.00000  Uiso   1.00
C307   C     0.66049   0.67625   0.06723   0.00000  Uiso   1.00
C308   C     0.71459   0.67972   0.25247   0.00000  Uiso   1.00
C309   C     0.66779   0.69993   0.24418   0.00000  Uiso   1.00
C310   C     0.52717   0.79811   0.25924   0.00000  Uiso   1.00
C311   C     0.97302   0.86950   0.07454   0.00000  Uiso   1.00
C312   C     0.72818   0.67722   0.14266   0.00000  Uiso   1.00
C313   C     0.73137   0.98722   0.19095   0.00000  Uiso   1.00
C314   C     0.66445   0.83375   0.16733   0.00000  Uiso   1.00
C315   C     0.83557   0.83301   0.16602   0.00000  Uiso   1.00
C316   C     0.90492   0.84943   0.11876   0.00000  Uiso   1.00
Cu317  Cu    0.75500   0.83913   0.22813   0.00000  Uiso   1.00
Cu318  Cu    0.74499   0.82754   0.10521   0.00000  Uiso   1.00
H319   H     0.88524   0.86302   0.08314   0.00000  Uiso   1.00
H320   H     0.95397   0.88324   0.03855   0.00000  Uiso   1.00
H321   H     0.63804   0.67727   0.10455   0.00000  Uiso   1.00
H322   H     0.66792   0.71736   0.06254   0.00000  Uiso   1.00
H323   H     0.64240   0.98670   0.02342   0.00000  Uiso   1.00
H324   H     0.72599   0.98127   0.04442   0.00000  Uiso   1.00
H325   H     0.69097   0.94120   0.07981   0.00000  Uiso   1.00
H326   H     0.66776   0.73078   0.21689   0.00000  Uiso   1.00
H327   H     0.64362   0.99982   0.22052   0.00000  Uiso   1.00
H328   H     0.65631   0.71786   0.28961   0.00000  Uiso   1.00
H329   H     0.71121   0.98336   0.28069   0.00000  Uiso   1.00
H330   H     0.61484   0.80452   0.25064   0.00000  Uiso   1.00
H331   H     0.73877   0.71142   0.27966   0.00000  Uiso   1.00
H332   H     0.96451   0.78252   0.29340   0.00000  Uiso   1.00
H333   H     0.53570   0.88513   0.04042   0.00000  Uiso   1.00
H334   H     0.71242   0.79583   0.31692   0.00000  Uiso   1.00
H335   H     0.78668   0.87228   0.01678   0.00000  Uiso   1.00
H336   H     0.89241   0.80105   0.24699   0.00000  Uiso   1.00
H337   H     0.60780   0.86627   0.08663   0.00000  Uiso   1.00
H338   H     0.54623   0.78437   0.29523   0.00000  Uiso   1.00
N339   N     0.73744   0.81881   0.01284   0.00000  Uiso   1.00
N340   N     0.76255   0.84786   0.32049   0.00000  Uiso   1.00
O341   O     0.75325   0.76204   0.20659   0.00000  Uiso   1.00
O342   O     0.74674   0.90462   0.12674   0.00000  Uiso   1.00
O343   O     0.74480   0.75226   0.10279   0.00000  Uiso   1.00
O344   O     0.75520   0.91441   0.23055   0.00000  Uiso   1.00
O345   O     0.68935   0.83821   0.21857   0.00000  Uiso   1.00
O346   O     0.81064   0.82845   0.11476   0.00000  Uiso   1.00
O347   O     0.68090   0.82843   0.11477   0.00000  Uiso   1.00
O348   O     0.81910   0.83824   0.21857   0.00000  Uiso   1.00
C349   C     0.24275   0.06661   0.48469   0.00000  Uiso   1.00
C350   C     0.09520   0.15130   0.54822   0.00000  Uiso   1.00
C351   C     0.38385   0.16544   0.49838   0.00000  Uiso   1.00
C352   C     0.11626   0.16835   0.50178   0.00000  Uiso   1.00
C353   C     0.40899   0.14817   0.54489   0.00000  Uiso   1.00
C354   C     0.09118   0.18583   0.45538   0.00000  Uiso   1.00
C355   C     0.45536   0.14823   0.54562   0.00000  Uiso   1.00
C356   C     0.04483   0.18597   0.45477   0.00000  Uiso   1.00
C357   C     0.47673   0.16661   0.49970   0.00000  Uiso   1.00
C358   C     0.02345   0.16760   0.50070   0.00000  Uiso   1.00
C359   C     0.45141   0.18404   0.45282   0.00000  Uiso   1.00
C360   C     0.24456   0.26591   0.51551   0.00000  Uiso   1.00
C361   C     0.04875   0.15016   0.54757   0.00000  Uiso   1.00
C362   C     0.48067   0.13041   0.59154   0.00000  Uiso   1.00
C363   C     0.01953   0.20388   0.40892   0.00000  Uiso   1.00
C364   C     0.20314   0.31578   0.41438   0.00000  Uiso   1.00
C365   C     0.16049   0.00958   0.40056   0.00000  Uiso   1.00
C366   C     0.21459   0.01306   0.58580   0.00000  Uiso   1.00
C367   C     0.16779   0.03327   0.57751   0.00000  Uiso   1.00
C368   C     0.02717   0.13145   0.59258   0.00000  Uiso   1.00
C369   C     0.47302   0.20283   0.40788   0.00000  Uiso   1.00
C370   C     0.22818   0.01055   0.47599   0.00000  Uiso   1.00
C371   C     0.23137   0.32056   0.52428   0.00000  Uiso   1.00
C372   C     0.16445   0.16708   0.50066   0.00000  Uiso   1.00
C373   C     0.33557   0.16634   0.49936   0.00000  Uiso   1.00
C374   C     0.40492   0.18276   0.45210   0.00000  Uiso   1.00
Cu375  Cu    0.25500   0.17246   0.56146   0.00000  Uiso   1.00
Cu376  Cu    0.24499   0.16087   0.43854   0.00000  Uiso   1.00
H377   H     0.38524   0.19635   0.41647   0.00000  Uiso   1.00
H378   H     0.45397   0.21657   0.37188   0.00000  Uiso   1.00
H379   H     0.13804   0.01060   0.43789   0.00000  Uiso   1.00
H380   H     0.16792   0.05070   0.39587   0.00000  Uiso   1.00
H381   H     0.14240   0.32003   0.35675   0.00000  Uiso   1.00
H382   H     0.22599   0.31460   0.37776   0.00000  Uiso   1.00
H383   H     0.19097   0.27453   0.41315   0.00000  Uiso   1.00
H384   H     0.16776   0.06411   0.55022   0.00000  Uiso   1.00
H385   H     0.14362   0.33315   0.55385   0.00000  Uiso   1.00
H386   H     0.15631   0.05119   0.62294   0.00000  Uiso   1.00
H387   H     0.21121   0.31669   0.61402   0.00000  Uiso   1.00
H388   H     0.11484   0.13785   0.58398   0.00000  Uiso   1.00
H389   H     0.23877   0.04476   0.61299   0.00000  Uiso   1.00
H390   H     0.46451   0.11585   0.62674   0.00000  Uiso   1.00
H391   H     0.03570   0.21847   0.37375   0.00000  Uiso   1.00
H392   H     0.21242   0.12916   0.65026   0.00000  Uiso   1.00
H393   H     0.28668   0.20562   0.35011   0.00000  Uiso   1.00
H394   H     0.39241   0.13439   0.58033   0.00000  Uiso   1.00
H395   H     0.10780   0.19961   0.41996   0.00000  Uiso   1.00
H396   H     0.04623   0.11771   0.62857   0.00000  Uiso   1.00
N397   N     0.23744   0.15214   0.34617   0.00000  Uiso   1.00
N398   N     0.26255   0.18119   0.65383   0.00000  Uiso   1.00
O399   O     0.25325   0.09538   0.53992   0.00000  Uiso   1.00
O400   O     0.24674   0.23796   0.46008   0.00000  Uiso   1.00
O401   O     0.24480   0.08559   0.43612   0.00000  Uiso   1.00
O402   O     0.25520   0.24774   0.56388   0.00000  Uiso   1.00
O403   O     0.18935   0.17155   0.55191   0.00000  Uiso   1.00
O404   O     0.31064   0.16179   0.44809   0.00000  Uiso   1.00
O405   O     0.18090   0.16176   0.44810   0.00000  Uiso   1.00
O406   O     0.31910   0.17157   0.55190   0.00000  Uiso   1.00
C407   C     0.74275   0.06661   0.48469   0.00000  Uiso   1.00
C408   C     0.59520   0.15130   0.54822   0.00000  Uiso   1.00
C409   C     0.88385   0.16544   0.49838   0.00000  Uiso   1.00
C410   C     0.61626   0.16835   0.50178   0.00000  Uiso   1.00
C411   C     0.90899   0.14817   0.54489   0.00000  Uiso   1.00
C412   C     0.59118   0.18583   0.45538   0.00000  Uiso   1.00
C413   C     0.95536   0.14823   0.54562   0.00000  Uiso   1.00
C414   C     0.54483   0.18597   0.45477   0.00000  Uiso   1.00
C415   C     0.97673   0.16661   0.49970   0.00000  Uiso   1.00
C416   C     0.52345   0.16760   0.50070   0.00000  Uiso   1.00
C417   C     0.95141   0.18404   0.45282   0.00000  Uiso   1.00
C418   C     0.74456   0.26591   0.51551   0.00000  Uiso   1.00
C419   C     0.54875   0.15016   0.54757   0.00000  Uiso   1.00
C420   C     0.98067   0.13041   0.59154   0.00000  Uiso   1.00
C421   C     0.51953   0.20388   0.40892   0.00000  Uiso   1.00
C422   C     0.70314   0.31578   0.41438   0.00000  Uiso   1.00
C423   C     0.66049   0.00958   0.40056   0.00000  Uiso   1.00
C424   C     0.71459   0.01306   0.58580   0.00000  Uiso   1.00
C425   C     0.66779   0.03327   0.57751   0.00000  Uiso   1.00
C426   C     0.52717   0.13145   0.59258   0.00000  Uiso   1.00
C427   C     0.97302   0.20283   0.40788   0.00000  Uiso   1.00
C428   C     0.72818   0.01055   0.47599   0.00000  Uiso   1.00
C429   C     0.73137   0.32056   0.52428   0.00000  Uiso   1.00
C430   C     0.66445   0.16708   0.50066   0.00000  Uiso   1.00
C431   C     0.83557   0.16634   0.49936   0.00000  Uiso   1.00
C432   C     0.90492   0.18276   0.45210   0.00000  Uiso   1.00
Cu433  Cu    0.75500   0.17246   0.56146   0.00000  Uiso   1.00
Cu434  Cu    0.74499   0.16087   0.43854   0.00000  Uiso   1.00
H435   H     0.88524   0.19635   0.41647   0.00000  Uiso   1.00
H436   H     0.95397   0.21657   0.37188   0.00000  Uiso   1.00
H437   H     0.63804   0.01060   0.43789   0.00000  Uiso   1.00
H438   H     0.66792   0.05070   0.39587   0.00000  Uiso   1.00
H439   H     0.64240   0.32003   0.35675   0.00000  Uiso   1.00
H440   H     0.72599   0.31460   0.37776   0.00000  Uiso   1.00
H441   H     0.69097   0.27453   0.41315   0.00000  Uiso   1.00
H442   H     0.66776   0.06411   0.55022   0.00000  Uiso   1.00
H443   H     0.64362   0.33315   0.55385   0.00000  Uiso   1.00
H444   H     0.65631   0.05119   0.62294   0.00000  Uiso   1.00
H445   H     0.71121   0.31669   0.61402   0.00000  Uiso   1.00
H446   H     0.61484   0.13785   0.58398   0.00000  Uiso   1.00
H447   H     0.73877   0.04476   0.61299   0.00000  Uiso   1.00
H448   H     0.96451   0.11585   0.62674   0.00000  Uiso   1.00
H449   H     0.53570   0.21847   0.37375   0.00000  Uiso   1.00
H450   H     0.71242   0.12916   0.65026   0.00000  Uiso   1.00
H451   H     0.78668   0.20562   0.35011   0.00000  Uiso   1.00
H452   H     0.89241   0.13439   0.58033   0.00000  Uiso   1.00
H453   H     0.60780   0.19961   0.41996   0.00000  Uiso   1.00
H454   H     0.54623   0.11771   0.62857   0.00000  Uiso   1.00
N455   N     0.73744   0.15214   0.34617   0.00000  Uiso   1.00
N456   N     0.76255   0.18119   0.65383   0.00000  Uiso   1.00
O457   O     0.75325   0.09538   0.53992   0.00000  Uiso   1.00
O458   O     0.74674   0.23796   0.46008   0.00000  Uiso   1.00
O459   O     0.74480   0.08559   0.43612   0.00000  Uiso   1.00
O460   O     0.75520   0.24774   0.56388   0.00000  Uiso   1.00
O461   O     0.68935   0.17155   0.55191   0.00000  Uiso   1.00
O462   O     0.81064   0.16179   0.44809   0.00000  Uiso   1.00
O463   O     0.68090   0.16176   0.44810   0.00000  Uiso   1.00
O464   O     0.81910   0.17157   0.55190   0.00000  Uiso   1.00
C465   C     0.24275   0.39995   0.48469   0.00000  Uiso   1.00
C466   C     0.09520   0.48463   0.54822   0.00000  Uiso   1.00
C467   C     0.38385   0.49877   0.49838   0.00000  Uiso   1.00
C468   C     0.11626   0.50168   0.50178   0.00000  Uiso   1.00
C469   C     0.40899   0.48151   0.54489   0.00000  Uiso   1.00
C470   C     0.09118   0.51917   0.45538   0.00000  Uiso   1.00
C471   C     0.45536   0.48157   0.54562   0.00000  Uiso   1.00
C472   C     0.04483   0.51930   0.45477   0.00000  Uiso   1.00
C473   C     0.47673   0.49995   0.49970   0.00000  Uiso   1.00
C474   C     0.02345   0.50093   0.50070   0.00000  Uiso   1.00
C475   C     0.45141   0.51737   0.45282   0.00000  Uiso   1.00
C476   C     0.24456   0.59924   0.51551   0.00000  Uiso   1.00
C477   C     0.04875   0.48349   0.54757   0.00000  Uiso   1.00
C478   C     0.48067   0.46375   0.59154   0.00000  Uiso   1.00
C479   C     0.01953   0.53721   0.40892   0.00000  Uiso   1.00
C480   C     0.20314   0.64911   0.41438   0.00000  Uiso   1.00
C481   C     0.16049   0.34292   0.40056   0.00000  Uiso   1.00
C482   C     0.21459   0.34639   0.58580   0.00000  Uiso   1.00
C483   C     0.16779   0.36660   0.57751   0.00000  Uiso   1.00
C484   C     0.02717   0.46478   0.59258   0.00000  Uiso   1.00
C485   C     0.47302   0.53617   0.40788   0.00000  Uiso   1.00
C486   C     0.22818   0.34388   0.47599   0.00000  Uiso   1.00
C487   C     0.23137   0.65389   0.52428   0.00000  Uiso   1.00
C488   C     0.16445   0.50042   0.50066   0.00000  Uiso   1.00
C489   C     0.33557   0.49968   0.49936   0.00000  Uiso   1.00
C490   C     0.40492   0.51610   0.45210   0.00000  Uiso   1.00
Cu491  Cu    0.25500   0.50579   0.56146   0.00000  Uiso   1.00
Cu492  Cu    0.24499   0.49421   0.43854   0.00000  Uiso   1.00
H493   H     0.38524   0.52969   0.41647   0.00000  Uiso   1.00
H494   H     0.45397   0.54991   0.37188   0.00000  Uiso   1.00
H495   H     0.13804   0.34393   0.43789   0.00000  Uiso   1.00
H496   H     0.16792   0.38403   0.39587   0.00000  Uiso   1.00
H497   H     0.14240   0.65337   0.35675   0.00000  Uiso   1.00
H498   H     0.22599   0.64794   0.37776   0.00000  Uiso   1.00
H499   H     0.19097   0.60787   0.41315   0.00000  Uiso   1.00
H500   H     0.16776   0.39744   0.55022   0.00000  Uiso   1.00
H501   H     0.14362   0.66649   0.55385   0.00000  Uiso   1.00
H502   H     0.15631   0.38452   0.62294   0.00000  Uiso   1.00
H503   H     0.21121   0.65003   0.61402   0.00000  Uiso   1.00
H504   H     0.11484   0.47119   0.58398   0.00000  Uiso   1.00
H505   H     0.23877   0.37809   0.61299   0.00000  Uiso   1.00
H506   H     0.46451   0.44918   0.62674   0.00000  Uiso   1.00
H507   H     0.03570   0.55180   0.37375   0.00000  Uiso   1.00
H508   H     0.21242   0.46249   0.65026   0.00000  Uiso   1.00
H509   H     0.28668   0.53895   0.35011   0.00000  Uiso   1.00
H510   H     0.39241   0.46772   0.58033   0.00000  Uiso   1.00
H511   H     0.10780   0.53294   0.41996   0.00000  Uiso   1.00
H512   H     0.04623   0.45104   0.62857   0.00000  Uiso   1.00
N513   N     0.23744   0.48547   0.34617   0.00000  Uiso   1.00
N514   N     0.26255   0.51453   0.65383   0.00000  Uiso   1.00
O515   O     0.25325   0.42871   0.53992   0.00000  Uiso   1.00
O516   O     0.24674   0.57129   0.46008   0.00000  Uiso   1.00
O517   O     0.24480   0.41892   0.43612   0.00000  Uiso   1.00
O518   O     0.25520   0.58108   0.56388   0.00000  Uiso   1.00
O519   O     0.18935   0.50488   0.55191   0.00000  Uiso   1.00
O520   O     0.31064   0.49512   0.44809   0.00000  Uiso   1.00
O521   O     0.18090   0.49510   0.44810   0.00000  Uiso   1.00
O522   O     0.31910   0.50490   0.55190   0.00000  Uiso   1.00
C523   C     0.74275   0.39995   0.48469   0.00000  Uiso   1.00
C524   C     0.59520   0.48463   0.54822   0.00000  Uiso   1.00
C525   C     0.88385   0.49877   0.49838   0.00000  Uiso   1.00
C526   C     0.61626   0.50168   0.50178   0.00000  Uiso   1.00
C527   C     0.90899   0.48151   0.54489   0.00000  Uiso   1.00
C528   C     0.59118   0.51917   0.45538   0.00000  Uiso   1.00
C529   C     0.95536   0.48157   0.54562   0.00000  Uiso   1.00
C530   C     0.54483   0.51930   0.45477   0.00000  Uiso   1.00
C531   C     0.97673   0.49995   0.49970   0.00000  Uiso   1.00
C532   C     0.52345   0.50093   0.50070   0.00000  Uiso   1.00
C533   C     0.95141   0.51737   0.45282   0.00000  Uiso   1.00
C534   C     0.74456   0.59924   0.51551   0.00000  Uiso   1.00
C535   C     0.54875   0.48349   0.54757   0.00000  Uiso   1.00
C536   C     0.98067   0.46375   0.59154   0.00000  Uiso   1.00
C537   C     0.51953   0.53721   0.40892   0.00000  Uiso   1.00
C538   C     0.70314   0.64911   0.41438   0.00000  Uiso   1.00
C539   C     0.66049   0.34292   0.40056   0.00000  Uiso   1.00
C540   C     0.71459   0.34639   0.58580   0.00000  Uiso   1.00
C541   C     0.66779   0.36660   0.57751   0.00000  Uiso   1.00
C542   C     0.52717   0.46478   0.59258   0.00000  Uiso   1.00
C543   C     0.97302   0.53617   0.40788   0.00000  Uiso   1.00
C544   C     0.72818   0.34388   0.47599   0.00000  Uiso   1.00
C545   C     0.73137   0.65389   0.52428   0.00000  Uiso   1.00
C546   C     0.66445   0.50042   0.50066   0.00000  Uiso   1.00
C547   C     0.83557   0.49968   0.49936   0.00000  Uiso   1.00
C548   C     0.90492   0.51610   0.45210   0.00000  Uiso   1.00
Cu549  Cu    0.75500   0.50579   0.56146   0.00000  Uiso   1.00
Cu550  Cu    0.74499   0.49421   0.43854   0.00000  Uiso   1.00
H551   H     0.88524   0.52969   0.41647   0.00000  Uiso   1.00
H552   H     0.95397   0.54991   0.37188   0.00000  Uiso   1.00
H553   H     0.63804   0.34393   0.43789   0.00000  Uiso   1.00
H554   H     0.66792   0.38403   0.39587   0.00000  Uiso   1.00
H555   H     0.64240   0.65337   0.35675   0.00000  Uiso   1.00
H556   H     0.72599   0.64794   0.37776   0.00000  Uiso   1.00
H557   H     0.69097   0.60787   0.41315   0.00000  Uiso   1.00
H558   H     0.66776   0.39744   0.55022   0.00000  Uiso   1.00
H559   H     0.64362   0.66649   0.55385   0.00000  Uiso   1.00
H560   H     0.65631   0.38452   0.62294   0.00000  Uiso   1.00
H561   H     0.71121   0.65003   0.61402   0.00000  Uiso   1.00
H562   H     0.61484   0.47119   0.58398   0.00000  Uiso   1.00
H563   H     0.73877   0.37809   0.61299   0.00000  Uiso   1.00
H564   H     0.96451   0.44918   0.62674   0.00000  Uiso   1.00
H565   H     0.53570   0.55180   0.37375   0.00000  Uiso   1.00
H566   H     0.71242   0.46249   0.65026   0.00000  Uiso   1.00
H567   H     0.78668   0.53895   0.35011   0.00000  Uiso   1.00
H568   H     0.89241   0.46772   0.58033   0.00000  Uiso   1.00
H569   H     0.60780   0.53294   0.41996   0.00000  Uiso   1.00
H570   H     0.54623   0.45104   0.62857   0.00000  Uiso   1.00
N571   N     0.73744   0.48547   0.34617   0.00000  Uiso   1.00
N572   N     0.76255   0.51453   0.65383   0.00000  Uiso   1.00
O573   O     0.75325   0.42871   0.53992   0.00000  Uiso   1.00
O574   O     0.74674   0.57129   0.46008   0.00000  Uiso   1.00
O575   O     0.74480   0.41892   0.43612   0.00000  Uiso   1.00
O576   O     0.75520   0.58108   0.56388   0.00000  Uiso   1.00
O577   O     0.68935   0.50488   0.55191   0.00000  Uiso   1.00
O578   O     0.81064   0.49512   0.44809   0.00000  Uiso   1.00
O579   O     0.68090   0.49510   0.44810   0.00000  Uiso   1.00
O580   O     0.81910   0.50490   0.55190   0.00000  Uiso   1.00
C581   C     0.24275   0.73328   0.48469   0.00000  Uiso   1.00
C582   C     0.09520   0.81797   0.54822   0.00000  Uiso   1.00
C583   C     0.38385   0.83211   0.49838   0.00000  Uiso   1.00
C584   C     0.11626   0.83502   0.50178   0.00000  Uiso   1.00
C585   C     0.40899   0.81484   0.54489   0.00000  Uiso   1.00
C586   C     0.09118   0.85250   0.45538   0.00000  Uiso   1.00
C587   C     0.45536   0.81490   0.54562   0.00000  Uiso   1.00
C588   C     0.04483   0.85263   0.45477   0.00000  Uiso   1.00
C589   C     0.47673   0.83328   0.49970   0.00000  Uiso   1.00
C590   C     0.02345   0.83427   0.50070   0.00000  Uiso   1.00
C591   C     0.45141   0.85071   0.45282   0.00000  Uiso   1.00
C592   C     0.24456   0.93257   0.51551   0.00000  Uiso   1.00
C593   C     0.04875   0.81683   0.54757   0.00000  Uiso   1.00
C594   C     0.48067   0.79708   0.59154   0.00000  Uiso   1.00
C595   C     0.01953   0.87055   0.40892   0.00000  Uiso   1.00
C596   C     0.20314   0.98245   0.41438   0.00000  Uiso   1.00
C597   C     0.16049   0.67625   0.40056   0.00000  Uiso   1.00
C598   C     0.21459   0.67972   0.58580   0.00000  Uiso   1.00
C599   C     0.16779   0.69993   0.57751   0.00000  Uiso   1.00
C600   C     0.02717   0.79811   0.59258   0.00000  Uiso   1.00
C601   C     0.47302   0.86950   0.40788   0.00000  Uiso   1.00
C602   C     0.22818   0.67722   0.47599   0.00000  Uiso   1.00
C603   C     0.23137   0.98722   0.52428   0.00000  Uiso   1.00
C604   C     0.16445   0.83375   0.50066   0.00000  Uiso   1.00
C605   C     0.33557   0.83301   0.49936   0.00000  Uiso   1.00
C606   C     0.40492   0.84943   0.45210   0.00000  Uiso   1.00
Cu607  Cu    0.25500   0.83913   0.56146   0.00000  Uiso   1.00
Cu608  Cu    0.24499   0.82754   0.43854   0.00000  Uiso   1.00
H609   H     0.38524   0.86302   0.41647   0.00000  Uiso   1.00
H610   H     0.45397   0.88324   0.37188   0.00000  Uiso   1.00
H611   H     0.13804   0.67727   0.43789   0.00000  Uiso   1.00
H612   H     0.16792   0.71736   0.39587   0.00000  Uiso   1.00
H613   H     0.14240   0.98670   0.35675   0.00000  Uiso   1.00
H614   H     0.22599   0.98127   0.37776   0.00000  Uiso   1.00
H615   H     0.19097   0.94120   0.41315   0.00000  Uiso   1.00
H616   H     0.16776   0.73078   0.55022   0.00000  Uiso   1.00
H617   H     0.14362   0.99982   0.55385   0.00000  Uiso   1.00
H618   H     0.15631   0.71786   0.62294   0.00000  Uiso   1.00
H619   H     0.21121   0.98336   0.61402   0.00000  Uiso   1.00
H620   H     0.11484   0.80452   0.58398   0.00000  Uiso   1.00
H621   H     0.23877   0.71142   0.61299   0.00000  Uiso   1.00
H622   H     0.46451   0.78252   0.62674   0.00000  Uiso   1.00
H623   H     0.03570   0.88513   0.37375   0.00000  Uiso   1.00
H624   H     0.21242   0.79583   0.65026   0.00000  Uiso   1.00
H625   H     0.28668   0.87228   0.35011   0.00000  Uiso   1.00
H626   H     0.39241   0.80105   0.58033   0.00000  Uiso   1.00
H627   H     0.10780   0.86627   0.41996   0.00000  Uiso   1.00
H628   H     0.04623   0.78437   0.62857   0.00000  Uiso   1.00
N629   N     0.23744   0.81881   0.34617   0.00000  Uiso   1.00
N630   N     0.26255   0.84786   0.65383   0.00000  Uiso   1.00
O631   O     0.25325   0.76204   0.53992   0.00000  Uiso   1.00
O632   O     0.24674   0.90462   0.46008   0.00000  Uiso   1.00
O633   O     0.24480   0.75226   0.43612   0.00000  Uiso   1.00
O634   O     0.25520   0.91441   0.56388   0.00000  Uiso   1.00
O635   O     0.18935   0.83821   0.55191   0.00000  Uiso   1.00
O636   O     0.31064   0.82845   0.44809   0.00000  Uiso   1.00
O637   O     0.18090   0.82843   0.44810   0.00000  Uiso   1.00
O638   O     0.31910   0.83824   0.55190   0.00000  Uiso   1.00
C639   C     0.74275   0.73328   0.48469   0.00000  Uiso   1.00
C640   C     0.59520   0.81797   0.54822   0.00000  Uiso   1.00
C641   C     0.88385   0.83211   0.49838   0.00000  Uiso   1.00
C642   C     0.61626   0.83502   0.50178   0.00000  Uiso   1.00
C643   C     0.90899   0.81484   0.54489   0.00000  Uiso   1.00
C644   C     0.59118   0.85250   0.45538   0.00000  Uiso   1.00
C645   C     0.95536   0.81490   0.54562   0.00000  Uiso   1.00
C646   C     0.54483   0.85263   0.45477   0.00000  Uiso   1.00
C647   C     0.97673   0.83328   0.49970   0.00000  Uiso   1.00
C648   C     0.52345   0.83427   0.50070   0.00000  Uiso   1.00
C649   C     0.95141   0.85071   0.45282   0.00000  Uiso   1.00
C650   C     0.74456   0.93257   0.51551   0.00000  Uiso   1.00
C651   C     0.54875   0.81683   0.54757   0.00000  Uiso   1.00
C652   C     0.98067   0.79708   0.59154   0.00000  Uiso   1.00
C653   C     0.51953   0.87055   0.40892   0.00000  Uiso   1.00
C654   C     0.70314   0.98245   0.41438   0.00000  Uiso   1.00
C655   C     0.66049   0.67625   0.40056   0.00000  Uiso   1.00
C656   C     0.71459   0.67972   0.58580   0.00000  Uiso   1.00
C657   C     0.66779   0.69993   0.57751   0.00000  Uiso   1.00
C658   C     0.52717   0.79811   0.59258   0.00000  Uiso   1.00
C659   C     0.97302   0.86950   0.40788   0.00000  Uiso   1.00
C660   C     0.72818   0.67722   0.47599   0.00000  Uiso   1.00
C661   C     0.73137   0.98722   0.52428   0.00000  Uiso   1.00
C662   C     0.66445   0.83375   0.50066   0.00000  Uiso   1.00
C663   C     0.83557   0.83301   0.49936   0.00000  Uiso   1.00
C664   C     0.90492   0.84943   0.45210   0.00000  Uiso   1.00
Cu665  Cu    0.75500   0.83913   0.56146   0.00000  Uiso   1.00
Cu666  Cu    0.74499   0.82754   0.43854   0.00000  Uiso   1.00
H667   H     0.88524   0.86302   0.41647   0.00000  Uiso   1.00
H668   H     0.95397   0.88324   0.37188   0.00000  Uiso   1.00
H669   H     0.63804   0.67727   0.43789   0.00000  Uiso   1.00
H670   H     0.66792   0.71736   0.39587   0.00000  Uiso   1.00
H671   H     0.64240   0.98670   0.35675   0.00000  Uiso   1.00
H672   H     0.72599   0.98127   0.37776   0.00000  Uiso   1.00
H673   H     0.69097   0.94120   0.41315   0.00000  Uiso   1.00
H674   H     0.66776   0.73078   0.55022   0.00000  Uiso   1.00
H675   H     0.64362   0.99982   0.55385   0.00000  Uiso   1.00
H676   H     0.65631   0.71786   0.62294   0.00000  Uiso   1.00
H677   H     0.71121   0.98336   0.61402   0.00000  Uiso   1.00
H678   H     0.61484   0.80452   0.58398   0.00000  Uiso   1.00
H679   H     0.73877   0.71142   0.61299   0.00000  Uiso   1.00
H680   H     0.96451   0.78252   0.62674   0.00000  Uiso   1.00
H681   H     0.53570   0.88513   0.37375   0.00000  Uiso   1.00
H682   H     0.71242   0.79583   0.65026   0.00000  Uiso   1.00
H683   H     0.78668   0.87228   0.35011   0.00000  Uiso   1.00
H684   H     0.89241   0.80105   0.58033   0.00000  Uiso   1.00
H685   H     0.60780   0.86627   0.41996   0.00000  Uiso   1.00
H686   H     0.54623   0.78437   0.62857   0.00000  Uiso   1.00
N687   N     0.73744   0.81881   0.34617   0.00000  Uiso   1.00
N688   N     0.76255   0.84786   0.65383   0.00000  Uiso   1.00
O689   O     0.75325   0.76204   0.53992   0.00000  Uiso   1.00
O690   O     0.74674   0.90462   0.46008   0.00000  Uiso   1.00
O691   O     0.74480   0.75226   0.43612   0.00000  Uiso   1.00
O692   O     0.75520   0.91441   0.56388   0.00000  Uiso   1.00
O693   O     0.68935   0.83821   0.55191   0.00000  Uiso   1.00
O694   O     0.81064   0.82845   0.44809   0.00000  Uiso   1.00
O695   O     0.68090   0.82843   0.44810   0.00000  Uiso   1.00
O696   O     0.81910   0.83824   0.55190   0.00000  Uiso   1.00
C697   C     0.24275   0.06661   0.81802   0.00000  Uiso   1.00
C698   C     0.09520   0.15130   0.88156   0.00000  Uiso   1.00
C699   C     0.38385   0.16544   0.83171   0.00000  Uiso   1.00
C700   C     0.11626   0.16835   0.83511   0.00000  Uiso   1.00
C701   C     0.40899   0.14817   0.87823   0.00000  Uiso   1.00
C702   C     0.09118   0.18583   0.78872   0.00000  Uiso   1.00
C703   C     0.45536   0.14823   0.87895   0.00000  Uiso   1.00
C704   C     0.04483   0.18597   0.78811   0.00000  Uiso   1.00
C705   C     0.47673   0.16661   0.83303   0.00000  Uiso   1.00
C706   C     0.02345   0.16760   0.83403   0.00000  Uiso   1.00
C707   C     0.45141   0.18404   0.78615   0.00000  Uiso   1.00
C708   C     0.24456   0.26591   0.84884   0.00000  Uiso   1.00
C709   C     0.04875   0.15016   0.88091   0.00000  Uiso   1.00
C710   C     0.48067   0.13041   0.92488   0.00000  Uiso   1.00
C711   C     0.01953   0.20388   0.74225   0.00000  Uiso   1.00
C712   C     0.20314   0.31578   0.74771   0.00000  Uiso   1.00
C713   C     0.16049   0.00958   0.73390   0.00000  Uiso   1.00
C714   C     0.21459   0.01306   0.91913   0.00000  Uiso   1.00
C715   C     0.16779   0.03327   0.91084   0.00000  Uiso   1.00
C716   C     0.02717   0.13145   0.92591   0.00000  Uiso   1.00
C717   C     0.47302   0.20283   0.74121   0.00000  Uiso   1.00
C718   C     0.22818   0.01055   0.80932   0.00000  Uiso   1.00
C719   C     0.23137   0.32056   0.85762   0.00000  Uiso   1.00
C720   C     0.16445   0.16708   0.83400   0.00000  Uiso   1.00
C721   C     0.33557   0.16634   0.83269   0.00000  Uiso   1.00
C722   C     0.40492   0.18276   0.78543   0.00000  Uiso   1.00
Cu723  Cu    0.25500   0.17246   0.89479   0.00000  Uiso   1.00
Cu724  Cu    0.24499   0.16087   0.77187   0.00000  Uiso   1.00
H725   H     0.38524   0.19635   0.74981   0.00000  Uiso   1.00
H726   H     0.45397   0.21657   0.70522   0.00000  Uiso   1.00
H727   H     0.13804   0.01060   0.77122   0.00000  Uiso   1.00
H728   H     0.16792   0.05070   0.72920   0.00000  Uiso   1.00
H729   H     0.14240   0.32003   0.69009   0.00000  Uiso   1.00
H730   H     0.22599   0.31460   0.71109   0.00000  Uiso   1.00
H731   H     0.19097   0.27453   0.74648   0.00000  Uiso   1.00
H732   H     0.16776   0.06411   0.88355   0.00000  Uiso   1.00
H733   H     0.14362   0.33315   0.88719   0.00000  Uiso   1.00
H734   H     0.15631   0.05119   0.95627   0.00000  Uiso   1.00
H735   H     0.21121   0.31669   0.94735   0.00000  Uiso   1.00
H736   H     0.11484   0.13785   0.91731   0.00000  Uiso   1.00
H737   H     0.23877   0.04476   0.94633   0.00000  Uiso   1.00
H738   H     0.46451   0.11585   0.96007   0.00000  Uiso   1.00
H739   H     0.03570   0.21847   0.70708   0.00000  Uiso   1.00
H740   H     0.21242   0.12916   0.98359   0.00000  Uiso   1.00
H741   H     0.28668   0.20562   0.68345   0.00000  Uiso   1.00
H742   H     0.39241   0.13439   0.91366   0.00000  Uiso   1.00
H743   H     0.10780   0.19961   0.75330   0.00000  Uiso   1.00
H744   H     0.04623   0.11771   0.96190   0.00000  Uiso   1.00
N745   N     0.23744   0.15214   0.67951   0.00000  Uiso   1.00
N746   N     0.26255   0.18119   0.98716   0.00000  Uiso   1.00
O747   O     0.25325   0.09538   0.87326   0.00000  Uiso   1.00
O748   O     0.24674   0.23796   0.79341   0.00000  Uiso   1.00
O749   O     0.24480   0.08559   0.76945   0.00000  Uiso   1.00
O750   O     0.25520   0.24774   0.89721   0.00000  Uiso   1.00
O751   O     0.18935   0.17155   0.88524   0.00000  Uiso   1.00
O752   O     0.31064   0.16179   0.78143   0.00000  Uiso   1.00
O753   O     0.18090   0.16176   0.78143   0.00000  Uiso   1.00
O754   O     0.31910   0.17157   0.88523   0.00000  Uiso   1.00
C755   C     0.74275   0.06661   0.81802   0.00000  Uiso   1.00
C756   C     0.59520   0.15130   0.88156   0.00000  Uiso   1.00
C757   C     0.88385   0.16544   0.83171   0.00000  Uiso   1.00
C758   C     0.61626   0.16835   0.83511   0.00000  Uiso   1.00
C759   C     0.90899   0.14817   0.87823   0.00000  Uiso   1.00
C760   C     0.59118   0.18583   0.78872   0.00000  Uiso   1.00
C761   C     0.95536   0.14823   0.87895   0.00000  Uiso   1.00
C762   C     0.54483   0.18597   0.78811   0.00000  Uiso   1.00
C763   C     0.97673   0.16661   0.83303   0.00000  Uiso   1.00
C764   C     0.52345   0.16760   0.83403   0.00000  Uiso   1.00
C765   C     0.95141   0.18404   0.78615   0.00000  Uiso   1.00
C766   C     0.74456   0.26591   0.84884   0.00000  Uiso   1.00
C767   C     0.54875   0.15016   0.88091   0.00000  Uiso   1.00
C768   C     0.98067   0.13041   0.92488   0.00000  Uiso   1.00
C769   C     0.51953   0.20388   0.74225   0.00000  Uiso   1.00
C770   C     0.70314   0.31578   0.74771   0.00000  Uiso   1.00
C771   C     0.66049   0.00958   0.73390   0.00000  Uiso   1.00
C772   C     0.71459   0.01306   0.91913   0.00000  Uiso   1.00
C773   C     0.66779   0.03327   0.91084   0.00000  Uiso   1.00
C774   C     0.52717   0.13145   0.92591   0.00000  Uiso   1.00
C775   C     0.97302   0.20283   0.74121   0.00000  Uiso   1.00
C776   C     0.72818   0.01055   0.80932   0.00000  Uiso   1.00
C777   C     0.73137   0.32056   0.85762   0.00000  Uiso   1.00
C778   C     0.66445   0.16708   0.83400   0.00000  Uiso   1.00
C779   C     0.83557   0.16634   0.83269   0.00000  Uiso   1.00
C780   C     0.90492   0.18276   0.78543   0.00000  Uiso   1.00
Cu781  Cu    0.75500   0.17246   0.89479   0.00000  Uiso   1.00
Cu782  Cu    0.74499   0.16087   0.77187   0.00000  Uiso   1.00
H783   H     0.88524   0.19635   0.74981   0.00000  Uiso   1.00
H784   H     0.95397   0.21657   0.70522   0.00000  Uiso   1.00
H785   H     0.63804   0.01060   0.77122   0.00000  Uiso   1.00
H786   H     0.66792   0.05070   0.72920   0.00000  Uiso   1.00
H787   H     0.64240   0.32003   0.69009   0.00000  Uiso   1.00
H788   H     0.72599   0.31460   0.71109   0.00000  Uiso   1.00
H789   H     0.69097   0.27453   0.74648   0.00000  Uiso   1.00
H790   H     0.66776   0.06411   0.88355   0.00000  Uiso   1.00
H791   H     0.64362   0.33315   0.88719   0.00000  Uiso   1.00
H792   H     0.65631   0.05119   0.95627   0.00000  Uiso   1.00
H793   H     0.71121   0.31669   0.94735   0.00000  Uiso   1.00
H794   H     0.61484   0.13785   0.91731   0.00000  Uiso   1.00
H795   H     0.73877   0.04476   0.94633   0.00000  Uiso   1.00
H796   H     0.96451   0.11585   0.96007   0.00000  Uiso   1.00
H797   H     0.53570   0.21847   0.70708   0.00000  Uiso   1.00
H798   H     0.71242   0.12916   0.98359   0.00000  Uiso   1.00
H799   H     0.78668   0.20562   0.68345   0.00000  Uiso   1.00
H800   H     0.89241   0.13439   0.91366   0.00000  Uiso   1.00
H801   H     0.60780   0.19961   0.75330   0.00000  Uiso   1.00
H802   H     0.54623   0.11771   0.96190   0.00000  Uiso   1.00
N803   N     0.73744   0.15214   0.67951   0.00000  Uiso   1.00
N804   N     0.76255   0.18119   0.98716   0.00000  Uiso   1.00
O805   O     0.75325   0.09538   0.87326   0.00000  Uiso   1.00
O806   O     0.74674   0.23796   0.79341   0.00000  Uiso   1.00
O807   O     0.74480   0.08559   0.76945   0.00000  Uiso   1.00
O808   O     0.75520   0.24774   0.89721   0.00000  Uiso   1.00
O809   O     0.68935   0.17155   0.88524   0.00000  Uiso   1.00
O810   O     0.81064   0.16179   0.78143   0.00000  Uiso   1.00
O811   O     0.68090   0.16176   0.78143   0.00000  Uiso   1.00
O812   O     0.81910   0.17157   0.88523   0.00000  Uiso   1.00
C813   C     0.24275   0.39995   0.81802   0.00000  Uiso   1.00
C814   C     0.09520   0.48463   0.88156   0.00000  Uiso   1.00
C815   C     0.38385   0.49877   0.83171   0.00000  Uiso   1.00
C816   C     0.11626   0.50168   0.83511   0.00000  Uiso   1.00
C817   C     0.40899   0.48151   0.87823   0.00000  Uiso   1.00
C818   C     0.09118   0.51917   0.78872   0.00000  Uiso   1.00
C819   C     0.45536   0.48157   0.87895   0.00000  Uiso   1.00
C820   C     0.04483   0.51930   0.78811   0.00000  Uiso   1.00
C821   C     0.47673   0.49995   0.83303   0.00000  Uiso   1.00
C822   C     0.02345   0.50093   0.83403   0.00000  Uiso   1.00
C823   C     0.45141   0.51737   0.78615   0.00000  Uiso   1.00
C824   C     0.24456   0.59924   0.84884   0.00000  Uiso   1.00
C825   C     0.04875   0.48349   0.88091   0.00000  Uiso   1.00
C826   C     0.48067   0.46375   0.92488   0.00000  Uiso   1.00
C827   C     0.01953   0.53721   0.74225   0.00000  Uiso   1.00
C828   C     0.20314   0.64911   0.74771   0.00000  Uiso   1.00
C829   C     0.16049   0.34292   0.73390   0.00000  Uiso   1.00
C830   C     0.21459   0.34639   0.91913   0.00000  Uiso   1.00
C831   C     0.16779   0.36660   0.91084   0.00000  Uiso   1.00
C832   C     0.02717   0.46478   0.92591   0.00000  Uiso   1.00
C833   C     0.47302   0.53617   0.74121   0.00000  Uiso   1.00
C834   C     0.22818   0.34388   0.80932   0.00000  Uiso   1.00
C835   C     0.23137   0.65389   0.85762   0.00000  Uiso   1.00
C836   C     0.16445   0.50042   0.83400   0.00000  Uiso   1.00
C837   C     0.33557   0.49968   0.83269   0.00000  Uiso   1.00
C838   C     0.40492   0.51610   0.78543   0.00000  Uiso   1.00
Cu839  Cu    0.25500   0.50579   0.89479   0.00000  Uiso   1.00
Cu840  Cu    0.24499   0.49421   0.77187   0.00000  Uiso   1.00
H841   H     0.38524   0.52969   0.74981   0.00000  Uiso   1.00
H842   H     0.45397   0.54991   0.70522   0.00000  Uiso   1.00
H843   H     0.13804   0.34393   0.77122   0.00000  Uiso   1.00
H844   H     0.16792   0.38403   0.72920   0.00000  Uiso   1.00
H845   H     0.14240   0.65337   0.69009   0.00000  Uiso   1.00
H846   H     0.22599   0.64794   0.71109   0.00000  Uiso   1.00
H847   H     0.19097   0.60787   0.74648   0.00000  Uiso   1.00
H848   H     0.16776   0.39744   0.88355   0.00000  Uiso   1.00
H849   H     0.14362   0.66649   0.88719   0.00000  Uiso   1.00
H850   H     0.15631   0.38452   0.95627   0.00000  Uiso   1.00
H851   H     0.21121   0.65003   0.94735   0.00000  Uiso   1.00
H852   H     0.11484   0.47119   0.91731   0.00000  Uiso   1.00
H853   H     0.23877   0.37809   0.94633   0.00000  Uiso   1.00
H854   H     0.46451   0.44918   0.96007   0.00000  Uiso   1.00
H855   H     0.03570   0.55180   0.70708   0.00000  Uiso   1.00
H856   H     0.21242   0.46249   0.98359   0.00000  Uiso   1.00
H857   H     0.28668   0.53895   0.68345   0.00000  Uiso   1.00
H858   H     0.39241   0.46772   0.91366   0.00000  Uiso   1.00
H859   H     0.10780   0.53294   0.75330   0.00000  Uiso   1.00
H860   H     0.04623   0.45104   0.96190   0.00000  Uiso   1.00
N861   N     0.23744   0.48547   0.67951   0.00000  Uiso   1.00
N862   N     0.26255   0.51453   0.98716   0.00000  Uiso   1.00
O863   O     0.25325   0.42871   0.87326   0.00000  Uiso   1.00
O864   O     0.24674   0.57129   0.79341   0.00000  Uiso   1.00
O865   O     0.24480   0.41892   0.76945   0.00000  Uiso   1.00
O866   O     0.25520   0.58108   0.89721   0.00000  Uiso   1.00
O867   O     0.18935   0.50488   0.88524   0.00000  Uiso   1.00
O868   O     0.31064   0.49512   0.78143   0.00000  Uiso   1.00
O869   O     0.18090   0.49510   0.78143   0.00000  Uiso   1.00
O870   O     0.31910   0.50490   0.88523   0.00000  Uiso   1.00
C871   C     0.74275   0.39995   0.81802   0.00000  Uiso   1.00
C872   C     0.59520   0.48463   0.88156   0.00000  Uiso   1.00
C873   C     0.88385   0.49877   0.83171   0.00000  Uiso   1.00
C874   C     0.61626   0.50168   0.83511   0.00000  Uiso   1.00
C875   C     0.90899   0.48151   0.87823   0.00000  Uiso   1.00
C876   C     0.59118   0.51917   0.78872   0.00000  Uiso   1.00
C877   C     0.95536   0.48157   0.87895   0.00000  Uiso   1.00
C878   C     0.54483   0.51930   0.78811   0.00000  Uiso   1.00
C879   C     0.97673   0.49995   0.83303   0.00000  Uiso   1.00
C880   C     0.52345   0.50093   0.83403   0.00000  Uiso   1.00
C881   C     0.95141   0.51737   0.78615   0.00000  Uiso   1.00
C882   C     0.74456   0.59924   0.84884   0.00000  Uiso   1.00
C883   C     0.54875   0.48349   0.88091   0.00000  Uiso   1.00
C884   C     0.98067   0.46375   0.92488   0.00000  Uiso   1.00
C885   C     0.51953   0.53721   0.74225   0.00000  Uiso   1.00
C886   C     0.70314   0.64911   0.74771   0.00000  Uiso   1.00
C887   C     0.66049   0.34292   0.73390   0.00000  Uiso   1.00
C888   C     0.71459   0.34639   0.91913   0.00000  Uiso   1.00
C889   C     0.66779   0.36660   0.91084   0.00000  Uiso   1.00
C890   C     0.52717   0.46478   0.92591   0.00000  Uiso   1.00
C891   C     0.97302   0.53617   0.74121   0.00000  Uiso   1.00
C892   C     0.72818   0.34388   0.80932   0.00000  Uiso   1.00
C893   C     0.73137   0.65389   0.85762   0.00000  Uiso   1.00
C894   C     0.66445   0.50042   0.83400   0.00000  Uiso   1.00
C895   C     0.83557   0.49968   0.83269   0.00000  Uiso   1.00
C896   C     0.90492   0.51610   0.78543   0.00000  Uiso   1.00
Cu897  Cu    0.75500   0.50579   0.89479   0.00000  Uiso   1.00
Cu898  Cu    0.74499   0.49421   0.77187   0.00000  Uiso   1.00
H899   H     0.88524   0.52969   0.74981   0.00000  Uiso   1.00
H900   H     0.95397   0.54991   0.70522   0.00000  Uiso   1.00
H901   H     0.63804   0.34393   0.77122   0.00000  Uiso   1.00
H902   H     0.66792   0.38403   0.72920   0.00000  Uiso   1.00
H903   H     0.64240   0.65337   0.69009   0.00000  Uiso   1.00
H904   H     0.72599   0.64794   0.71109   0.00000  Uiso   1.00
H905   H     0.69097   0.60787   0.74648   0.00000  Uiso   1.00
H906   H     0.66776   0.39744   0.88355   0.00000  Uiso   1.00
H907   H     0.64362   0.66649   0.88719   0.00000  Uiso   1.00
H908   H     0.65631   0.38452   0.95627   0.00000  Uiso   1.00
H909   H     0.71121   0.65003   0.94735   0.00000  Uiso   1.00
H910   H     0.61484   0.47119   0.91731   0.00000  Uiso   1.00
H911   H     0.73877   0.37809   0.94633   0.00000  Uiso   1.00
H912   H     0.96451   0.44918   0.96007   0.00000  Uiso   1.00
H913   H     0.53570   0.55180   0.70708   0.00000  Uiso   1.00
H914   H     0.71242   0.46249   0.98359   0.00000  Uiso   1.00
H915   H     0.78668   0.53895   0.68345   0.00000  Uiso   1.00
H916   H     0.89241   0.46772   0.91366   0.00000  Uiso   1.00
H917   H     0.60780   0.53294   0.75330   0.00000  Uiso   1.00
H918   H     0.54623   0.45104   0.96190   0.00000  Uiso   1.00
N919   N     0.73744   0.48547   0.67951   0.00000  Uiso   1.00
N920   N     0.76255   0.51453   0.98716   0.00000  Uiso   1.00
O921   O     0.75325   0.42871   0.87326   0.00000  Uiso   1.00
O922   O     0.74674   0.57129   0.79341   0.00000  Uiso   1.00
O923   O     0.74480   0.41892   0.76945   0.00000  Uiso   1.00
O924   O     0.75520   0.58108   0.89721   0.00000  Uiso   1.00
O925   O     0.68935   0.50488   0.88524   0.00000  Uiso   1.00
O926   O     0.81064   0.49512   0.78143   0.00000  Uiso   1.00
O927   O     0.68090   0.49510   0.78143   0.00000  Uiso   1.00
O928   O     0.81910   0.50490   0.88523   0.00000  Uiso   1.00
C929   C     0.24275   0.73328   0.81802   0.00000  Uiso   1.00
C930   C     0.09520   0.81797   0.88156   0.00000  Uiso   1.00
C931   C     0.38385   0.83211   0.83171   0.00000  Uiso   1.00
C932   C     0.11626   0.83502   0.83511   0.00000  Uiso   1.00
C933   C     0.40899   0.81484   0.87823   0.00000  Uiso   1.00
C934   C     0.09118   0.85250   0.78872   0.00000  Uiso   1.00
C935   C     0.45536   0.81490   0.87895   0.00000  Uiso   1.00
C936   C     0.04483   0.85263   0.78811   0.00000  Uiso   1.00
C937   C     0.47673   0.83328   0.83303   0.00000  Uiso   1.00
C938   C     0.02345   0.83427   0.83403   0.00000  Uiso   1.00
C939   C     0.45141   0.85071   0.78615   0.00000  Uiso   1.00
C940   C     0.24456   0.93257   0.84884   0.00000  Uiso   1.00
C941   C     0.04875   0.81683   0.88091   0.00000  Uiso   1.00
C942   C     0.48067   0.79708   0.92488   0.00000  Uiso   1.00
C943   C     0.01953   0.87055   0.74225   0.00000  Uiso   1.00
C944   C     0.20314   0.98245   0.74771   0.00000  Uiso   1.00
C945   C     0.16049   0.67625   0.73390   0.00000  Uiso   1.00
C946   C     0.21459   0.67972   0.91913   0.00000  Uiso   1.00
C947   C     0.16779   0.69993   0.91084   0.00000  Uiso   1.00
C948   C     0.02717   0.79811   0.92591   0.00000  Uiso   1.00
C949   C     0.47302   0.86950   0.74121   0.00000  Uiso   1.00
C950   C     0.22818   0.67722   0.80932   0.00000  Uiso   1.00
C951   C     0.23137   0.98722   0.85762   0.00000  Uiso   1.00
C952   C     0.16445   0.83375   0.83400   0.00000  Uiso   1.00
C953   C     0.33557   0.83301   0.83269   0.00000  Uiso   1.00
C954   C     0.40492   0.84943   0.78543   0.00000  Uiso   1.00
Cu955  Cu    0.25500   0.83913   0.89479   0.00000  Uiso   1.00
Cu956  Cu    0.24499   0.82754   0.77187   0.00000  Uiso   1.00
H957   H     0.38524   0.86302   0.74981   0.00000  Uiso   1.00
H958   H     0.45397   0.88324   0.70522   0.00000  Uiso   1.00
H959   H     0.13804   0.67727   0.77122   0.00000  Uiso   1.00
H960   H     0.16792   0.71736   0.72920   0.00000  Uiso   1.00
H961   H     0.14240   0.98670   0.69009   0.00000  Uiso   1.00
H962   H     0.22599   0.98127   0.71109   0.00000  Uiso   1.00
H963   H     0.19097   0.94120   0.74648   0.00000  Uiso   1.00
H964   H     0.16776   0.73078   0.88355   0.00000  Uiso   1.00
H965   H     0.14362   0.99982   0.88719   0.00000  Uiso   1.00
H966   H     0.15631   0.71786   0.95627   0.00000  Uiso   1.00
H967   H     0.21121   0.98336   0.94735   0.00000  Uiso   1.00
H968   H     0.11484   0.80452   0.91731   0.00000  Uiso   1.00
H969   H     0.23877   0.71142   0.94633   0.00000  Uiso   1.00
H970   H     0.46451   0.78252   0.96007   0.00000  Uiso   1.00
H971   H     0.03570   0.88513   0.70708   0.00000  Uiso   1.00
H972   H     0.21242   0.79583   0.98359   0.00000  Uiso   1.00
H973   H     0.28668   0.87228   0.68345   0.00000  Uiso   1.00
H974   H     0.39241   0.80105   0.91366   0.00000  Uiso   1.00
H975   H     0.10780   0.86627   0.75330   0.00000  Uiso   1.00
H976   H     0.04623   0.78437   0.96190   0.00000  Uiso   1.00
N977   N     0.23744   0.81881   0.67951   0.00000  Uiso   1.00
N978   N     0.26255   0.84786   0.98716   0.00000  Uiso   1.00
O979   O     0.25325   0.76204   0.87326   0.00000  Uiso   1.00
O980   O     0.24674   0.90462   0.79341   0.00000  Uiso   1.00
O981   O     0.24480   0.75226   0.76945   0.00000  Uiso   1.00
O982   O     0.25520   0.91441   0.89721   0.00000  Uiso   1.00
O983   O     0.18935   0.83821   0.88524   0.00000  Uiso   1.00
O984   O     0.31064   0.82845   0.78143   0.00000  Uiso   1.00
O985   O     0.18090   0.82843   0.78143   0.00000  Uiso   1.00
O986   O     0.31910   0.83824   0.88523   0.00000  Uiso   1.00
C987   C     0.74275   0.73328   0.81802   0.00000  Uiso   1.00
C988   C     0.59520   0.81797   0.88156   0.00000  Uiso   1.00
C989   C     0.88385   0.83211   0.83171   0.00000  Uiso   1.00
C990   C     0.61626   0.83502   0.83511   0.00000  Uiso   1.00
C991   C     0.90899   0.81484   0.87823   0.00000  Uiso   1.00
C992   C     0.59118   0.85250   0.78872   0.00000  Uiso   1.00
C993   C     0.95536   0.81490   0.87895   0.00000  Uiso   1.00
C994   C     0.54483   0.85263   0.78811   0.00000  Uiso   1.00
C995   C     0.97673   0.83328   0.83303   0.00000  Uiso   1.00
C996   C     0.52345   0.83427   0.83403   0.00000  Uiso   1.00
C997   C     0.95141   0.85071   0.78615   0.00000  Uiso   1.00
C998   C     0.74456   0.93257   0.84884   0.00000  Uiso   1.00
C999   C     0.54875   0.81683   0.88091   0.00000  Uiso   1.00
C1000  C     0.98067   0.79708   0.92488   0.00000  Uiso   1.00
C1001  C     0.51953   0.87055   0.74225   0.00000  Uiso   1.00
C1002  C     0.70314   0.98245   0.74771   0.00000  Uiso   1.00
C1003  C     0.66049   0.67625   0.73390   0.00000  Uiso   1.00
C1004  C     0.71459   0.67972   0.91913   0.00000  Uiso   1.00
C1005  C     0.66779   0.69993   0.91084   0.00000  Uiso   1.00
C1006  C     0.52717   0.79811   0.92591   0.00000  Uiso   1.00
C1007  C     0.97302   0.86950   0.74121   0.00000  Uiso   1.00
C1008  C     0.72818   0.67722   0.80932   0.00000  Uiso   1.00
C1009  C     0.73137   0.98722   0.85762   0.00000  Uiso   1.00
C1010  C     0.66445   0.83375   0.83400   0.00000  Uiso   1.00
C1011  C     0.83557   0.83301   0.83269   0.00000  Uiso   1.00
C1012  C     0.90492   0.84943   0.78543   0.00000  Uiso   1.00
Cu1013 Cu    0.75500   0.83913   0.89479   0.00000  Uiso   1.00
Cu1014 Cu    0.74499   0.82754   0.77187   0.00000  Uiso   1.00
H1015  H     0.88524   0.86302   0.74981   0.00000  Uiso   1.00
H1016  H     0.95397   0.88324   0.70522   0.00000  Uiso   1.00
H1017  H     0.63804   0.67727   0.77122   0.00000  Uiso   1.00
H1018  H     0.66792   0.71736   0.72920   0.00000  Uiso   1.00
H1019  H     0.64240   0.98670   0.69009   0.00000  Uiso   1.00
H1020  H     0.72599   0.98127   0.71109   0.00000  Uiso   1.00
H1021  H     0.69097   0.94120   0.74648   0.00000  Uiso   1.00
H1022  H     0.66776   0.73078   0.88355   0.00000  Uiso   1.00
H1023  H     0.64362   0.99982   0.88719   0.00000  Uiso   1.00
H1024  H     0.65631   0.71786   0.95627   0.00000  Uiso   1.00
H1025  H     0.71121   0.98336   0.94735   0.00000  Uiso   1.00
H1026  H     0.61484   0.80452   0.91731   0.00000  Uiso   1.00
H1027  H     0.73877   0.71142   0.94633   0.00000  Uiso   1.00
H1028  H     0.96451   0.78252   0.96007   0.00000  Uiso   1.00
H1029  H     0.53570   0.88513   0.70708   0.00000  Uiso   1.00
H1030  H     0.71242   0.79583   0.98359   0.00000  Uiso   1.00
H1031  H     0.78668   0.87228   0.68345   0.00000  Uiso   1.00
H1032  H     0.89241   0.80105   0.91366   0.00000  Uiso   1.00
H1033  H     0.60780   0.86627   0.75330   0.00000  Uiso   1.00
H1034  H     0.54623   0.78437   0.96190   0.00000  Uiso   1.00
N1035  N     0.73744   0.81881   0.67951   0.00000  Uiso   1.00
N1036  N     0.76255   0.84786   0.98716   0.00000  Uiso   1.00
O1037  O     0.75325   0.76204   0.87326   0.00000  Uiso   1.00
O1038  O     0.74674   0.90462   0.79341   0.00000  Uiso   1.00
O1039  O     0.74480   0.75226   0.76945   0.00000  Uiso   1.00
O1040  O     0.75520   0.91441   0.89721   0.00000  Uiso   1.00
O1041  O     0.68935   0.83821   0.88524   0.00000  Uiso   1.00
O1042  O     0.81064   0.82845   0.78143   0.00000  Uiso   1.00
O1043  O     0.68090   0.82843   0.78143   0.00000  Uiso   1.00
O1044  O     0.81910   0.83824   0.88523   0.00000  Uiso   1.00
loop_
_geom_bond_atom_site_label_1
_geom_bond_atom_site_label_2
_geom_bond_distance
_geom_bond_site_symmetry_2
_ccdc_geom_bond_type
C1     O51     1.299   .     A
C1     C22     1.462   .     S
C1     O53     1.293   .     A
C2     C4      1.400   .     A
C2     H40     1.084   .     S
C2     C13     1.393   .     A
C3     C25     1.453   .     S
C3     C26     1.400   .     A
C3     C5      1.402   .     A
C4     C24     1.451   .     S
C4     C6      1.402   .     A
C5     H46     1.085   .     S
C5     C7      1.391   .     A
C6     H47     1.085   .     S
C6     C8      1.391   .     A
C7     C14     1.402   .     A
C7     C9      1.410   .     A
C8     C10     1.411   .     A
C8     C15     1.401   .     A
C9     C11     1.413   .     A
C9     C68     1.401   .     S
C10    C13     1.413   .     A
C10    C67     1.401   1_455 S
C11    C26     1.394   .     A
C11    C21     1.401   .     A
C12    C23     1.461   .     S
C12    O52     1.297   .     A
C12    O54     1.296   .     A
C13    C20     1.401   .     A
C14    H42     1.084   .     S
C14    C78     1.394   .     S
C15    H43     1.084   .     S
C15    C79     1.394   1_455 S
C16    H35     1.106   .     S
C16    H34     1.106   .     S
C16    C133    1.531   .     S
C16    C138    1.527   .     S
C17    H31     1.111   .     S
C17    H32     1.107   .     S
C17    C248    1.531   1_545 S
C17    H265    1.111   1_545 S
C18    C19     1.533   .     S
C18    H41     1.106   .     S
C18    C255    1.525   1_545 S
C18    H271    1.104   1_545 S
C19    H38     1.107   .     S
C19    H36     1.108   .     S
C19    H269    1.111   1_545 S
C20    H48     1.084   .     S
C20    C72     1.394   1_455 S
C21    H30     1.084   .     S
C21    C73     1.394   .     S
C22    C248    1.527   1_545 S
C22    C255    1.349   1_545 S
C23    C138    1.349   .     S
C23    C134    1.525   .     S
C24    O55     1.297   .     A
C24    O57     1.293   .     A
C25    O56     1.298   .     A
C25    O58     1.293   .     A
C26    H29     1.085   .     S
Cu27   N50     2.021   .     S
Cu27   O54     1.937   .     S
Cu27   O58     1.954   .     S
Cu27   O51     1.942   .     S
Cu27   O55     1.965   .     S
Cu27   Cu28    2.690   .     S
Cu28   O53     1.937   .     S
Cu28   N49     2.021   .     S
Cu28   O56     1.965   .     S
Cu28   O57     1.954   .     S
Cu28   O52     1.942   .     S
H33    C133    1.111   .     S
H37    C135    1.111   .     S
H39    C134    1.104   .     S
H44    N397    1.027   .     S
H45    N746    1.029   1_554 S
N49    H740    1.027   1_554 S
N49    N746    1.294   1_554 S
N50    N397    1.294   .     S
N50    H393    1.029   .     S
C59    O109    1.299   .     A
C59    C80     1.462   .     S
C59    O111    1.293   .     A
C60    C62     1.400   .     A
C60    H98     1.084   .     S
C60    C71     1.393   .     A
C61    C83     1.453   .     S
C61    C84     1.400   .     A
C61    C63     1.402   .     A
C62    C82     1.451   .     S
C62    C64     1.402   .     A
C63    H104    1.085   .     S
C63    C65     1.391   .     A
C64    H105    1.085   .     S
C64    C66     1.391   .     A
C65    C72     1.402   .     A
C65    C67     1.410   .     A
C66    C68     1.411   .     A
C66    C73     1.401   .     A
C67    C69     1.413   .     A
C67    C10     1.401   1_655 S
C68    C71     1.413   .     A
C69    C84     1.394   .     A
C69    C79     1.401   .     A
C70    C81     1.461   .     S
C70    O110    1.297   .     A
C70    O112    1.296   .     A
C71    C78     1.401   .     A
C72    H100    1.084   .     S
C72    C20     1.394   1_655 S
C73    H101    1.084   .     S
C74    H93     1.106   .     S
C74    H92     1.106   .     S
C74    C191    1.531   .     S
C74    C196    1.527   .     S
C75    H89     1.111   .     S
C75    H90     1.107   .     S
C75    C306    1.531   1_545 S
C75    H323    1.111   1_545 S
C76    C77     1.533   .     S
C76    H99     1.106   .     S
C76    C313    1.525   1_545 S
C76    H329    1.104   1_545 S
C77    H96     1.107   .     S
C77    H94     1.108   .     S
C77    H327    1.111   1_545 S
C78    H106    1.084   .     S
C79    H88     1.084   .     S
C79    C15     1.394   1_655 S
C80    C306    1.527   1_545 S
C80    C313    1.349   1_545 S
C81    C196    1.349   .     S
C81    C192    1.525   .     S
C82    O113    1.297   .     A
C82    O115    1.293   .     A
C83    O114    1.298   .     A
C83    O116    1.293   .     A
C84    H87     1.085   .     S
Cu85   N108    2.021   .     S
Cu85   O112    1.937   .     S
Cu85   O116    1.954   .     S
Cu85   O109    1.942   .     S
Cu85   O113    1.965   .     S
Cu85   Cu86    2.690   .     S
Cu86   O111    1.937   .     S
Cu86   N107    2.021   .     S
Cu86   O114    1.965   .     S
Cu86   O115    1.954   .     S
Cu86   O110    1.942   .     S
H91    C191    1.111   .     S
H95    C193    1.111   .     S
H97    C192    1.104   .     S
H102   N455    1.027   .     S
H103   N804    1.029   1_554 S
N107   H798    1.027   1_554 S
N107   N804    1.294   1_554 S
N108   N455    1.294   .     S
N108   H451    1.029   .     S
C117   O167    1.299   .     A
C117   C138    1.462   .     S
C117   O169    1.293   .     A
C118   C120    1.400   .     A
C118   H156    1.084   .     S
C118   C129    1.393   .     A
C119   C141    1.453   .     S
C119   C142    1.400   .     A
C119   C121    1.402   .     A
C120   C140    1.451   .     S
C120   C122    1.402   .     A
C121   H162    1.085   .     S
C121   C123    1.391   .     A
C122   H163    1.085   .     S
C122   C124    1.391   .     A
C123   C130    1.402   .     A
C123   C125    1.410   .     A
C124   C126    1.411   .     A
C124   C131    1.401   .     A
C125   C127    1.413   .     A
C125   C184    1.401   .     S
C126   C129    1.413   .     A
C126   C183    1.401   1_455 S
C127   C142    1.394   .     A
C127   C137    1.401   .     A
C128   C139    1.461   .     S
C128   O168    1.297   .     A
C128   O170    1.296   .     A
C129   C136    1.401   .     A
C130   H158    1.084   .     S
C130   C194    1.394   .     S
C131   H159    1.084   .     S
C131   C195    1.394   1_455 S
C132   H151    1.106   .     S
C132   H150    1.106   .     S
C132   C249    1.531   .     S
C132   C254    1.527   .     S
C133   H147    1.111   .     S
C133   H148    1.107   .     S
C134   C135    1.533   .     S
C134   H157    1.106   .     S
C135   H154    1.107   .     S
C135   H152    1.108   .     S
C136   H164    1.084   .     S
C136   C188    1.394   1_455 S
C137   H146    1.084   .     S
C137   C189    1.394   .     S
C139   C254    1.349   .     S
C139   C250    1.525   .     S
C140   O171    1.297   .     A
C140   O173    1.293   .     A
C141   O172    1.298   .     A
C141   O174    1.293   .     A
C142   H145    1.085   .     S
Cu143  N166    2.021   .     S
Cu143  O170    1.937   .     S
Cu143  O174    1.954   .     S
Cu143  O167    1.942   .     S
Cu143  O171    1.965   .     S
Cu143  Cu144   2.690   .     S
Cu144  O169    1.937   .     S
Cu144  N165    2.021   .     S
Cu144  O172    1.965   .     S
Cu144  O173    1.954   .     S
Cu144  O168    1.942   .     S
H149   C249    1.111   .     S
H153   C251    1.111   .     S
H155   C250    1.104   .     S
H160   N513    1.027   .     S
H161   N862    1.029   1_554 S
N165   H856    1.027   1_554 S
N165   N862    1.294   1_554 S
N166   N513    1.294   .     S
N166   H509    1.029   .     S
C175   O225    1.299   .     A
C175   C196    1.462   .     S
C175   O227    1.293   .     A
C176   C178    1.400   .     A
C176   H214    1.084   .     S
C176   C187    1.393   .     A
C177   C199    1.453   .     S
C177   C200    1.400   .     A
C177   C179    1.402   .     A
C178   C198    1.451   .     S
C178   C180    1.402   .     A
C179   H220    1.085   .     S
C179   C181    1.391   .     A
C180   H221    1.085   .     S
C180   C182    1.391   .     A
C181   C188    1.402   .     A
C181   C183    1.410   .     A
C182   C184    1.411   .     A
C182   C189    1.401   .     A
C183   C185    1.413   .     A
C183   C126    1.401   1_655 S
C184   C187    1.413   .     A
C185   C200    1.394   .     A
C185   C195    1.401   .     A
C186   C197    1.461   .     S
C186   O226    1.297   .     A
C186   O228    1.296   .     A
C187   C194    1.401   .     A
C188   H216    1.084   .     S
C188   C136    1.394   1_655 S
C189   H217    1.084   .     S
C190   H209    1.106   .     S
C190   H208    1.106   .     S
C190   C307    1.531   .     S
C190   C312    1.527   .     S
C191   H205    1.111   .     S
C191   H206    1.107   .     S
C192   C193    1.533   .     S
C192   H215    1.106   .     S
C193   H212    1.107   .     S
C193   H210    1.108   .     S
C194   H222    1.084   .     S
C195   H204    1.084   .     S
C195   C131    1.394   1_655 S
C197   C312    1.349   .     S
C197   C308    1.525   .     S
C198   O229    1.297   .     A
C198   O231    1.293   .     A
C199   O230    1.298   .     A
C199   O232    1.293   .     A
C200   H203    1.085   .     S
Cu201  N224    2.021   .     S
Cu201  O228    1.937   .     S
Cu201  O232    1.954   .     S
Cu201  O225    1.942   .     S
Cu201  O229    1.965   .     S
Cu201  Cu202   2.690   .     S
Cu202  O227    1.937   .     S
Cu202  N223    2.021   .     S
Cu202  O230    1.965   .     S
Cu202  O231    1.954   .     S
Cu202  O226    1.942   .     S
H207   C307    1.111   .     S
H211   C309    1.111   .     S
H213   C308    1.104   .     S
H218   N571    1.027   .     S
H219   N920    1.029   1_554 S
N223   H914    1.027   1_554 S
N223   N920    1.294   1_554 S
N224   N571    1.294   .     S
N224   H567    1.029   .     S
C233   O283    1.299   .     A
C233   C254    1.462   .     S
C233   O285    1.293   .     A
C234   C236    1.400   .     A
C234   H272    1.084   .     S
C234   C245    1.393   .     A
C235   C257    1.453   .     S
C235   C258    1.400   .     A
C235   C237    1.402   .     A
C236   C256    1.451   .     S
C236   C238    1.402   .     A
C237   H278    1.085   .     S
C237   C239    1.391   .     A
C238   H279    1.085   .     S
C238   C240    1.391   .     A
C239   C246    1.402   .     A
C239   C241    1.410   .     A
C240   C242    1.411   .     A
C240   C247    1.401   .     A
C241   C243    1.413   .     A
C241   C300    1.401   .     S
C242   C245    1.413   .     A
C242   C299    1.401   1_455 S
C243   C258    1.394   .     A
C243   C253    1.401   .     A
C244   C255    1.461   .     S
C244   O284    1.297   .     A
C244   O286    1.296   .     A
C245   C252    1.401   .     A
C246   H274    1.084   .     S
C246   C310    1.394   .     S
C247   H275    1.084   .     S
C247   C311    1.394   1_455 S
C248   H267    1.106   .     S
C248   H266    1.106   .     S
C248   C17     1.531   1_565 S
C248   C22     1.527   1_565 S
C249   H263    1.111   .     S
C249   H264    1.107   .     S
C250   C251    1.533   .     S
C250   H273    1.106   .     S
C251   H270    1.107   .     S
C251   H268    1.108   .     S
C252   H280    1.084   .     S
C252   C304    1.394   1_455 S
C253   H262    1.084   .     S
C253   C305    1.394   .     S
C255   C22     1.349   1_565 S
C255   C18     1.525   1_565 S
C256   O287    1.297   .     A
C256   O289    1.293   .     A
C257   O288    1.298   .     A
C257   O290    1.293   .     A
C258   H261    1.085   .     S
Cu259  N282    2.021   .     S
Cu259  O286    1.937   .     S
Cu259  O290    1.954   .     S
Cu259  O283    1.942   .     S
Cu259  O287    1.965   .     S
Cu259  Cu260   2.690   .     S
Cu260  O285    1.937   .     S
Cu260  N281    2.021   .     S
Cu260  O288    1.965   .     S
Cu260  O289    1.954   .     S
Cu260  O284    1.942   .     S
H265   C17     1.111   1_565 S
H269   C19     1.111   1_565 S
H271   C18     1.104   1_565 S
H276   N629    1.027   .     S
H277   N978    1.029   1_554 S
N281   H972    1.027   1_554 S
N281   N978    1.294   1_554 S
N282   N629    1.294   .     S
N282   H625    1.029   .     S
C291   O341    1.299   .     A
C291   C312    1.462   .     S
C291   O343    1.293   .     A
C292   C294    1.400   .     A
C292   H330    1.084   .     S
C292   C303    1.393   .     A
C293   C315    1.453   .     S
C293   C316    1.400   .     A
C293   C295    1.402   .     A
C294   C314    1.451   .     S
C294   C296    1.402   .     A
C295   H336    1.085   .     S
C295   C297    1.391   .     A
C296   H337    1.085   .     S
C296   C298    1.391   .     A
C297   C304    1.402   .     A
C297   C299    1.410   .     A
C298   C300    1.411   .     A
C298   C305    1.401   .     A
C299   C301    1.413   .     A
C299   C242    1.401   1_655 S
C300   C303    1.413   .     A
C301   C316    1.394   .     A
C301   C311    1.401   .     A
C302   C313    1.461   .     S
C302   O342    1.297   .     A
C302   O344    1.296   .     A
C303   C310    1.401   .     A
C304   H332    1.084   .     S
C304   C252    1.394   1_655 S
C305   H333    1.084   .     S
C306   H325    1.106   .     S
C306   H324    1.106   .     S
C306   C75     1.531   1_565 S
C306   C80     1.527   1_565 S
C307   H321    1.111   .     S
C307   H322    1.107   .     S
C308   C309    1.533   .     S
C308   H331    1.106   .     S
C309   H328    1.107   .     S
C309   H326    1.108   .     S
C310   H338    1.084   .     S
C311   H320    1.084   .     S
C311   C247    1.394   1_655 S
C313   C80     1.349   1_565 S
C313   C76     1.525   1_565 S
C314   O345    1.297   .     A
C314   O347    1.293   .     A
C315   O346    1.298   .     A
C315   O348    1.293   .     A
C316   H319    1.085   .     S
Cu317  N340    2.021   .     S
Cu317  O344    1.937   .     S
Cu317  O348    1.954   .     S
Cu317  O341    1.942   .     S
Cu317  O345    1.965   .     S
Cu317  Cu318   2.690   .     S
Cu318  O343    1.937   .     S
Cu318  N339    2.021   .     S
Cu318  O346    1.965   .     S
Cu318  O347    1.954   .     S
Cu318  O342    1.942   .     S
H323   C75     1.111   1_565 S
H327   C77     1.111   1_565 S
H329   C76     1.104   1_565 S
H334   N687    1.027   .     S
H335   N1036   1.029   1_554 S
N339   H1030   1.027   1_554 S
N339   N1036   1.294   1_554 S
N340   N687    1.294   .     S
N340   H683    1.029   .     S
C349   O399    1.299   .     A
C349   C370    1.462   .     S
C349   O401    1.293   .     A
C350   C352    1.400   .     A
C350   H388    1.084   .     S
C350   C361    1.393   .     A
C351   C373    1.453   .     S
C351   C374    1.400   .     A
C351   C353    1.402   .     A
C352   C372    1.451   .     S
C352   C354    1.402   .     A
C353   H394    1.085   .     S
C353   C355    1.391   .     A
C354   H395    1.085   .     S
C354   C356    1.391   .     A
C355   C362    1.402   .     A
C355   C357    1.410   .     A
C356   C358    1.411   .     A
C356   C363    1.401   .     A
C357   C359    1.413   .     A
C357   C416    1.401   .     S
C358   C361    1.413   .     A
C358   C415    1.401   1_455 S
C359   C374    1.394   .     A
C359   C369    1.401   .     A
C360   C371    1.461   .     S
C360   O400    1.297   .     A
C360   O402    1.296   .     A
C361   C368    1.401   .     A
C362   H390    1.084   .     S
C362   C426    1.394   .     S
C363   H391    1.084   .     S
C363   C427    1.394   1_455 S
C364   H383    1.106   .     S
C364   H382    1.106   .     S
C364   C481    1.531   .     S
C364   C486    1.527   .     S
C365   H379    1.111   .     S
C365   H380    1.107   .     S
C365   C596    1.531   1_545 S
C365   H613    1.111   1_545 S
C366   C367    1.533   .     S
C366   H389    1.106   .     S
C366   C603    1.525   1_545 S
C366   H619    1.104   1_545 S
C367   H386    1.107   .     S
C367   H384    1.108   .     S
C367   H617    1.111   1_545 S
C368   H396    1.084   .     S
C368   C420    1.394   1_455 S
C369   H378    1.084   .     S
C369   C421    1.394   .     S
C370   C596    1.527   1_545 S
C370   C603    1.349   1_545 S
C371   C486    1.349   .     S
C371   C482    1.525   .     S
C372   O403    1.297   .     A
C372   O405    1.293   .     A
C373   O404    1.298   .     A
C373   O406    1.293   .     A
C374   H377    1.085   .     S
Cu375  N398    2.021   .     S
Cu375  O402    1.937   .     S
Cu375  O406    1.954   .     S
Cu375  O399    1.942   .     S
Cu375  O403    1.965   .     S
Cu375  Cu376   2.690   .     S
Cu376  O401    1.937   .     S
Cu376  N397    2.021   .     S
Cu376  O404    1.965   .     S
Cu376  O405    1.954   .     S
Cu376  O400    1.942   .     S
H381   C481    1.111   .     S
H385   C483    1.111   .     S
H387   C482    1.104   .     S
H392   N745    1.027   .     S
N398   N745    1.294   .     S
N398   H741    1.029   .     S
C407   O457    1.299   .     A
C407   C428    1.462   .     S
C407   O459    1.293   .     A
C408   C410    1.400   .     A
C408   H446    1.084   .     S
C408   C419    1.393   .     A
C409   C431    1.453   .     S
C409   C432    1.400   .     A
C409   C411    1.402   .     A
C410   C430    1.451   .     S
C410   C412    1.402   .     A
C411   H452    1.085   .     S
C411   C413    1.391   .     A
C412   H453    1.085   .     S
C412   C414    1.391   .     A
C413   C420    1.402   .     A
C413   C415    1.410   .     A
C414   C416    1.411   .     A
C414   C421    1.401   .     A
C415   C417    1.413   .     A
C415   C358    1.401   1_655 S
C416   C419    1.413   .     A
C417   C432    1.394   .     A
C417   C427    1.401   .     A
C418   C429    1.461   .     S
C418   O458    1.297   .     A
C418   O460    1.296   .     A
C419   C426    1.401   .     A
C420   H448    1.084   .     S
C420   C368    1.394   1_655 S
C421   H449    1.084   .     S
C422   H441    1.106   .     S
C422   H440    1.106   .     S
C422   C539    1.531   .     S
C422   C544    1.527   .     S
C423   H437    1.111   .     S
C423   H438    1.107   .     S
C423   C654    1.531   1_545 S
C423   H671    1.111   1_545 S
C424   C425    1.533   .     S
C424   H447    1.106   .     S
C424   C661    1.525   1_545 S
C424   H677    1.104   1_545 S
C425   H444    1.107   .     S
C425   H442    1.108   .     S
C425   H675    1.111   1_545 S
C426   H454    1.084   .     S
C427   H436    1.084   .     S
C427   C363    1.394   1_655 S
C428   C654    1.527   1_545 S
C428   C661    1.349   1_545 S
C429   C544    1.349   .     S
C429   C540    1.525   .     S
C430   O461    1.297   .     A
C430   O463    1.293   .     A
C431   O462    1.298   .     A
C431   O464    1.293   .     A
C432   H435    1.085   .     S
Cu433  N456    2.021   .     S
Cu433  O460    1.937   .     S
Cu433  O464    1.954   .     S
Cu433  O457    1.942   .     S
Cu433  O461    1.965   .     S
Cu433  Cu434   2.690   .     S
Cu434  O459    1.937   .     S
Cu434  N455    2.021   .     S
Cu434  O462    1.965   .     S
Cu434  O463    1.954   .     S
Cu434  O458    1.942   .     S
H439   C539    1.111   .     S
H443   C541    1.111   .     S
H445   C540    1.104   .     S
H450   N803    1.027   .     S
N456   N803    1.294   .     S
N456   H799    1.029   .     S
C465   O515    1.299   .     A
C465   C486    1.462   .     S
C465   O517    1.293   .     A
C466   C468    1.400   .     A
C466   H504    1.084   .     S
C466   C477    1.393   .     A
C467   C489    1.453   .     S
C467   C490    1.400   .     A
C467   C469    1.402   .     A
C468   C488    1.451   .     S
C468   C470    1.402   .     A
C469   H510    1.085   .     S
C469   C471    1.391   .     A
C470   H511    1.085   .     S
C470   C472    1.391   .     A
C471   C478    1.402   .     A
C471   C473    1.410   .     A
C472   C474    1.411   .     A
C472   C479    1.401   .     A
C473   C475    1.413   .     A
C473   C532    1.401   .     S
C474   C477    1.413   .     A
C474   C531    1.401   1_455 S
C475   C490    1.394   .     A
C475   C485    1.401   .     A
C476   C487    1.461   .     S
C476   O516    1.297   .     A
C476   O518    1.296   .     A
C477   C484    1.401   .     A
C478   H506    1.084   .     S
C478   C542    1.394   .     S
C479   H507    1.084   .     S
C479   C543    1.394   1_455 S
C480   H499    1.106   .     S
C480   H498    1.106   .     S
C480   C597    1.531   .     S
C480   C602    1.527   .     S
C481   H495    1.111   .     S
C481   H496    1.107   .     S
C482   C483    1.533   .     S
C482   H505    1.106   .     S
C483   H502    1.107   .     S
C483   H500    1.108   .     S
C484   H512    1.084   .     S
C484   C536    1.394   1_455 S
C485   H494    1.084   .     S
C485   C537    1.394   .     S
C487   C602    1.349   .     S
C487   C598    1.525   .     S
C488   O519    1.297   .     A
C488   O521    1.293   .     A
C489   O520    1.298   .     A
C489   O522    1.293   .     A
C490   H493    1.085   .     S
Cu491  N514    2.021   .     S
Cu491  O518    1.937   .     S
Cu491  O522    1.954   .     S
Cu491  O515    1.942   .     S
Cu491  O519    1.965   .     S
Cu491  Cu492   2.690   .     S
Cu492  O517    1.937   .     S
Cu492  N513    2.021   .     S
Cu492  O520    1.965   .     S
Cu492  O521    1.954   .     S
Cu492  O516    1.942   .     S
H497   C597    1.111   .     S
H501   C599    1.111   .     S
H503   C598    1.104   .     S
H508   N861    1.027   .     S
N514   N861    1.294   .     S
N514   H857    1.029   .     S
C523   O573    1.299   .     A
C523   C544    1.462   .     S
C523   O575    1.293   .     A
C524   C526    1.400   .     A
C524   H562    1.084   .     S
C524   C535    1.393   .     A
C525   C547    1.453   .     S
C525   C548    1.400   .     A
C525   C527    1.402   .     A
C526   C546    1.451   .     S
C526   C528    1.402   .     A
C527   H568    1.085   .     S
C527   C529    1.391   .     A
C528   H569    1.085   .     S
C528   C530    1.391   .     A
C529   C536    1.402   .     A
C529   C531    1.410   .     A
C530   C532    1.411   .     A
C530   C537    1.401   .     A
C531   C533    1.413   .     A
C531   C474    1.401   1_655 S
C532   C535    1.413   .     A
C533   C548    1.394   .     A
C533   C543    1.401   .     A
C534   C545    1.461   .     S
C534   O574    1.297   .     A
C534   O576    1.296   .     A
C535   C542    1.401   .     A
C536   H564    1.084   .     S
C536   C484    1.394   1_655 S
C537   H565    1.084   .     S
C538   H557    1.106   .     S
C538   H556    1.106   .     S
C538   C655    1.531   .     S
C538   C660    1.527   .     S
C539   H553    1.111   .     S
C539   H554    1.107   .     S
C540   C541    1.533   .     S
C540   H563    1.106   .     S
C541   H560    1.107   .     S
C541   H558    1.108   .     S
C542   H570    1.084   .     S
C543   H552    1.084   .     S
C543   C479    1.394   1_655 S
C545   C660    1.349   .     S
C545   C656    1.525   .     S
C546   O577    1.297   .     A
C546   O579    1.293   .     A
C547   O578    1.298   .     A
C547   O580    1.293   .     A
C548   H551    1.085   .     S
Cu549  N572    2.021   .     S
Cu549  O576    1.937   .     S
Cu549  O580    1.954   .     S
Cu549  O573    1.942   .     S
Cu549  O577    1.965   .     S
Cu549  Cu550   2.690   .     S
Cu550  O575    1.937   .     S
Cu550  N571    2.021   .     S
Cu550  O578    1.965   .     S
Cu550  O579    1.954   .     S
Cu550  O574    1.942   .     S
H555   C655    1.111   .     S
H559   C657    1.111   .     S
H561   C656    1.104   .     S
H566   N919    1.027   .     S
N572   N919    1.294   .     S
N572   H915    1.029   .     S
C581   O631    1.299   .     A
C581   C602    1.462   .     S
C581   O633    1.293   .     A
C582   C584    1.400   .     A
C582   H620    1.084   .     S
C582   C593    1.393   .     A
C583   C605    1.453   .     S
C583   C606    1.400   .     A
C583   C585    1.402   .     A
C584   C604    1.451   .     S
C584   C586    1.402   .     A
C585   H626    1.085   .     S
C585   C587    1.391   .     A
C586   H627    1.085   .     S
C586   C588    1.391   .     A
C587   C594    1.402   .     A
C587   C589    1.410   .     A
C588   C590    1.411   .     A
C588   C595    1.401   .     A
C589   C591    1.413   .     A
C589   C648    1.401   .     S
C590   C593    1.413   .     A
C590   C647    1.401   1_455 S
C591   C606    1.394   .     A
C591   C601    1.401   .     A
C592   C603    1.461   .     S
C592   O632    1.297   .     A
C592   O634    1.296   .     A
C593   C600    1.401   .     A
C594   H622    1.084   .     S
C594   C658    1.394   .     S
C595   H623    1.084   .     S
C595   C659    1.394   1_455 S
C596   H615    1.106   .     S
C596   H614    1.106   .     S
C596   C365    1.531   1_565 S
C596   C370    1.527   1_565 S
C597   H611    1.111   .     S
C597   H612    1.107   .     S
C598   C599    1.533   .     S
C598   H621    1.106   .     S
C599   H618    1.107   .     S
C599   H616    1.108   .     S
C600   H628    1.084   .     S
C600   C652    1.394   1_455 S
C601   H610    1.084   .     S
C601   C653    1.394   .     S
C603   C370    1.349   1_565 S
C603   C366    1.525   1_565 S
C604   O635    1.297   .     A
C604   O637    1.293   .     A
C605   O636    1.298   .     A
C605   O638    1.293   .     A
C606   H609    1.085   .     S
Cu607  N630    2.021   .     S
Cu607  O634    1.937   .     S
Cu607  O638    1.954   .     S
Cu607  O631    1.942   .     S
Cu607  O635    1.965   .     S
Cu607  Cu608   2.690   .     S
Cu608  O633    1.937   .     S
Cu608  N629    2.021   .     S
Cu608  O636    1.965   .     S
Cu608  O637    1.954   .     S
Cu608  O632    1.942   .     S
H613   C365    1.111   1_565 S
H617   C367    1.111   1_565 S
H619   C366    1.104   1_565 S
H624   N977    1.027   .     S
N630   N977    1.294   .     S
N630   H973    1.029   .     S
C639   O689    1.299   .     A
C639   C660    1.462   .     S
C639   O691    1.293   .     A
C640   C642    1.400   .     A
C640   H678    1.084   .     S
C640   C651    1.393   .     A
C641   C663    1.453   .     S
C641   C664    1.400   .     A
C641   C643    1.402   .     A
C642   C662    1.451   .     S
C642   C644    1.402   .     A
C643   H684    1.085   .     S
C643   C645    1.391   .     A
C644   H685    1.085   .     S
C644   C646    1.391   .     A
C645   C652    1.402   .     A
C645   C647    1.410   .     A
C646   C648    1.411   .     A
C646   C653    1.401   .     A
C647   C649    1.413   .     A
C647   C590    1.401   1_655 S
C648   C651    1.413   .     A
C649   C664    1.394   .     A
C649   C659    1.401   .     A
C650   C661    1.461   .     S
C650   O690    1.297   .     A
C650   O692    1.296   .     A
C651   C658    1.401   .     A
C652   H680    1.084   .     S
C652   C600    1.394   1_655 S
C653   H681    1.084   .     S
C654   H673    1.106   .     S
C654   H672    1.106   .     S
C654   C423    1.531   1_565 S
C654   C428    1.527   1_565 S
C655   H669    1.111   .     S
C655   H670    1.107   .     S
C656   C657    1.533   .     S
C656   H679    1.106   .     S
C657   H676    1.107   .     S
C657   H674    1.108   .     S
C658   H686    1.084   .     S
C659   H668    1.084   .     S
C659   C595    1.394   1_655 S
C661   C428    1.349   1_565 S
C661   C424    1.525   1_565 S
C662   O693    1.297   .     A
C662   O695    1.293   .     A
C663   O694    1.298   .     A
C663   O696    1.293   .     A
C664   H667    1.085   .     S
Cu665  N688    2.021   .     S
Cu665  O692    1.937   .     S
Cu665  O696    1.954   .     S
Cu665  O689    1.942   .     S
Cu665  O693    1.965   .     S
Cu665  Cu666   2.690   .     S
Cu666  O691    1.937   .     S
Cu666  N687    2.021   .     S
Cu666  O694    1.965   .     S
Cu666  O695    1.954   .     S
Cu666  O690    1.942   .     S
H671   C423    1.111   1_565 S
H675   C425    1.111   1_565 S
H677   C424    1.104   1_565 S
H682   N1035   1.027   .     S
N688   N1035   1.294   .     S
N688   H1031   1.029   .     S
C697   O747    1.299   .     A
C697   C718    1.462   .     S
C697   O749    1.293   .     A
C698   C700    1.400   .     A
C698   H736    1.084   .     S
C698   C709    1.393   .     A
C699   C721    1.453   .     S
C699   C722    1.400   .     A
C699   C701    1.402   .     A
C700   C720    1.451   .     S
C700   C702    1.402   .     A
C701   H742    1.085   .     S
C701   C703    1.391   .     A
C702   H743    1.085   .     S
C702   C704    1.391   .     A
C703   C710    1.402   .     A
C703   C705    1.410   .     A
C704   C706    1.411   .     A
C704   C711    1.401   .     A
C705   C707    1.413   .     A
C705   C764    1.401   .     S
C706   C709    1.413   .     A
C706   C763    1.401   1_455 S
C707   C722    1.394   .     A
C707   C717    1.401   .     A
C708   C719    1.461   .     S
C708   O748    1.297   .     A
C708   O750    1.296   .     A
C709   C716    1.401   .     A
C710   H738    1.084   .     S
C710   C774    1.394   .     S
C711   H739    1.084   .     S
C711   C775    1.394   1_455 S
C712   H731    1.106   .     S
C712   H730    1.106   .     S
C712   C829    1.531   .     S
C712   C834    1.527   .     S
C713   H727    1.111   .     S
C713   H728    1.107   .     S
C713   C944    1.531   1_545 S
C713   H961    1.111   1_545 S
C714   C715    1.533   .     S
C714   H737    1.106   .     S
C714   C951    1.525   1_545 S
C714   H967    1.104   1_545 S
C715   H734    1.107   .     S
C715   H732    1.108   .     S
C715   H965    1.111   1_545 S
C716   H744    1.084   .     S
C716   C768    1.394   1_455 S
C717   H726    1.084   .     S
C717   C769    1.394   .     S
C718   C944    1.527   1_545 S
C718   C951    1.349   1_545 S
C719   C834    1.349   .     S
C719   C830    1.525   .     S
C720   O751    1.297   .     A
C720   O753    1.293   .     A
C721   O752    1.298   .     A
C721   O754    1.293   .     A
C722   H725    1.085   .     S
Cu723  N746    2.021   .     S
Cu723  O750    1.937   .     S
Cu723  O754    1.954   .     S
Cu723  O747    1.942   .     S
Cu723  O751    1.965   .     S
Cu723  Cu724   2.690   .     S
Cu724  O749    1.937   .     S
Cu724  N745    2.021   .     S
Cu724  O752    1.965   .     S
Cu724  O753    1.954   .     S
Cu724  O748    1.942   .     S
H729   C829    1.111   .     S
H733   C831    1.111   .     S
H735   C830    1.104   .     S
H740   N49     1.027   1_556 S
N746   N49     1.294   1_556 S
N746   H45     1.029   1_556 S
C755   O805    1.299   .     A
C755   C776    1.462   .     S
C755   O807    1.293   .     A
C756   C758    1.400   .     A
C756   H794    1.084   .     S
C756   C767    1.393   .     A
C757   C779    1.453   .     S
C757   C780    1.400   .     A
C757   C759    1.402   .     A
C758   C778    1.451   .     S
C758   C760    1.402   .     A
C759   H800    1.085   .     S
C759   C761    1.391   .     A
C760   H801    1.085   .     S
C760   C762    1.391   .     A
C761   C768    1.402   .     A
C761   C763    1.410   .     A
C762   C764    1.411   .     A
C762   C769    1.401   .     A
C763   C765    1.413   .     A
C763   C706    1.401   1_655 S
C764   C767    1.413   .     A
C765   C780    1.394   .     A
C765   C775    1.401   .     A
C766   C777    1.461   .     S
C766   O806    1.297   .     A
C766   O808    1.296   .     A
C767   C774    1.401   .     A
C768   H796    1.084   .     S
C768   C716    1.394   1_655 S
C769   H797    1.084   .     S
C770   H789    1.106   .     S
C770   H788    1.106   .     S
C770   C887    1.531   .     S
C770   C892    1.527   .     S
C771   H785    1.111   .     S
C771   H786    1.107   .     S
C771   C1002   1.531   1_545 S
C771   H1019   1.111   1_545 S
C772   C773    1.533   .     S
C772   H795    1.106   .     S
C772   C1009   1.525   1_545 S
C772   H1025   1.104   1_545 S
C773   H792    1.107   .     S
C773   H790    1.108   .     S
C773   H1023   1.111   1_545 S
C774   H802    1.084   .     S
C775   H784    1.084   .     S
C775   C711    1.394   1_655 S
C776   C1002   1.527   1_545 S
C776   C1009   1.349   1_545 S
C777   C892    1.349   .     S
C777   C888    1.525   .     S
C778   O809    1.297   .     A
C778   O811    1.293   .     A
C779   O810    1.298   .     A
C779   O812    1.293   .     A
C780   H783    1.085   .     S
Cu781  N804    2.021   .     S
Cu781  O808    1.937   .     S
Cu781  O812    1.954   .     S
Cu781  O805    1.942   .     S
Cu781  O809    1.965   .     S
Cu781  Cu782   2.690   .     S
Cu782  O807    1.937   .     S
Cu782  N803    2.021   .     S
Cu782  O810    1.965   .     S
Cu782  O811    1.954   .     S
Cu782  O806    1.942   .     S
H787   C887    1.111   .     S
H791   C889    1.111   .     S
H793   C888    1.104   .     S
H798   N107    1.027   1_556 S
N804   N107    1.294   1_556 S
N804   H103    1.029   1_556 S
C813   O863    1.299   .     A
C813   C834    1.462   .     S
C813   O865    1.293   .     A
C814   C816    1.400   .     A
C814   H852    1.084   .     S
C814   C825    1.393   .     A
C815   C837    1.453   .     S
C815   C838    1.400   .     A
C815   C817    1.402   .     A
C816   C836    1.451   .     S
C816   C818    1.402   .     A
C817   H858    1.085   .     S
C817   C819    1.391   .     A
C818   H859    1.085   .     S
C818   C820    1.391   .     A
C819   C826    1.402   .     A
C819   C821    1.410   .     A
C820   C822    1.411   .     A
C820   C827    1.401   .     A
C821   C823    1.413   .     A
C821   C880    1.401   .     S
C822   C825    1.413   .     A
C822   C879    1.401   1_455 S
C823   C838    1.394   .     A
C823   C833    1.401   .     A
C824   C835    1.461   .     S
C824   O864    1.297   .     A
C824   O866    1.296   .     A
C825   C832    1.401   .     A
C826   H854    1.084   .     S
C826   C890    1.394   .     S
C827   H855    1.084   .     S
C827   C891    1.394   1_455 S
C828   H847    1.106   .     S
C828   H846    1.106   .     S
C828   C945    1.531   .     S
C828   C950    1.527   .     S
C829   H843    1.111   .     S
C829   H844    1.107   .     S
C830   C831    1.533   .     S
C830   H853    1.106   .     S
C831   H850    1.107   .     S
C831   H848    1.108   .     S
C832   H860    1.084   .     S
C832   C884    1.394   1_455 S
C833   H842    1.084   .     S
C833   C885    1.394   .     S
C835   C950    1.349   .     S
C835   C946    1.525   .     S
C836   O867    1.297   .     A
C836   O869    1.293   .     A
C837   O868    1.298   .     A
C837   O870    1.293   .     A
C838   H841    1.085   .     S
Cu839  N862    2.021   .     S
Cu839  O866    1.937   .     S
Cu839  O870    1.954   .     S
Cu839  O863    1.942   .     S
Cu839  O867    1.965   .     S
Cu839  Cu840   2.690   .     S
Cu840  O865    1.937   .     S
Cu840  N861    2.021   .     S
Cu840  O868    1.965   .     S
Cu840  O869    1.954   .     S
Cu840  O864    1.942   .     S
H845   C945    1.111   .     S
H849   C947    1.111   .     S
H851   C946    1.104   .     S
H856   N165    1.027   1_556 S
N862   N165    1.294   1_556 S
N862   H161    1.029   1_556 S
C871   O921    1.299   .     A
C871   C892    1.462   .     S
C871   O923    1.293   .     A
C872   C874    1.400   .     A
C872   H910    1.084   .     S
C872   C883    1.393   .     A
C873   C895    1.453   .     S
C873   C896    1.400   .     A
C873   C875    1.402   .     A
C874   C894    1.451   .     S
C874   C876    1.402   .     A
C875   H916    1.085   .     S
C875   C877    1.391   .     A
C876   H917    1.085   .     S
C876   C878    1.391   .     A
C877   C884    1.402   .     A
C877   C879    1.410   .     A
C878   C880    1.411   .     A
C878   C885    1.401   .     A
C879   C881    1.413   .     A
C879   C822    1.401   1_655 S
C880   C883    1.413   .     A
C881   C896    1.394   .     A
C881   C891    1.401   .     A
C882   C893    1.461   .     S
C882   O922    1.297   .     A
C882   O924    1.296   .     A
C883   C890    1.401   .     A
C884   H912    1.084   .     S
C884   C832    1.394   1_655 S
C885   H913    1.084   .     S
C886   H905    1.106   .     S
C886   H904    1.106   .     S
C886   C1003   1.531   .     S
C886   C1008   1.527   .     S
C887   H901    1.111   .     S
C887   H902    1.107   .     S
C888   C889    1.533   .     S
C888   H911    1.106   .     S
C889   H908    1.107   .     S
C889   H906    1.108   .     S
C890   H918    1.084   .     S
C891   H900    1.084   .     S
C891   C827    1.394   1_655 S
C893   C1008   1.349   .     S
C893   C1004   1.525   .     S
C894   O925    1.297   .     A
C894   O927    1.293   .     A
C895   O926    1.298   .     A
C895   O928    1.293   .     A
C896   H899    1.085   .     S
Cu897  N920    2.021   .     S
Cu897  O924    1.937   .     S
Cu897  O928    1.954   .     S
Cu897  O921    1.942   .     S
Cu897  O925    1.965   .     S
Cu897  Cu898   2.690   .     S
Cu898  O923    1.937   .     S
Cu898  N919    2.021   .     S
Cu898  O926    1.965   .     S
Cu898  O927    1.954   .     S
Cu898  O922    1.942   .     S
H903   C1003   1.111   .     S
H907   C1005   1.111   .     S
H909   C1004   1.104   .     S
H914   N223    1.027   1_556 S
N920   N223    1.294   1_556 S
N920   H219    1.029   1_556 S
C929   O979    1.299   .     A
C929   C950    1.462   .     S
C929   O981    1.293   .     A
C930   C932    1.400   .     A
C930   H968    1.084   .     S
C930   C941    1.393   .     A
C931   C953    1.453   .     S
C931   C954    1.400   .     A
C931   C933    1.402   .     A
C932   C952    1.451   .     S
C932   C934    1.402   .     A
C933   H974    1.085   .     S
C933   C935    1.391   .     A
C934   H975    1.085   .     S
C934   C936    1.391   .     A
C935   C942    1.402   .     A
C935   C937    1.410   .     A
C936   C938    1.411   .     A
C936   C943    1.401   .     A
C937   C939    1.413   .     A
C937   C996    1.401   .     S
C938   C941    1.413   .     A
C938   C995    1.401   1_455 S
C939   C954    1.394   .     A
C939   C949    1.401   .     A
C940   C951    1.461   .     S
C940   O980    1.297   .     A
C940   O982    1.296   .     A
C941   C948    1.401   .     A
C942   H970    1.084   .     S
C942   C1006   1.394   .     S
C943   H971    1.084   .     S
C943   C1007   1.394   1_455 S
C944   H963    1.106   .     S
C944   H962    1.106   .     S
C944   C713    1.531   1_565 S
C944   C718    1.527   1_565 S
C945   H959    1.111   .     S
C945   H960    1.107   .     S
C946   C947    1.533   .     S
C946   H969    1.106   .     S
C947   H966    1.107   .     S
C947   H964    1.108   .     S
C948   H976    1.084   .     S
C948   C1000   1.394   1_455 S
C949   H958    1.084   .     S
C949   C1001   1.394   .     S
C951   C718    1.349   1_565 S
C951   C714    1.525   1_565 S
C952   O983    1.297   .     A
C952   O985    1.293   .     A
C953   O984    1.298   .     A
C953   O986    1.293   .     A
C954   H957    1.085   .     S
Cu955  N978    2.021   .     S
Cu955  O982    1.937   .     S
Cu955  O986    1.954   .     S
Cu955  O979    1.942   .     S
Cu955  O983    1.965   .     S
Cu955  Cu956   2.690   .     S
Cu956  O981    1.937   .     S
Cu956  N977    2.021   .     S
Cu956  O984    1.965   .     S
Cu956  O985    1.954   .     S
Cu956  O980    1.942   .     S
H961   C713    1.111   1_565 S
H965   C715    1.111   1_565 S
H967   C714    1.104   1_565 S
H972   N281    1.027   1_556 S
N978   N281    1.294   1_556 S
N978   H277    1.029   1_556 S
C987   O1037   1.299   .     A
C987   C1008   1.462   .     S
C987   O1039   1.293   .     A
C988   C990    1.400   .     A
C988   H1026   1.084   .     S
C988   C999    1.393   .     A
C989   C1011   1.453   .     S
C989   C1012   1.400   .     A
C989   C991    1.402   .     A
C990   C1010   1.451   .     S
C990   C992    1.402   .     A
C991   H1032   1.085   .     S
C991   C993    1.391   .     A
C992   H1033   1.085   .     S
C992   C994    1.391   .     A
C993   C1000   1.402   .     A
C993   C995    1.410   .     A
C994   C996    1.411   .     A
C994   C1001   1.401   .     A
C995   C997    1.413   .     A
C995   C938    1.401   1_655 S
C996   C999    1.413   .     A
C997   C1012   1.394   .     A
C997   C1007   1.401   .     A
C998   C1009   1.461   .     S
C998   O1038   1.297   .     A
C998   O1040   1.296   .     A
C999   C1006   1.401   .     A
C1000  H1028   1.084   .     S
C1000  C948    1.394   1_655 S
C1001  H1029   1.084   .     S
C1002  H1021   1.106   .     S
C1002  H1020   1.106   .     S
C1002  C771    1.531   1_565 S
C1002  C776    1.527   1_565 S
C1003  H1017   1.111   .     S
C1003  H1018   1.107   .     S
C1004  C1005   1.533   .     S
C1004  H1027   1.106   .     S
C1005  H1024   1.107   .     S
C1005  H1022   1.108   .     S
C1006  H1034   1.084   .     S
C1007  H1016   1.084   .     S
C1007  C943    1.394   1_655 S
C1009  C776    1.349   1_565 S
C1009  C772    1.525   1_565 S
C1010  O1041   1.297   .     A
C1010  O1043   1.293   .     A
C1011  O1042   1.298   .     A
C1011  O1044   1.293   .     A
C1012  H1015   1.085   .     S
Cu1013 N1036   2.021   .     S
Cu1013 O1040   1.937   .     S
Cu1013 O1044   1.954   .     S
Cu1013 O1037   1.942   .     S
Cu1013 O1041   1.965   .     S
Cu1013 Cu1014  2.690   .     S
Cu1014 O1039   1.937   .     S
Cu1014 N1035   2.021   .     S
Cu1014 O1042   1.965   .     S
Cu1014 O1043   1.954   .     S
Cu1014 O1038   1.942   .     S
H1019  C771    1.111   1_565 S
H1023  C773    1.111   1_565 S
H1025  C772    1.104   1_565 S
H1030  N339    1.027   1_556 S
N1036  N339    1.294   1_556 S
N1036  H335    1.029   1_556 S
