data_str_m2_o2_o5_pcu_sym.16
_audit_creation_date              2020-01-03
_audit_creation_method            'Materials Studio'
_symmetry_space_group_name_H-M    'P1'
_symmetry_Int_Tables_number       1
_symmetry_cell_setting            triclinic
loop_
_symmetry_equiv_pos_as_xyz
  x,y,z
_cell_length_a                    30.1803
_cell_length_b                    27.7053
_cell_length_c                    27.2326
_cell_angle_alpha                 89.9994
_cell_angle_beta                  89.9969
_cell_angle_gamma                 89.9998
loop_
_atom_site_label
_atom_site_type_symbol
_atom_site_fract_x
_atom_site_fract_y
_atom_site_fract_z
_atom_site_U_iso_or_equiv
_atom_site_adp_type
_atom_site_occupancy
C1     C     0.16508   0.25000   0.16667   0.00000  Uiso   1.00
C2     C     0.27869   0.44604   0.19819   0.00000  Uiso   1.00
C3     C     0.25000   0.25000   0.07350   0.00000  Uiso   1.00
C4     C     0.25000   0.25000   0.25983   0.00000  Uiso   1.00
C5     C     0.25000   0.02733   0.16667   0.00000  Uiso   1.00
C6     C     0.25000   0.47267   0.16667   0.00000  Uiso   1.00
C7     C     0.25000   0.25000   0.02184   0.00000  Uiso   1.00
C8     C     0.25000   0.25000   0.31150   0.00000  Uiso   1.00
C9     C     0.04734   0.26944   0.12673   0.00000  Uiso   1.00
C10    C     0.45265   0.23090   0.12656   0.00000  Uiso   1.00
C11    C     0.45265   0.26910   0.20677   0.00000  Uiso   1.00
C12    C     0.33492   0.25000   0.16666   0.00000  Uiso   1.00
C13    C     0.04733   0.23056   0.20661   0.00000  Uiso   1.00
C14    C     0.09350   0.26986   0.12660   0.00000  Uiso   1.00
C15    C     0.40649   0.23048   0.12642   0.00000  Uiso   1.00
C16    C     0.40648   0.26952   0.20690   0.00000  Uiso   1.00
C17    C     0.09350   0.23014   0.20674   0.00000  Uiso   1.00
C18    C     0.11680   0.25000   0.16667   0.00000  Uiso   1.00
C19    C     0.38319   0.25000   0.16666   0.00000  Uiso   1.00
C20    C     0.02423   0.25000   0.16667   0.00000  Uiso   1.00
C21    C     0.47576   0.25000   0.16666   0.00000  Uiso   1.00
C22    C     0.11631   0.28977   0.08453   0.00000  Uiso   1.00
C23    C     0.22224   0.10480   0.19717   0.00000  Uiso   1.00
C24    C     0.38368   0.21091   0.08419   0.00000  Uiso   1.00
C25    C     0.38367   0.28908   0.24913   0.00000  Uiso   1.00
C26    C     0.11630   0.21024   0.24881   0.00000  Uiso   1.00
C27    C     0.22222   0.39520   0.13618   0.00000  Uiso   1.00
C28    C     0.27776   0.10480   0.13616   0.00000  Uiso   1.00
C29    C     0.27778   0.39520   0.19715   0.00000  Uiso   1.00
C30    C     0.22132   0.05396   0.19821   0.00000  Uiso   1.00
C31    C     0.22131   0.44604   0.13514   0.00000  Uiso   1.00
C32    C     0.27868   0.05396   0.13512   0.00000  Uiso   1.00
Cu33   Cu    0.25000   0.29822   0.16667   0.00000  Uiso   1.00
Cu34   Cu    0.25000   0.20179   0.16667   0.00000  Uiso   1.00
H35    H     0.20039   0.12488   0.22117   0.00000  Uiso   1.00
H36    H     0.19426   0.00305   0.10517   0.00000  Uiso   1.00
H37    H     0.30570   0.49695   0.10512   0.00000  Uiso   1.00
H38    H     0.30574   0.00305   0.22817   0.00000  Uiso   1.00
H39    H     0.20037   0.37512   0.11220   0.00000  Uiso   1.00
H40    H     0.29961   0.12489   0.11217   0.00000  Uiso   1.00
H41    H     0.29964   0.37511   0.22113   0.00000  Uiso   1.00
H42    H     0.02930   0.28463   0.09594   0.00000  Uiso   1.00
H43    H     0.47070   0.21596   0.09564   0.00000  Uiso   1.00
H44    H     0.47069   0.28404   0.23769   0.00000  Uiso   1.00
H45    H     0.02929   0.21537   0.23739   0.00000  Uiso   1.00
H46    H     0.19429   0.49695   0.22820   0.00000  Uiso   1.00
N47    N     0.25000   0.12935   0.16667   0.00000  Uiso   1.00
N48    N     0.25000   0.37066   0.16667   0.00000  Uiso   1.00
N49    N     0.13460   0.30566   0.05086   0.00000  Uiso   1.00
N50    N     0.36539   0.19530   0.05039   0.00000  Uiso   1.00
N51    N     0.36537   0.30470   0.28294   0.00000  Uiso   1.00
N52    N     0.13458   0.19435   0.28248   0.00000  Uiso   1.00
O53    O     0.18573   0.29072   0.16667   0.00000  Uiso   1.00
O54    O     0.19199   0.46754   0.10288   0.00000  Uiso   1.00
O55    O     0.30798   0.03247   0.10283   0.00000  Uiso   1.00
O56    O     0.30801   0.46753   0.23046   0.00000  Uiso   1.00
O57    O     0.31427   0.20929   0.16666   0.00000  Uiso   1.00
O58    O     0.31427   0.29072   0.16666   0.00000  Uiso   1.00
O59    O     0.18573   0.20929   0.16667   0.00000  Uiso   1.00
O60    O     0.25000   0.29071   0.09613   0.00000  Uiso   1.00
O61    O     0.25000   0.20929   0.23720   0.00000  Uiso   1.00
O62    O     0.25000   0.29071   0.23720   0.00000  Uiso   1.00
O63    O     0.25000   0.20929   0.09613   0.00000  Uiso   1.00
O64    O     0.19202   0.03247   0.23050   0.00000  Uiso   1.00
C65    C     0.66508   0.25000   0.16667   0.00000  Uiso   1.00
C66    C     0.77869   0.44604   0.19819   0.00000  Uiso   1.00
C67    C     0.75000   0.25000   0.07350   0.00000  Uiso   1.00
C68    C     0.75000   0.25000   0.25983   0.00000  Uiso   1.00
C69    C     0.75000   0.02733   0.16667   0.00000  Uiso   1.00
C70    C     0.75000   0.47267   0.16667   0.00000  Uiso   1.00
C71    C     0.75000   0.25000   0.02184   0.00000  Uiso   1.00
C72    C     0.75000   0.25000   0.31150   0.00000  Uiso   1.00
C73    C     0.54734   0.26944   0.12673   0.00000  Uiso   1.00
C74    C     0.95265   0.23090   0.12656   0.00000  Uiso   1.00
C75    C     0.95265   0.26910   0.20677   0.00000  Uiso   1.00
C76    C     0.83492   0.25000   0.16666   0.00000  Uiso   1.00
C77    C     0.54733   0.23056   0.20661   0.00000  Uiso   1.00
C78    C     0.59350   0.26986   0.12660   0.00000  Uiso   1.00
C79    C     0.90649   0.23048   0.12642   0.00000  Uiso   1.00
C80    C     0.90648   0.26952   0.20690   0.00000  Uiso   1.00
C81    C     0.59350   0.23014   0.20674   0.00000  Uiso   1.00
C82    C     0.61680   0.25000   0.16667   0.00000  Uiso   1.00
C83    C     0.88319   0.25000   0.16666   0.00000  Uiso   1.00
C84    C     0.52423   0.25000   0.16667   0.00000  Uiso   1.00
C85    C     0.97576   0.25000   0.16666   0.00000  Uiso   1.00
C86    C     0.61631   0.28977   0.08453   0.00000  Uiso   1.00
C87    C     0.72224   0.10480   0.19717   0.00000  Uiso   1.00
C88    C     0.88368   0.21091   0.08419   0.00000  Uiso   1.00
C89    C     0.88367   0.28908   0.24913   0.00000  Uiso   1.00
C90    C     0.61630   0.21024   0.24881   0.00000  Uiso   1.00
C91    C     0.72222   0.39520   0.13618   0.00000  Uiso   1.00
C92    C     0.77776   0.10480   0.13616   0.00000  Uiso   1.00
C93    C     0.77778   0.39520   0.19715   0.00000  Uiso   1.00
C94    C     0.72132   0.05396   0.19821   0.00000  Uiso   1.00
C95    C     0.72131   0.44604   0.13514   0.00000  Uiso   1.00
C96    C     0.77868   0.05396   0.13512   0.00000  Uiso   1.00
Cu97   Cu    0.75000   0.29822   0.16667   0.00000  Uiso   1.00
Cu98   Cu    0.75000   0.20179   0.16667   0.00000  Uiso   1.00
H99    H     0.70039   0.12488   0.22117   0.00000  Uiso   1.00
H100   H     0.69426   0.00305   0.10517   0.00000  Uiso   1.00
H101   H     0.80570   0.49695   0.10512   0.00000  Uiso   1.00
H102   H     0.80574   0.00305   0.22817   0.00000  Uiso   1.00
H103   H     0.70037   0.37512   0.11220   0.00000  Uiso   1.00
H104   H     0.79961   0.12489   0.11217   0.00000  Uiso   1.00
H105   H     0.79964   0.37511   0.22113   0.00000  Uiso   1.00
H106   H     0.52930   0.28463   0.09594   0.00000  Uiso   1.00
H107   H     0.97070   0.21596   0.09564   0.00000  Uiso   1.00
H108   H     0.97069   0.28404   0.23769   0.00000  Uiso   1.00
H109   H     0.52929   0.21537   0.23739   0.00000  Uiso   1.00
H110   H     0.69429   0.49695   0.22820   0.00000  Uiso   1.00
N111   N     0.75000   0.12935   0.16667   0.00000  Uiso   1.00
N112   N     0.75000   0.37066   0.16667   0.00000  Uiso   1.00
N113   N     0.63460   0.30566   0.05086   0.00000  Uiso   1.00
N114   N     0.86539   0.19530   0.05039   0.00000  Uiso   1.00
N115   N     0.86537   0.30470   0.28294   0.00000  Uiso   1.00
N116   N     0.63458   0.19435   0.28248   0.00000  Uiso   1.00
O117   O     0.68573   0.29072   0.16667   0.00000  Uiso   1.00
O118   O     0.69199   0.46754   0.10288   0.00000  Uiso   1.00
O119   O     0.80798   0.03247   0.10283   0.00000  Uiso   1.00
O120   O     0.80801   0.46753   0.23046   0.00000  Uiso   1.00
O121   O     0.81427   0.20929   0.16666   0.00000  Uiso   1.00
O122   O     0.81427   0.29072   0.16666   0.00000  Uiso   1.00
O123   O     0.68573   0.20929   0.16667   0.00000  Uiso   1.00
O124   O     0.75000   0.29071   0.09613   0.00000  Uiso   1.00
O125   O     0.75000   0.20929   0.23720   0.00000  Uiso   1.00
O126   O     0.75000   0.29071   0.23720   0.00000  Uiso   1.00
O127   O     0.75000   0.20929   0.09613   0.00000  Uiso   1.00
O128   O     0.69202   0.03247   0.23050   0.00000  Uiso   1.00
C129   C     0.16508   0.75000   0.16667   0.00000  Uiso   1.00
C130   C     0.27869   0.94604   0.19819   0.00000  Uiso   1.00
C131   C     0.25000   0.75000   0.07350   0.00000  Uiso   1.00
C132   C     0.25000   0.75000   0.25983   0.00000  Uiso   1.00
C133   C     0.25000   0.52733   0.16667   0.00000  Uiso   1.00
C134   C     0.25000   0.97267   0.16667   0.00000  Uiso   1.00
C135   C     0.25000   0.75000   0.02184   0.00000  Uiso   1.00
C136   C     0.25000   0.75000   0.31150   0.00000  Uiso   1.00
C137   C     0.04734   0.76944   0.12673   0.00000  Uiso   1.00
C138   C     0.45265   0.73090   0.12656   0.00000  Uiso   1.00
C139   C     0.45265   0.76910   0.20677   0.00000  Uiso   1.00
C140   C     0.33492   0.75000   0.16666   0.00000  Uiso   1.00
C141   C     0.04733   0.73056   0.20661   0.00000  Uiso   1.00
C142   C     0.09350   0.76986   0.12660   0.00000  Uiso   1.00
C143   C     0.40649   0.73048   0.12642   0.00000  Uiso   1.00
C144   C     0.40648   0.76952   0.20690   0.00000  Uiso   1.00
C145   C     0.09350   0.73014   0.20674   0.00000  Uiso   1.00
C146   C     0.11680   0.75000   0.16667   0.00000  Uiso   1.00
C147   C     0.38319   0.75000   0.16666   0.00000  Uiso   1.00
C148   C     0.02423   0.75000   0.16667   0.00000  Uiso   1.00
C149   C     0.47576   0.75000   0.16666   0.00000  Uiso   1.00
C150   C     0.11631   0.78977   0.08453   0.00000  Uiso   1.00
C151   C     0.22224   0.60480   0.19717   0.00000  Uiso   1.00
C152   C     0.38368   0.71091   0.08419   0.00000  Uiso   1.00
C153   C     0.38367   0.78908   0.24913   0.00000  Uiso   1.00
C154   C     0.11630   0.71024   0.24881   0.00000  Uiso   1.00
C155   C     0.22222   0.89520   0.13618   0.00000  Uiso   1.00
C156   C     0.27776   0.60480   0.13616   0.00000  Uiso   1.00
C157   C     0.27778   0.89520   0.19715   0.00000  Uiso   1.00
C158   C     0.22132   0.55396   0.19821   0.00000  Uiso   1.00
C159   C     0.22131   0.94604   0.13514   0.00000  Uiso   1.00
C160   C     0.27868   0.55396   0.13512   0.00000  Uiso   1.00
Cu161  Cu    0.25000   0.79822   0.16667   0.00000  Uiso   1.00
Cu162  Cu    0.25000   0.70179   0.16667   0.00000  Uiso   1.00
H163   H     0.20039   0.62488   0.22117   0.00000  Uiso   1.00
H164   H     0.19426   0.50305   0.10517   0.00000  Uiso   1.00
H165   H     0.30570   0.99695   0.10512   0.00000  Uiso   1.00
H166   H     0.30574   0.50305   0.22817   0.00000  Uiso   1.00
H167   H     0.20037   0.87512   0.11220   0.00000  Uiso   1.00
H168   H     0.29961   0.62489   0.11217   0.00000  Uiso   1.00
H169   H     0.29964   0.87511   0.22113   0.00000  Uiso   1.00
H170   H     0.02930   0.78463   0.09594   0.00000  Uiso   1.00
H171   H     0.47070   0.71596   0.09564   0.00000  Uiso   1.00
H172   H     0.47069   0.78404   0.23769   0.00000  Uiso   1.00
H173   H     0.02929   0.71537   0.23739   0.00000  Uiso   1.00
H174   H     0.19429   0.99695   0.22820   0.00000  Uiso   1.00
N175   N     0.25000   0.62935   0.16667   0.00000  Uiso   1.00
N176   N     0.25000   0.87066   0.16667   0.00000  Uiso   1.00
N177   N     0.13460   0.80566   0.05086   0.00000  Uiso   1.00
N178   N     0.36539   0.69530   0.05039   0.00000  Uiso   1.00
N179   N     0.36537   0.80470   0.28294   0.00000  Uiso   1.00
N180   N     0.13458   0.69435   0.28248   0.00000  Uiso   1.00
O181   O     0.18573   0.79072   0.16667   0.00000  Uiso   1.00
O182   O     0.19199   0.96754   0.10288   0.00000  Uiso   1.00
O183   O     0.30798   0.53247   0.10283   0.00000  Uiso   1.00
O184   O     0.30801   0.96753   0.23046   0.00000  Uiso   1.00
O185   O     0.31427   0.70929   0.16666   0.00000  Uiso   1.00
O186   O     0.31427   0.79072   0.16666   0.00000  Uiso   1.00
O187   O     0.18573   0.70929   0.16667   0.00000  Uiso   1.00
O188   O     0.25000   0.79071   0.09613   0.00000  Uiso   1.00
O189   O     0.25000   0.70929   0.23720   0.00000  Uiso   1.00
O190   O     0.25000   0.79071   0.23720   0.00000  Uiso   1.00
O191   O     0.25000   0.70929   0.09613   0.00000  Uiso   1.00
O192   O     0.19202   0.53247   0.23050   0.00000  Uiso   1.00
C193   C     0.66508   0.75000   0.16667   0.00000  Uiso   1.00
C194   C     0.77869   0.94604   0.19819   0.00000  Uiso   1.00
C195   C     0.75000   0.75000   0.07350   0.00000  Uiso   1.00
C196   C     0.75000   0.75000   0.25983   0.00000  Uiso   1.00
C197   C     0.75000   0.52733   0.16667   0.00000  Uiso   1.00
C198   C     0.75000   0.97267   0.16667   0.00000  Uiso   1.00
C199   C     0.75000   0.75000   0.02184   0.00000  Uiso   1.00
C200   C     0.75000   0.75000   0.31150   0.00000  Uiso   1.00
C201   C     0.54734   0.76944   0.12673   0.00000  Uiso   1.00
C202   C     0.95265   0.73090   0.12656   0.00000  Uiso   1.00
C203   C     0.95265   0.76910   0.20677   0.00000  Uiso   1.00
C204   C     0.83492   0.75000   0.16666   0.00000  Uiso   1.00
C205   C     0.54733   0.73056   0.20661   0.00000  Uiso   1.00
C206   C     0.59350   0.76986   0.12660   0.00000  Uiso   1.00
C207   C     0.90649   0.73048   0.12642   0.00000  Uiso   1.00
C208   C     0.90648   0.76952   0.20690   0.00000  Uiso   1.00
C209   C     0.59350   0.73014   0.20674   0.00000  Uiso   1.00
C210   C     0.61680   0.75000   0.16667   0.00000  Uiso   1.00
C211   C     0.88319   0.75000   0.16666   0.00000  Uiso   1.00
C212   C     0.52423   0.75000   0.16667   0.00000  Uiso   1.00
C213   C     0.97576   0.75000   0.16666   0.00000  Uiso   1.00
C214   C     0.61631   0.78977   0.08453   0.00000  Uiso   1.00
C215   C     0.72224   0.60480   0.19717   0.00000  Uiso   1.00
C216   C     0.88368   0.71091   0.08419   0.00000  Uiso   1.00
C217   C     0.88367   0.78908   0.24913   0.00000  Uiso   1.00
C218   C     0.61630   0.71024   0.24881   0.00000  Uiso   1.00
C219   C     0.72222   0.89520   0.13618   0.00000  Uiso   1.00
C220   C     0.77776   0.60480   0.13616   0.00000  Uiso   1.00
C221   C     0.77778   0.89520   0.19715   0.00000  Uiso   1.00
C222   C     0.72132   0.55396   0.19821   0.00000  Uiso   1.00
C223   C     0.72131   0.94604   0.13514   0.00000  Uiso   1.00
C224   C     0.77868   0.55396   0.13512   0.00000  Uiso   1.00
Cu225  Cu    0.75000   0.79822   0.16667   0.00000  Uiso   1.00
Cu226  Cu    0.75000   0.70179   0.16667   0.00000  Uiso   1.00
H227   H     0.70039   0.62488   0.22117   0.00000  Uiso   1.00
H228   H     0.69426   0.50305   0.10517   0.00000  Uiso   1.00
H229   H     0.80570   0.99695   0.10512   0.00000  Uiso   1.00
H230   H     0.80574   0.50305   0.22817   0.00000  Uiso   1.00
H231   H     0.70037   0.87512   0.11220   0.00000  Uiso   1.00
H232   H     0.79961   0.62489   0.11217   0.00000  Uiso   1.00
H233   H     0.79964   0.87511   0.22113   0.00000  Uiso   1.00
H234   H     0.52930   0.78463   0.09594   0.00000  Uiso   1.00
H235   H     0.97070   0.71596   0.09564   0.00000  Uiso   1.00
H236   H     0.97069   0.78404   0.23769   0.00000  Uiso   1.00
H237   H     0.52929   0.71537   0.23739   0.00000  Uiso   1.00
H238   H     0.69429   0.99695   0.22820   0.00000  Uiso   1.00
N239   N     0.75000   0.62935   0.16667   0.00000  Uiso   1.00
N240   N     0.75000   0.87066   0.16667   0.00000  Uiso   1.00
N241   N     0.63460   0.80566   0.05086   0.00000  Uiso   1.00
N242   N     0.86539   0.69530   0.05039   0.00000  Uiso   1.00
N243   N     0.86537   0.80470   0.28294   0.00000  Uiso   1.00
N244   N     0.63458   0.69435   0.28248   0.00000  Uiso   1.00
O245   O     0.68573   0.79072   0.16667   0.00000  Uiso   1.00
O246   O     0.69199   0.96754   0.10288   0.00000  Uiso   1.00
O247   O     0.80798   0.53247   0.10283   0.00000  Uiso   1.00
O248   O     0.80801   0.96753   0.23046   0.00000  Uiso   1.00
O249   O     0.81427   0.70929   0.16666   0.00000  Uiso   1.00
O250   O     0.81427   0.79072   0.16666   0.00000  Uiso   1.00
O251   O     0.68573   0.70929   0.16667   0.00000  Uiso   1.00
O252   O     0.75000   0.79071   0.09613   0.00000  Uiso   1.00
O253   O     0.75000   0.70929   0.23720   0.00000  Uiso   1.00
O254   O     0.75000   0.79071   0.23720   0.00000  Uiso   1.00
O255   O     0.75000   0.70929   0.09613   0.00000  Uiso   1.00
O256   O     0.69202   0.53247   0.23050   0.00000  Uiso   1.00
C257   C     0.16508   0.25000   0.50000   0.00000  Uiso   1.00
C258   C     0.27869   0.44604   0.53153   0.00000  Uiso   1.00
C259   C     0.25000   0.25000   0.40683   0.00000  Uiso   1.00
C260   C     0.25000   0.25000   0.59317   0.00000  Uiso   1.00
C261   C     0.25000   0.02733   0.50000   0.00000  Uiso   1.00
C262   C     0.25000   0.47267   0.50000   0.00000  Uiso   1.00
C263   C     0.25000   0.25000   0.35517   0.00000  Uiso   1.00
C264   C     0.25000   0.25000   0.64483   0.00000  Uiso   1.00
C265   C     0.04734   0.26944   0.46006   0.00000  Uiso   1.00
C266   C     0.45265   0.23090   0.45989   0.00000  Uiso   1.00
C267   C     0.45265   0.26910   0.54011   0.00000  Uiso   1.00
C268   C     0.33492   0.25000   0.50000   0.00000  Uiso   1.00
C269   C     0.04733   0.23056   0.53994   0.00000  Uiso   1.00
C270   C     0.09350   0.26986   0.45993   0.00000  Uiso   1.00
C271   C     0.40649   0.23048   0.45976   0.00000  Uiso   1.00
C272   C     0.40648   0.26952   0.54024   0.00000  Uiso   1.00
C273   C     0.09350   0.23014   0.54007   0.00000  Uiso   1.00
C274   C     0.11680   0.25000   0.50000   0.00000  Uiso   1.00
C275   C     0.38319   0.25000   0.50000   0.00000  Uiso   1.00
C276   C     0.02423   0.25000   0.50000   0.00000  Uiso   1.00
C277   C     0.47576   0.25000   0.50000   0.00000  Uiso   1.00
C278   C     0.11631   0.28977   0.41786   0.00000  Uiso   1.00
C279   C     0.22224   0.10480   0.53051   0.00000  Uiso   1.00
C280   C     0.38368   0.21091   0.41753   0.00000  Uiso   1.00
C281   C     0.38367   0.28908   0.58247   0.00000  Uiso   1.00
C282   C     0.11630   0.21024   0.58214   0.00000  Uiso   1.00
C283   C     0.22222   0.39520   0.46952   0.00000  Uiso   1.00
C284   C     0.27776   0.10480   0.46949   0.00000  Uiso   1.00
C285   C     0.27778   0.39520   0.53048   0.00000  Uiso   1.00
C286   C     0.22132   0.05396   0.53155   0.00000  Uiso   1.00
C287   C     0.22131   0.44604   0.46847   0.00000  Uiso   1.00
C288   C     0.27868   0.05396   0.46845   0.00000  Uiso   1.00
Cu289  Cu    0.25000   0.29822   0.50000   0.00000  Uiso   1.00
Cu290  Cu    0.25000   0.20179   0.50000   0.00000  Uiso   1.00
H291   H     0.20039   0.12488   0.55450   0.00000  Uiso   1.00
H292   H     0.19426   0.00305   0.43850   0.00000  Uiso   1.00
H293   H     0.30570   0.49695   0.43846   0.00000  Uiso   1.00
H294   H     0.30574   0.00305   0.56150   0.00000  Uiso   1.00
H295   H     0.20037   0.37512   0.44554   0.00000  Uiso   1.00
H296   H     0.29961   0.12489   0.44550   0.00000  Uiso   1.00
H297   H     0.29964   0.37511   0.55446   0.00000  Uiso   1.00
H298   H     0.02930   0.28463   0.42927   0.00000  Uiso   1.00
H299   H     0.47070   0.21596   0.42897   0.00000  Uiso   1.00
H300   H     0.47069   0.28404   0.57102   0.00000  Uiso   1.00
H301   H     0.02929   0.21537   0.57073   0.00000  Uiso   1.00
H302   H     0.19429   0.49695   0.56154   0.00000  Uiso   1.00
N303   N     0.25000   0.12935   0.50000   0.00000  Uiso   1.00
N304   N     0.25000   0.37066   0.50000   0.00000  Uiso   1.00
N305   N     0.13460   0.30566   0.38419   0.00000  Uiso   1.00
N306   N     0.36539   0.19530   0.38372   0.00000  Uiso   1.00
N307   N     0.36537   0.30470   0.61627   0.00000  Uiso   1.00
N308   N     0.13458   0.19435   0.61582   0.00000  Uiso   1.00
O309   O     0.18573   0.29072   0.50000   0.00000  Uiso   1.00
O310   O     0.19199   0.46754   0.43621   0.00000  Uiso   1.00
O311   O     0.30798   0.03247   0.43617   0.00000  Uiso   1.00
O312   O     0.30801   0.46753   0.56379   0.00000  Uiso   1.00
O313   O     0.31427   0.20929   0.50000   0.00000  Uiso   1.00
O314   O     0.31427   0.29072   0.50000   0.00000  Uiso   1.00
O315   O     0.18573   0.20929   0.50000   0.00000  Uiso   1.00
O316   O     0.25000   0.29071   0.42946   0.00000  Uiso   1.00
O317   O     0.25000   0.20929   0.57054   0.00000  Uiso   1.00
O318   O     0.25000   0.29071   0.57054   0.00000  Uiso   1.00
O319   O     0.25000   0.20929   0.42946   0.00000  Uiso   1.00
O320   O     0.19202   0.03247   0.56383   0.00000  Uiso   1.00
C321   C     0.66508   0.25000   0.50000   0.00000  Uiso   1.00
C322   C     0.77869   0.44604   0.53153   0.00000  Uiso   1.00
C323   C     0.75000   0.25000   0.40683   0.00000  Uiso   1.00
C324   C     0.75000   0.25000   0.59317   0.00000  Uiso   1.00
C325   C     0.75000   0.02733   0.50000   0.00000  Uiso   1.00
C326   C     0.75000   0.47267   0.50000   0.00000  Uiso   1.00
C327   C     0.75000   0.25000   0.35517   0.00000  Uiso   1.00
C328   C     0.75000   0.25000   0.64483   0.00000  Uiso   1.00
C329   C     0.54734   0.26944   0.46006   0.00000  Uiso   1.00
C330   C     0.95265   0.23090   0.45989   0.00000  Uiso   1.00
C331   C     0.95265   0.26910   0.54011   0.00000  Uiso   1.00
C332   C     0.83492   0.25000   0.50000   0.00000  Uiso   1.00
C333   C     0.54733   0.23056   0.53994   0.00000  Uiso   1.00
C334   C     0.59350   0.26986   0.45993   0.00000  Uiso   1.00
C335   C     0.90649   0.23048   0.45976   0.00000  Uiso   1.00
C336   C     0.90648   0.26952   0.54024   0.00000  Uiso   1.00
C337   C     0.59350   0.23014   0.54007   0.00000  Uiso   1.00
C338   C     0.61680   0.25000   0.50000   0.00000  Uiso   1.00
C339   C     0.88319   0.25000   0.50000   0.00000  Uiso   1.00
C340   C     0.52423   0.25000   0.50000   0.00000  Uiso   1.00
C341   C     0.97576   0.25000   0.50000   0.00000  Uiso   1.00
C342   C     0.61631   0.28977   0.41786   0.00000  Uiso   1.00
C343   C     0.72224   0.10480   0.53051   0.00000  Uiso   1.00
C344   C     0.88368   0.21091   0.41753   0.00000  Uiso   1.00
C345   C     0.88367   0.28908   0.58247   0.00000  Uiso   1.00
C346   C     0.61630   0.21024   0.58214   0.00000  Uiso   1.00
C347   C     0.72222   0.39520   0.46952   0.00000  Uiso   1.00
C348   C     0.77776   0.10480   0.46949   0.00000  Uiso   1.00
C349   C     0.77778   0.39520   0.53048   0.00000  Uiso   1.00
C350   C     0.72132   0.05396   0.53155   0.00000  Uiso   1.00
C351   C     0.72131   0.44604   0.46847   0.00000  Uiso   1.00
C352   C     0.77868   0.05396   0.46845   0.00000  Uiso   1.00
Cu353  Cu    0.75000   0.29822   0.50000   0.00000  Uiso   1.00
Cu354  Cu    0.75000   0.20179   0.50000   0.00000  Uiso   1.00
H355   H     0.70039   0.12488   0.55450   0.00000  Uiso   1.00
H356   H     0.69426   0.00305   0.43850   0.00000  Uiso   1.00
H357   H     0.80570   0.49695   0.43846   0.00000  Uiso   1.00
H358   H     0.80574   0.00305   0.56150   0.00000  Uiso   1.00
H359   H     0.70037   0.37512   0.44554   0.00000  Uiso   1.00
H360   H     0.79961   0.12489   0.44550   0.00000  Uiso   1.00
H361   H     0.79964   0.37511   0.55446   0.00000  Uiso   1.00
H362   H     0.52930   0.28463   0.42927   0.00000  Uiso   1.00
H363   H     0.97070   0.21596   0.42897   0.00000  Uiso   1.00
H364   H     0.97069   0.28404   0.57102   0.00000  Uiso   1.00
H365   H     0.52929   0.21537   0.57073   0.00000  Uiso   1.00
H366   H     0.69429   0.49695   0.56154   0.00000  Uiso   1.00
N367   N     0.75000   0.12935   0.50000   0.00000  Uiso   1.00
N368   N     0.75000   0.37066   0.50000   0.00000  Uiso   1.00
N369   N     0.63460   0.30566   0.38419   0.00000  Uiso   1.00
N370   N     0.86539   0.19530   0.38372   0.00000  Uiso   1.00
N371   N     0.86537   0.30470   0.61627   0.00000  Uiso   1.00
N372   N     0.63458   0.19435   0.61582   0.00000  Uiso   1.00
O373   O     0.68573   0.29072   0.50000   0.00000  Uiso   1.00
O374   O     0.69199   0.46754   0.43621   0.00000  Uiso   1.00
O375   O     0.80798   0.03247   0.43617   0.00000  Uiso   1.00
O376   O     0.80801   0.46753   0.56379   0.00000  Uiso   1.00
O377   O     0.81427   0.20929   0.50000   0.00000  Uiso   1.00
O378   O     0.81427   0.29072   0.50000   0.00000  Uiso   1.00
O379   O     0.68573   0.20929   0.50000   0.00000  Uiso   1.00
O380   O     0.75000   0.29071   0.42946   0.00000  Uiso   1.00
O381   O     0.75000   0.20929   0.57054   0.00000  Uiso   1.00
O382   O     0.75000   0.29071   0.57054   0.00000  Uiso   1.00
O383   O     0.75000   0.20929   0.42946   0.00000  Uiso   1.00
O384   O     0.69202   0.03247   0.56383   0.00000  Uiso   1.00
C385   C     0.16508   0.75000   0.50000   0.00000  Uiso   1.00
C386   C     0.27869   0.94604   0.53153   0.00000  Uiso   1.00
C387   C     0.25000   0.75000   0.40683   0.00000  Uiso   1.00
C388   C     0.25000   0.75000   0.59317   0.00000  Uiso   1.00
C389   C     0.25000   0.52733   0.50000   0.00000  Uiso   1.00
C390   C     0.25000   0.97267   0.50000   0.00000  Uiso   1.00
C391   C     0.25000   0.75000   0.35517   0.00000  Uiso   1.00
C392   C     0.25000   0.75000   0.64483   0.00000  Uiso   1.00
C393   C     0.04734   0.76944   0.46006   0.00000  Uiso   1.00
C394   C     0.45265   0.73090   0.45989   0.00000  Uiso   1.00
C395   C     0.45265   0.76910   0.54011   0.00000  Uiso   1.00
C396   C     0.33492   0.75000   0.50000   0.00000  Uiso   1.00
C397   C     0.04733   0.73056   0.53994   0.00000  Uiso   1.00
C398   C     0.09350   0.76986   0.45993   0.00000  Uiso   1.00
C399   C     0.40649   0.73048   0.45976   0.00000  Uiso   1.00
C400   C     0.40648   0.76952   0.54024   0.00000  Uiso   1.00
C401   C     0.09350   0.73014   0.54007   0.00000  Uiso   1.00
C402   C     0.11680   0.75000   0.50000   0.00000  Uiso   1.00
C403   C     0.38319   0.75000   0.50000   0.00000  Uiso   1.00
C404   C     0.02423   0.75000   0.50000   0.00000  Uiso   1.00
C405   C     0.47576   0.75000   0.50000   0.00000  Uiso   1.00
C406   C     0.11631   0.78977   0.41786   0.00000  Uiso   1.00
C407   C     0.22224   0.60480   0.53051   0.00000  Uiso   1.00
C408   C     0.38368   0.71091   0.41753   0.00000  Uiso   1.00
C409   C     0.38367   0.78908   0.58247   0.00000  Uiso   1.00
C410   C     0.11630   0.71024   0.58214   0.00000  Uiso   1.00
C411   C     0.22222   0.89520   0.46952   0.00000  Uiso   1.00
C412   C     0.27776   0.60480   0.46949   0.00000  Uiso   1.00
C413   C     0.27778   0.89520   0.53048   0.00000  Uiso   1.00
C414   C     0.22132   0.55396   0.53155   0.00000  Uiso   1.00
C415   C     0.22131   0.94604   0.46847   0.00000  Uiso   1.00
C416   C     0.27868   0.55396   0.46845   0.00000  Uiso   1.00
Cu417  Cu    0.25000   0.79822   0.50000   0.00000  Uiso   1.00
Cu418  Cu    0.25000   0.70179   0.50000   0.00000  Uiso   1.00
H419   H     0.20039   0.62488   0.55450   0.00000  Uiso   1.00
H420   H     0.19426   0.50305   0.43850   0.00000  Uiso   1.00
H421   H     0.30570   0.99695   0.43846   0.00000  Uiso   1.00
H422   H     0.30574   0.50305   0.56150   0.00000  Uiso   1.00
H423   H     0.20037   0.87512   0.44554   0.00000  Uiso   1.00
H424   H     0.29961   0.62489   0.44550   0.00000  Uiso   1.00
H425   H     0.29964   0.87511   0.55446   0.00000  Uiso   1.00
H426   H     0.02930   0.78463   0.42927   0.00000  Uiso   1.00
H427   H     0.47070   0.71596   0.42897   0.00000  Uiso   1.00
H428   H     0.47069   0.78404   0.57102   0.00000  Uiso   1.00
H429   H     0.02929   0.71537   0.57073   0.00000  Uiso   1.00
H430   H     0.19429   0.99695   0.56154   0.00000  Uiso   1.00
N431   N     0.25000   0.62935   0.50000   0.00000  Uiso   1.00
N432   N     0.25000   0.87066   0.50000   0.00000  Uiso   1.00
N433   N     0.13460   0.80566   0.38419   0.00000  Uiso   1.00
N434   N     0.36539   0.69530   0.38372   0.00000  Uiso   1.00
N435   N     0.36537   0.80470   0.61627   0.00000  Uiso   1.00
N436   N     0.13458   0.69435   0.61582   0.00000  Uiso   1.00
O437   O     0.18573   0.79072   0.50000   0.00000  Uiso   1.00
O438   O     0.19199   0.96754   0.43621   0.00000  Uiso   1.00
O439   O     0.30798   0.53247   0.43617   0.00000  Uiso   1.00
O440   O     0.30801   0.96753   0.56379   0.00000  Uiso   1.00
O441   O     0.31427   0.70929   0.50000   0.00000  Uiso   1.00
O442   O     0.31427   0.79072   0.50000   0.00000  Uiso   1.00
O443   O     0.18573   0.70929   0.50000   0.00000  Uiso   1.00
O444   O     0.25000   0.79071   0.42946   0.00000  Uiso   1.00
O445   O     0.25000   0.70929   0.57054   0.00000  Uiso   1.00
O446   O     0.25000   0.79071   0.57054   0.00000  Uiso   1.00
O447   O     0.25000   0.70929   0.42946   0.00000  Uiso   1.00
O448   O     0.19202   0.53247   0.56383   0.00000  Uiso   1.00
C449   C     0.66508   0.75000   0.50000   0.00000  Uiso   1.00
C450   C     0.77869   0.94604   0.53153   0.00000  Uiso   1.00
C451   C     0.75000   0.75000   0.40683   0.00000  Uiso   1.00
C452   C     0.75000   0.75000   0.59317   0.00000  Uiso   1.00
C453   C     0.75000   0.52733   0.50000   0.00000  Uiso   1.00
C454   C     0.75000   0.97267   0.50000   0.00000  Uiso   1.00
C455   C     0.75000   0.75000   0.35517   0.00000  Uiso   1.00
C456   C     0.75000   0.75000   0.64483   0.00000  Uiso   1.00
C457   C     0.54734   0.76944   0.46006   0.00000  Uiso   1.00
C458   C     0.95265   0.73090   0.45989   0.00000  Uiso   1.00
C459   C     0.95265   0.76910   0.54011   0.00000  Uiso   1.00
C460   C     0.83492   0.75000   0.50000   0.00000  Uiso   1.00
C461   C     0.54733   0.73056   0.53994   0.00000  Uiso   1.00
C462   C     0.59350   0.76986   0.45993   0.00000  Uiso   1.00
C463   C     0.90649   0.73048   0.45976   0.00000  Uiso   1.00
C464   C     0.90648   0.76952   0.54024   0.00000  Uiso   1.00
C465   C     0.59350   0.73014   0.54007   0.00000  Uiso   1.00
C466   C     0.61680   0.75000   0.50000   0.00000  Uiso   1.00
C467   C     0.88319   0.75000   0.50000   0.00000  Uiso   1.00
C468   C     0.52423   0.75000   0.50000   0.00000  Uiso   1.00
C469   C     0.97576   0.75000   0.50000   0.00000  Uiso   1.00
C470   C     0.61631   0.78977   0.41786   0.00000  Uiso   1.00
C471   C     0.72224   0.60480   0.53051   0.00000  Uiso   1.00
C472   C     0.88368   0.71091   0.41753   0.00000  Uiso   1.00
C473   C     0.88367   0.78908   0.58247   0.00000  Uiso   1.00
C474   C     0.61630   0.71024   0.58214   0.00000  Uiso   1.00
C475   C     0.72222   0.89520   0.46952   0.00000  Uiso   1.00
C476   C     0.77776   0.60480   0.46949   0.00000  Uiso   1.00
C477   C     0.77778   0.89520   0.53048   0.00000  Uiso   1.00
C478   C     0.72132   0.55396   0.53155   0.00000  Uiso   1.00
C479   C     0.72131   0.94604   0.46847   0.00000  Uiso   1.00
C480   C     0.77868   0.55396   0.46845   0.00000  Uiso   1.00
Cu481  Cu    0.75000   0.79822   0.50000   0.00000  Uiso   1.00
Cu482  Cu    0.75000   0.70179   0.50000   0.00000  Uiso   1.00
H483   H     0.70039   0.62488   0.55450   0.00000  Uiso   1.00
H484   H     0.69426   0.50305   0.43850   0.00000  Uiso   1.00
H485   H     0.80570   0.99695   0.43846   0.00000  Uiso   1.00
H486   H     0.80574   0.50305   0.56150   0.00000  Uiso   1.00
H487   H     0.70037   0.87512   0.44554   0.00000  Uiso   1.00
H488   H     0.79961   0.62489   0.44550   0.00000  Uiso   1.00
H489   H     0.79964   0.87511   0.55446   0.00000  Uiso   1.00
H490   H     0.52930   0.78463   0.42927   0.00000  Uiso   1.00
H491   H     0.97070   0.71596   0.42897   0.00000  Uiso   1.00
H492   H     0.97069   0.78404   0.57102   0.00000  Uiso   1.00
H493   H     0.52929   0.71537   0.57073   0.00000  Uiso   1.00
H494   H     0.69429   0.99695   0.56154   0.00000  Uiso   1.00
N495   N     0.75000   0.62935   0.50000   0.00000  Uiso   1.00
N496   N     0.75000   0.87066   0.50000   0.00000  Uiso   1.00
N497   N     0.63460   0.80566   0.38419   0.00000  Uiso   1.00
N498   N     0.86539   0.69530   0.38372   0.00000  Uiso   1.00
N499   N     0.86537   0.80470   0.61627   0.00000  Uiso   1.00
N500   N     0.63458   0.69435   0.61582   0.00000  Uiso   1.00
O501   O     0.68573   0.79072   0.50000   0.00000  Uiso   1.00
O502   O     0.69199   0.96754   0.43621   0.00000  Uiso   1.00
O503   O     0.80798   0.53247   0.43617   0.00000  Uiso   1.00
O504   O     0.80801   0.96753   0.56379   0.00000  Uiso   1.00
O505   O     0.81427   0.70929   0.50000   0.00000  Uiso   1.00
O506   O     0.81427   0.79072   0.50000   0.00000  Uiso   1.00
O507   O     0.68573   0.70929   0.50000   0.00000  Uiso   1.00
O508   O     0.75000   0.79071   0.42946   0.00000  Uiso   1.00
O509   O     0.75000   0.70929   0.57054   0.00000  Uiso   1.00
O510   O     0.75000   0.79071   0.57054   0.00000  Uiso   1.00
O511   O     0.75000   0.70929   0.42946   0.00000  Uiso   1.00
O512   O     0.69202   0.53247   0.56383   0.00000  Uiso   1.00
C513   C     0.16508   0.25000   0.83334   0.00000  Uiso   1.00
C514   C     0.27869   0.44604   0.86486   0.00000  Uiso   1.00
C515   C     0.25000   0.25000   0.74017   0.00000  Uiso   1.00
C516   C     0.25000   0.25000   0.92650   0.00000  Uiso   1.00
C517   C     0.25000   0.02733   0.83333   0.00000  Uiso   1.00
C518   C     0.25000   0.47267   0.83333   0.00000  Uiso   1.00
C519   C     0.25000   0.25000   0.68850   0.00000  Uiso   1.00
C520   C     0.25000   0.25000   0.97816   0.00000  Uiso   1.00
C521   C     0.04734   0.26944   0.79339   0.00000  Uiso   1.00
C522   C     0.45265   0.23090   0.79322   0.00000  Uiso   1.00
C523   C     0.45265   0.26910   0.87344   0.00000  Uiso   1.00
C524   C     0.33492   0.25000   0.83333   0.00000  Uiso   1.00
C525   C     0.04733   0.23056   0.87327   0.00000  Uiso   1.00
C526   C     0.09350   0.26986   0.79327   0.00000  Uiso   1.00
C527   C     0.40649   0.23048   0.79309   0.00000  Uiso   1.00
C528   C     0.40648   0.26952   0.87357   0.00000  Uiso   1.00
C529   C     0.09350   0.23014   0.87340   0.00000  Uiso   1.00
C530   C     0.11680   0.25000   0.83334   0.00000  Uiso   1.00
C531   C     0.38319   0.25000   0.83333   0.00000  Uiso   1.00
C532   C     0.02423   0.25000   0.83333   0.00000  Uiso   1.00
C533   C     0.47576   0.25000   0.83333   0.00000  Uiso   1.00
C534   C     0.11631   0.28977   0.75120   0.00000  Uiso   1.00
C535   C     0.22224   0.10480   0.86384   0.00000  Uiso   1.00
C536   C     0.38368   0.21091   0.75086   0.00000  Uiso   1.00
C537   C     0.38367   0.28908   0.91580   0.00000  Uiso   1.00
C538   C     0.11630   0.21024   0.91548   0.00000  Uiso   1.00
C539   C     0.22222   0.39520   0.80285   0.00000  Uiso   1.00
C540   C     0.27776   0.10480   0.80283   0.00000  Uiso   1.00
C541   C     0.27778   0.39520   0.86382   0.00000  Uiso   1.00
C542   C     0.22132   0.05396   0.86488   0.00000  Uiso   1.00
C543   C     0.22131   0.44604   0.80181   0.00000  Uiso   1.00
C544   C     0.27868   0.05396   0.80179   0.00000  Uiso   1.00
Cu545  Cu    0.25000   0.29822   0.83333   0.00000  Uiso   1.00
Cu546  Cu    0.25000   0.20179   0.83333   0.00000  Uiso   1.00
H547   H     0.20039   0.12488   0.88783   0.00000  Uiso   1.00
H548   H     0.19426   0.00305   0.77183   0.00000  Uiso   1.00
H549   H     0.30570   0.49695   0.77179   0.00000  Uiso   1.00
H550   H     0.30574   0.00305   0.89483   0.00000  Uiso   1.00
H551   H     0.20037   0.37512   0.77887   0.00000  Uiso   1.00
H552   H     0.29961   0.12489   0.77883   0.00000  Uiso   1.00
H553   H     0.29964   0.37511   0.88780   0.00000  Uiso   1.00
H554   H     0.02930   0.28463   0.76261   0.00000  Uiso   1.00
H555   H     0.47070   0.21596   0.76231   0.00000  Uiso   1.00
H556   H     0.47069   0.28404   0.90436   0.00000  Uiso   1.00
H557   H     0.02929   0.21537   0.90406   0.00000  Uiso   1.00
H558   H     0.19429   0.49695   0.89487   0.00000  Uiso   1.00
N559   N     0.25000   0.12935   0.83333   0.00000  Uiso   1.00
N560   N     0.25000   0.37066   0.83333   0.00000  Uiso   1.00
N561   N     0.13460   0.30566   0.71752   0.00000  Uiso   1.00
N562   N     0.36539   0.19530   0.71706   0.00000  Uiso   1.00
N563   N     0.36537   0.30470   0.94960   0.00000  Uiso   1.00
N564   N     0.13458   0.19435   0.94915   0.00000  Uiso   1.00
O565   O     0.18573   0.29072   0.83334   0.00000  Uiso   1.00
O566   O     0.19199   0.46754   0.76954   0.00000  Uiso   1.00
O567   O     0.30798   0.03247   0.76950   0.00000  Uiso   1.00
O568   O     0.30801   0.46753   0.89712   0.00000  Uiso   1.00
O569   O     0.31427   0.20929   0.83333   0.00000  Uiso   1.00
O570   O     0.31427   0.29072   0.83333   0.00000  Uiso   1.00
O571   O     0.18573   0.20929   0.83334   0.00000  Uiso   1.00
O572   O     0.25000   0.29071   0.76280   0.00000  Uiso   1.00
O573   O     0.25000   0.20929   0.90387   0.00000  Uiso   1.00
O574   O     0.25000   0.29071   0.90387   0.00000  Uiso   1.00
O575   O     0.25000   0.20929   0.76280   0.00000  Uiso   1.00
O576   O     0.19202   0.03247   0.89717   0.00000  Uiso   1.00
C577   C     0.66508   0.25000   0.83334   0.00000  Uiso   1.00
C578   C     0.77869   0.44604   0.86486   0.00000  Uiso   1.00
C579   C     0.75000   0.25000   0.74017   0.00000  Uiso   1.00
C580   C     0.75000   0.25000   0.92650   0.00000  Uiso   1.00
C581   C     0.75000   0.02733   0.83333   0.00000  Uiso   1.00
C582   C     0.75000   0.47267   0.83333   0.00000  Uiso   1.00
C583   C     0.75000   0.25000   0.68850   0.00000  Uiso   1.00
C584   C     0.75000   0.25000   0.97816   0.00000  Uiso   1.00
C585   C     0.54734   0.26944   0.79339   0.00000  Uiso   1.00
C586   C     0.95265   0.23090   0.79322   0.00000  Uiso   1.00
C587   C     0.95265   0.26910   0.87344   0.00000  Uiso   1.00
C588   C     0.83492   0.25000   0.83333   0.00000  Uiso   1.00
C589   C     0.54733   0.23056   0.87327   0.00000  Uiso   1.00
C590   C     0.59350   0.26986   0.79327   0.00000  Uiso   1.00
C591   C     0.90649   0.23048   0.79309   0.00000  Uiso   1.00
C592   C     0.90648   0.26952   0.87357   0.00000  Uiso   1.00
C593   C     0.59350   0.23014   0.87340   0.00000  Uiso   1.00
C594   C     0.61680   0.25000   0.83334   0.00000  Uiso   1.00
C595   C     0.88319   0.25000   0.83333   0.00000  Uiso   1.00
C596   C     0.52423   0.25000   0.83333   0.00000  Uiso   1.00
C597   C     0.97576   0.25000   0.83333   0.00000  Uiso   1.00
C598   C     0.61631   0.28977   0.75120   0.00000  Uiso   1.00
C599   C     0.72224   0.10480   0.86384   0.00000  Uiso   1.00
C600   C     0.88368   0.21091   0.75086   0.00000  Uiso   1.00
C601   C     0.88367   0.28908   0.91580   0.00000  Uiso   1.00
C602   C     0.61630   0.21024   0.91548   0.00000  Uiso   1.00
C603   C     0.72222   0.39520   0.80285   0.00000  Uiso   1.00
C604   C     0.77776   0.10480   0.80283   0.00000  Uiso   1.00
C605   C     0.77778   0.39520   0.86382   0.00000  Uiso   1.00
C606   C     0.72132   0.05396   0.86488   0.00000  Uiso   1.00
C607   C     0.72131   0.44604   0.80181   0.00000  Uiso   1.00
C608   C     0.77868   0.05396   0.80179   0.00000  Uiso   1.00
Cu609  Cu    0.75000   0.29822   0.83333   0.00000  Uiso   1.00
Cu610  Cu    0.75000   0.20179   0.83333   0.00000  Uiso   1.00
H611   H     0.70039   0.12488   0.88783   0.00000  Uiso   1.00
H612   H     0.69426   0.00305   0.77183   0.00000  Uiso   1.00
H613   H     0.80570   0.49695   0.77179   0.00000  Uiso   1.00
H614   H     0.80574   0.00305   0.89483   0.00000  Uiso   1.00
H615   H     0.70037   0.37512   0.77887   0.00000  Uiso   1.00
H616   H     0.79961   0.12489   0.77883   0.00000  Uiso   1.00
H617   H     0.79964   0.37511   0.88780   0.00000  Uiso   1.00
H618   H     0.52930   0.28463   0.76261   0.00000  Uiso   1.00
H619   H     0.97070   0.21596   0.76231   0.00000  Uiso   1.00
H620   H     0.97069   0.28404   0.90436   0.00000  Uiso   1.00
H621   H     0.52929   0.21537   0.90406   0.00000  Uiso   1.00
H622   H     0.69429   0.49695   0.89487   0.00000  Uiso   1.00
N623   N     0.75000   0.12935   0.83333   0.00000  Uiso   1.00
N624   N     0.75000   0.37066   0.83333   0.00000  Uiso   1.00
N625   N     0.63460   0.30566   0.71752   0.00000  Uiso   1.00
N626   N     0.86539   0.19530   0.71706   0.00000  Uiso   1.00
N627   N     0.86537   0.30470   0.94960   0.00000  Uiso   1.00
N628   N     0.63458   0.19435   0.94915   0.00000  Uiso   1.00
O629   O     0.68573   0.29072   0.83334   0.00000  Uiso   1.00
O630   O     0.69199   0.46754   0.76954   0.00000  Uiso   1.00
O631   O     0.80798   0.03247   0.76950   0.00000  Uiso   1.00
O632   O     0.80801   0.46753   0.89712   0.00000  Uiso   1.00
O633   O     0.81427   0.20929   0.83333   0.00000  Uiso   1.00
O634   O     0.81427   0.29072   0.83333   0.00000  Uiso   1.00
O635   O     0.68573   0.20929   0.83334   0.00000  Uiso   1.00
O636   O     0.75000   0.29071   0.76280   0.00000  Uiso   1.00
O637   O     0.75000   0.20929   0.90387   0.00000  Uiso   1.00
O638   O     0.75000   0.29071   0.90387   0.00000  Uiso   1.00
O639   O     0.75000   0.20929   0.76280   0.00000  Uiso   1.00
O640   O     0.69202   0.03247   0.89717   0.00000  Uiso   1.00
C641   C     0.16508   0.75000   0.83334   0.00000  Uiso   1.00
C642   C     0.27869   0.94604   0.86486   0.00000  Uiso   1.00
C643   C     0.25000   0.75000   0.74017   0.00000  Uiso   1.00
C644   C     0.25000   0.75000   0.92650   0.00000  Uiso   1.00
C645   C     0.25000   0.52733   0.83333   0.00000  Uiso   1.00
C646   C     0.25000   0.97267   0.83333   0.00000  Uiso   1.00
C647   C     0.25000   0.75000   0.68850   0.00000  Uiso   1.00
C648   C     0.25000   0.75000   0.97816   0.00000  Uiso   1.00
C649   C     0.04734   0.76944   0.79339   0.00000  Uiso   1.00
C650   C     0.45265   0.73090   0.79322   0.00000  Uiso   1.00
C651   C     0.45265   0.76910   0.87344   0.00000  Uiso   1.00
C652   C     0.33492   0.75000   0.83333   0.00000  Uiso   1.00
C653   C     0.04733   0.73056   0.87327   0.00000  Uiso   1.00
C654   C     0.09350   0.76986   0.79327   0.00000  Uiso   1.00
C655   C     0.40649   0.73048   0.79309   0.00000  Uiso   1.00
C656   C     0.40648   0.76952   0.87357   0.00000  Uiso   1.00
C657   C     0.09350   0.73014   0.87340   0.00000  Uiso   1.00
C658   C     0.11680   0.75000   0.83334   0.00000  Uiso   1.00
C659   C     0.38319   0.75000   0.83333   0.00000  Uiso   1.00
C660   C     0.02423   0.75000   0.83333   0.00000  Uiso   1.00
C661   C     0.47576   0.75000   0.83333   0.00000  Uiso   1.00
C662   C     0.11631   0.78977   0.75120   0.00000  Uiso   1.00
C663   C     0.22224   0.60480   0.86384   0.00000  Uiso   1.00
C664   C     0.38368   0.71091   0.75086   0.00000  Uiso   1.00
C665   C     0.38367   0.78908   0.91580   0.00000  Uiso   1.00
C666   C     0.11630   0.71024   0.91548   0.00000  Uiso   1.00
C667   C     0.22222   0.89520   0.80285   0.00000  Uiso   1.00
C668   C     0.27776   0.60480   0.80283   0.00000  Uiso   1.00
C669   C     0.27778   0.89520   0.86382   0.00000  Uiso   1.00
C670   C     0.22132   0.55396   0.86488   0.00000  Uiso   1.00
C671   C     0.22131   0.94604   0.80181   0.00000  Uiso   1.00
C672   C     0.27868   0.55396   0.80179   0.00000  Uiso   1.00
Cu673  Cu    0.25000   0.79822   0.83333   0.00000  Uiso   1.00
Cu674  Cu    0.25000   0.70179   0.83333   0.00000  Uiso   1.00
H675   H     0.20039   0.62488   0.88783   0.00000  Uiso   1.00
H676   H     0.19426   0.50305   0.77183   0.00000  Uiso   1.00
H677   H     0.30570   0.99695   0.77179   0.00000  Uiso   1.00
H678   H     0.30574   0.50305   0.89483   0.00000  Uiso   1.00
H679   H     0.20037   0.87512   0.77887   0.00000  Uiso   1.00
H680   H     0.29961   0.62489   0.77883   0.00000  Uiso   1.00
H681   H     0.29964   0.87511   0.88780   0.00000  Uiso   1.00
H682   H     0.02930   0.78463   0.76261   0.00000  Uiso   1.00
H683   H     0.47070   0.71596   0.76231   0.00000  Uiso   1.00
H684   H     0.47069   0.78404   0.90436   0.00000  Uiso   1.00
H685   H     0.02929   0.71537   0.90406   0.00000  Uiso   1.00
H686   H     0.19429   0.99695   0.89487   0.00000  Uiso   1.00
N687   N     0.25000   0.62935   0.83333   0.00000  Uiso   1.00
N688   N     0.25000   0.87066   0.83333   0.00000  Uiso   1.00
N689   N     0.13460   0.80566   0.71752   0.00000  Uiso   1.00
N690   N     0.36539   0.69530   0.71706   0.00000  Uiso   1.00
N691   N     0.36537   0.80470   0.94960   0.00000  Uiso   1.00
N692   N     0.13458   0.69435   0.94915   0.00000  Uiso   1.00
O693   O     0.18573   0.79072   0.83334   0.00000  Uiso   1.00
O694   O     0.19199   0.96754   0.76954   0.00000  Uiso   1.00
O695   O     0.30798   0.53247   0.76950   0.00000  Uiso   1.00
O696   O     0.30801   0.96753   0.89712   0.00000  Uiso   1.00
O697   O     0.31427   0.70929   0.83333   0.00000  Uiso   1.00
O698   O     0.31427   0.79072   0.83333   0.00000  Uiso   1.00
O699   O     0.18573   0.70929   0.83334   0.00000  Uiso   1.00
O700   O     0.25000   0.79071   0.76280   0.00000  Uiso   1.00
O701   O     0.25000   0.70929   0.90387   0.00000  Uiso   1.00
O702   O     0.25000   0.79071   0.90387   0.00000  Uiso   1.00
O703   O     0.25000   0.70929   0.76280   0.00000  Uiso   1.00
O704   O     0.19202   0.53247   0.89717   0.00000  Uiso   1.00
C705   C     0.66508   0.75000   0.83334   0.00000  Uiso   1.00
C706   C     0.77869   0.94604   0.86486   0.00000  Uiso   1.00
C707   C     0.75000   0.75000   0.74017   0.00000  Uiso   1.00
C708   C     0.75000   0.75000   0.92650   0.00000  Uiso   1.00
C709   C     0.75000   0.52733   0.83333   0.00000  Uiso   1.00
C710   C     0.75000   0.97267   0.83333   0.00000  Uiso   1.00
C711   C     0.75000   0.75000   0.68850   0.00000  Uiso   1.00
C712   C     0.75000   0.75000   0.97816   0.00000  Uiso   1.00
C713   C     0.54734   0.76944   0.79339   0.00000  Uiso   1.00
C714   C     0.95265   0.73090   0.79322   0.00000  Uiso   1.00
C715   C     0.95265   0.76910   0.87344   0.00000  Uiso   1.00
C716   C     0.83492   0.75000   0.83333   0.00000  Uiso   1.00
C717   C     0.54733   0.73056   0.87327   0.00000  Uiso   1.00
C718   C     0.59350   0.76986   0.79327   0.00000  Uiso   1.00
C719   C     0.90649   0.73048   0.79309   0.00000  Uiso   1.00
C720   C     0.90648   0.76952   0.87357   0.00000  Uiso   1.00
C721   C     0.59350   0.73014   0.87340   0.00000  Uiso   1.00
C722   C     0.61680   0.75000   0.83334   0.00000  Uiso   1.00
C723   C     0.88319   0.75000   0.83333   0.00000  Uiso   1.00
C724   C     0.52423   0.75000   0.83333   0.00000  Uiso   1.00
C725   C     0.97576   0.75000   0.83333   0.00000  Uiso   1.00
C726   C     0.61631   0.78977   0.75120   0.00000  Uiso   1.00
C727   C     0.72224   0.60480   0.86384   0.00000  Uiso   1.00
C728   C     0.88368   0.71091   0.75086   0.00000  Uiso   1.00
C729   C     0.88367   0.78908   0.91580   0.00000  Uiso   1.00
C730   C     0.61630   0.71024   0.91548   0.00000  Uiso   1.00
C731   C     0.72222   0.89520   0.80285   0.00000  Uiso   1.00
C732   C     0.77776   0.60480   0.80283   0.00000  Uiso   1.00
C733   C     0.77778   0.89520   0.86382   0.00000  Uiso   1.00
C734   C     0.72132   0.55396   0.86488   0.00000  Uiso   1.00
C735   C     0.72131   0.94604   0.80181   0.00000  Uiso   1.00
C736   C     0.77868   0.55396   0.80179   0.00000  Uiso   1.00
Cu737  Cu    0.75000   0.79822   0.83333   0.00000  Uiso   1.00
Cu738  Cu    0.75000   0.70179   0.83333   0.00000  Uiso   1.00
H739   H     0.70039   0.62488   0.88783   0.00000  Uiso   1.00
H740   H     0.69426   0.50305   0.77183   0.00000  Uiso   1.00
H741   H     0.80570   0.99695   0.77179   0.00000  Uiso   1.00
H742   H     0.80574   0.50305   0.89483   0.00000  Uiso   1.00
H743   H     0.70037   0.87512   0.77887   0.00000  Uiso   1.00
H744   H     0.79961   0.62489   0.77883   0.00000  Uiso   1.00
H745   H     0.79964   0.87511   0.88780   0.00000  Uiso   1.00
H746   H     0.52930   0.78463   0.76261   0.00000  Uiso   1.00
H747   H     0.97070   0.71596   0.76231   0.00000  Uiso   1.00
H748   H     0.97069   0.78404   0.90436   0.00000  Uiso   1.00
H749   H     0.52929   0.71537   0.90406   0.00000  Uiso   1.00
H750   H     0.69429   0.99695   0.89487   0.00000  Uiso   1.00
N751   N     0.75000   0.62935   0.83333   0.00000  Uiso   1.00
N752   N     0.75000   0.87066   0.83333   0.00000  Uiso   1.00
N753   N     0.63460   0.80566   0.71752   0.00000  Uiso   1.00
N754   N     0.86539   0.69530   0.71706   0.00000  Uiso   1.00
N755   N     0.86537   0.80470   0.94960   0.00000  Uiso   1.00
N756   N     0.63458   0.69435   0.94915   0.00000  Uiso   1.00
O757   O     0.68573   0.79072   0.83334   0.00000  Uiso   1.00
O758   O     0.69199   0.96754   0.76954   0.00000  Uiso   1.00
O759   O     0.80798   0.53247   0.76950   0.00000  Uiso   1.00
O760   O     0.80801   0.96753   0.89712   0.00000  Uiso   1.00
O761   O     0.81427   0.70929   0.83333   0.00000  Uiso   1.00
O762   O     0.81427   0.79072   0.83333   0.00000  Uiso   1.00
O763   O     0.68573   0.70929   0.83334   0.00000  Uiso   1.00
O764   O     0.75000   0.79071   0.76280   0.00000  Uiso   1.00
O765   O     0.75000   0.70929   0.90387   0.00000  Uiso   1.00
O766   O     0.75000   0.79071   0.90387   0.00000  Uiso   1.00
O767   O     0.75000   0.70929   0.76280   0.00000  Uiso   1.00
O768   O     0.69202   0.53247   0.89717   0.00000  Uiso   1.00
loop_
_geom_bond_atom_site_label_1
_geom_bond_atom_site_label_2
_geom_bond_distance
_geom_bond_site_symmetry_2
_ccdc_geom_bond_type
C1     C18     1.457   .     S
C1     O59     1.289   .     A
C1     O53     1.289   .     A
C2     O56     1.382   .     S
C2     C6      1.425   .     A
C2     C29     1.409   .     A
C3     C7      1.407   .     S
C3     O60     1.285   .     A
C3     O63     1.285   .     A
C4     C8      1.407   .     S
C4     O62     1.285   .     A
C4     O61     1.285   .     A
C5     C32     1.425   .     A
C5     C30     1.425   .     A
C5     C134    1.515   1_545 S
C6     C31     1.425   .     A
C6     C133    1.515   .     S
C7     C520    1.189   1_554 S
C8     C263    1.189   .     S
C9     C14     1.393   .     A
C9     H42     1.085   .     S
C9     C20     1.400   .     A
C10    C15     1.393   .     A
C10    C21     1.400   .     A
C10    H43     1.085   .     S
C11    C16     1.393   .     A
C11    H44     1.085   .     S
C11    C21     1.400   .     A
C12    O58     1.289   .     A
C12    O57     1.289   .     A
C12    C19     1.457   .     S
C13    H45     1.085   .     S
C13    C17     1.393   .     A
C13    C20     1.400   .     A
C14    C18     1.410   .     A
C14    C22     1.446   .     S
C15    C19     1.410   .     A
C15    C24     1.446   .     S
C16    C25     1.446   .     S
C16    C19     1.410   .     A
C17    C18     1.410   .     A
C17    C26     1.446   .     S
C20    C85     1.463   1_455 S
C21    C84     1.463   .     S
C22    N49     1.157   .     T
C23    H35     1.082   .     S
C23    N47     1.362   .     A
C23    C30     1.409   .     A
C24    N50     1.157   .     T
C25    N51     1.157   .     T
C26    N52     1.157   .     T
C27    N48     1.362   .     A
C27    H39     1.082   .     S
C27    C31     1.409   .     A
C28    N47     1.362   .     A
C28    C32     1.409   .     A
C28    H40     1.082   .     S
C29    N48     1.362   .     A
C29    H41     1.082   .     S
C30    O64     1.382   .     S
C31    O54     1.382   .     S
C32    O55     1.382   .     S
Cu33   O58     1.951   .     S
Cu33   O53     1.951   .     S
Cu33   Cu34    2.672   .     S
Cu33   O60     1.932   .     S
Cu33   N48     2.007   .     S
Cu33   O62     1.932   .     S
Cu34   O57     1.951   .     S
Cu34   O63     1.932   .     S
Cu34   N47     2.007   .     S
Cu34   O59     1.951   .     S
Cu34   O61     1.932   .     S
H36    O182    0.988   1_545 S
H37    O183    0.988   .     S
H38    O184    0.988   1_545 S
H46    O192    0.988   .     S
O54    H164    0.988   .     S
O55    H165    0.988   1_545 S
O56    H166    0.988   .     S
O64    H174    0.988   1_545 S
C65    C82     1.457   .     S
C65    O123    1.289   .     A
C65    O117    1.289   .     A
C66    O120    1.382   .     S
C66    C70     1.425   .     A
C66    C93     1.409   .     A
C67    C71     1.407   .     S
C67    O124    1.285   .     A
C67    O127    1.285   .     A
C68    C72     1.407   .     S
C68    O126    1.285   .     A
C68    O125    1.285   .     A
C69    C96     1.425   .     A
C69    C94     1.425   .     A
C69    C198    1.515   1_545 S
C70    C95     1.425   .     A
C70    C197    1.515   .     S
C71    C584    1.189   1_554 S
C72    C327    1.189   .     S
C73    C78     1.393   .     A
C73    H106    1.085   .     S
C73    C84     1.400   .     A
C74    C79     1.393   .     A
C74    C85     1.400   .     A
C74    H107    1.085   .     S
C75    C80     1.393   .     A
C75    H108    1.085   .     S
C75    C85     1.400   .     A
C76    O122    1.289   .     A
C76    O121    1.289   .     A
C76    C83     1.457   .     S
C77    H109    1.085   .     S
C77    C81     1.393   .     A
C77    C84     1.400   .     A
C78    C82     1.410   .     A
C78    C86     1.446   .     S
C79    C83     1.410   .     A
C79    C88     1.446   .     S
C80    C89     1.446   .     S
C80    C83     1.410   .     A
C81    C82     1.410   .     A
C81    C90     1.446   .     S
C85    C20     1.463   1_655 S
C86    N113    1.157   .     T
C87    H99     1.082   .     S
C87    N111    1.362   .     A
C87    C94     1.409   .     A
C88    N114    1.157   .     T
C89    N115    1.157   .     T
C90    N116    1.157   .     T
C91    N112    1.362   .     A
C91    H103    1.082   .     S
C91    C95     1.409   .     A
C92    N111    1.362   .     A
C92    C96     1.409   .     A
C92    H104    1.082   .     S
C93    N112    1.362   .     A
C93    H105    1.082   .     S
C94    O128    1.382   .     S
C95    O118    1.382   .     S
C96    O119    1.382   .     S
Cu97   O122    1.951   .     S
Cu97   O117    1.951   .     S
Cu97   Cu98    2.672   .     S
Cu97   O124    1.932   .     S
Cu97   N112    2.007   .     S
Cu97   O126    1.932   .     S
Cu98   O121    1.951   .     S
Cu98   O127    1.932   .     S
Cu98   N111    2.007   .     S
Cu98   O123    1.951   .     S
Cu98   O125    1.932   .     S
H100   O246    0.988   1_545 S
H101   O247    0.988   .     S
H102   O248    0.988   1_545 S
H110   O256    0.988   .     S
O118   H228    0.988   .     S
O119   H229    0.988   1_545 S
O120   H230    0.988   .     S
O128   H238    0.988   1_545 S
C129   C146    1.457   .     S
C129   O187    1.289   .     A
C129   O181    1.289   .     A
C130   O184    1.382   .     S
C130   C134    1.425   .     A
C130   C157    1.409   .     A
C131   C135    1.407   .     S
C131   O188    1.285   .     A
C131   O191    1.285   .     A
C132   C136    1.407   .     S
C132   O190    1.285   .     A
C132   O189    1.285   .     A
C133   C160    1.425   .     A
C133   C158    1.425   .     A
C134   C159    1.425   .     A
C134   C5      1.515   1_565 S
C135   C648    1.189   1_554 S
C136   C391    1.189   .     S
C137   C142    1.393   .     A
C137   H170    1.085   .     S
C137   C148    1.400   .     A
C138   C143    1.393   .     A
C138   C149    1.400   .     A
C138   H171    1.085   .     S
C139   C144    1.393   .     A
C139   H172    1.085   .     S
C139   C149    1.400   .     A
C140   O186    1.289   .     A
C140   O185    1.289   .     A
C140   C147    1.457   .     S
C141   H173    1.085   .     S
C141   C145    1.393   .     A
C141   C148    1.400   .     A
C142   C146    1.410   .     A
C142   C150    1.446   .     S
C143   C147    1.410   .     A
C143   C152    1.446   .     S
C144   C153    1.446   .     S
C144   C147    1.410   .     A
C145   C146    1.410   .     A
C145   C154    1.446   .     S
C148   C213    1.463   1_455 S
C149   C212    1.463   .     S
C150   N177    1.157   .     T
C151   H163    1.082   .     S
C151   N175    1.362   .     A
C151   C158    1.409   .     A
C152   N178    1.157   .     T
C153   N179    1.157   .     T
C154   N180    1.157   .     T
C155   N176    1.362   .     A
C155   H167    1.082   .     S
C155   C159    1.409   .     A
C156   N175    1.362   .     A
C156   C160    1.409   .     A
C156   H168    1.082   .     S
C157   N176    1.362   .     A
C157   H169    1.082   .     S
C158   O192    1.382   .     S
C159   O182    1.382   .     S
C160   O183    1.382   .     S
Cu161  O186    1.951   .     S
Cu161  O181    1.951   .     S
Cu161  Cu162   2.672   .     S
Cu161  O188    1.932   .     S
Cu161  N176    2.007   .     S
Cu161  O190    1.932   .     S
Cu162  O185    1.951   .     S
Cu162  O191    1.932   .     S
Cu162  N175    2.007   .     S
Cu162  O187    1.951   .     S
Cu162  O189    1.932   .     S
H165   O55     0.988   1_565 S
H174   O64     0.988   1_565 S
O182   H36     0.988   1_565 S
O184   H38     0.988   1_565 S
C193   C210    1.457   .     S
C193   O251    1.289   .     A
C193   O245    1.289   .     A
C194   O248    1.382   .     S
C194   C198    1.425   .     A
C194   C221    1.409   .     A
C195   C199    1.407   .     S
C195   O252    1.285   .     A
C195   O255    1.285   .     A
C196   C200    1.407   .     S
C196   O254    1.285   .     A
C196   O253    1.285   .     A
C197   C224    1.425   .     A
C197   C222    1.425   .     A
C198   C223    1.425   .     A
C198   C69     1.515   1_565 S
C199   C712    1.189   1_554 S
C200   C455    1.189   .     S
C201   C206    1.393   .     A
C201   H234    1.085   .     S
C201   C212    1.400   .     A
C202   C207    1.393   .     A
C202   C213    1.400   .     A
C202   H235    1.085   .     S
C203   C208    1.393   .     A
C203   H236    1.085   .     S
C203   C213    1.400   .     A
C204   O250    1.289   .     A
C204   O249    1.289   .     A
C204   C211    1.457   .     S
C205   H237    1.085   .     S
C205   C209    1.393   .     A
C205   C212    1.400   .     A
C206   C210    1.410   .     A
C206   C214    1.446   .     S
C207   C211    1.410   .     A
C207   C216    1.446   .     S
C208   C217    1.446   .     S
C208   C211    1.410   .     A
C209   C210    1.410   .     A
C209   C218    1.446   .     S
C213   C148    1.463   1_655 S
C214   N241    1.157   .     T
C215   H227    1.082   .     S
C215   N239    1.362   .     A
C215   C222    1.409   .     A
C216   N242    1.157   .     T
C217   N243    1.157   .     T
C218   N244    1.157   .     T
C219   N240    1.362   .     A
C219   H231    1.082   .     S
C219   C223    1.409   .     A
C220   N239    1.362   .     A
C220   C224    1.409   .     A
C220   H232    1.082   .     S
C221   N240    1.362   .     A
C221   H233    1.082   .     S
C222   O256    1.382   .     S
C223   O246    1.382   .     S
C224   O247    1.382   .     S
Cu225  O250    1.951   .     S
Cu225  O245    1.951   .     S
Cu225  Cu226   2.672   .     S
Cu225  O252    1.932   .     S
Cu225  N240    2.007   .     S
Cu225  O254    1.932   .     S
Cu226  O249    1.951   .     S
Cu226  O255    1.932   .     S
Cu226  N239    2.007   .     S
Cu226  O251    1.951   .     S
Cu226  O253    1.932   .     S
H229   O119    0.988   1_565 S
H238   O128    0.988   1_565 S
O246   H100    0.988   1_565 S
O248   H102    0.988   1_565 S
C257   C274    1.457   .     S
C257   O315    1.289   .     A
C257   O309    1.289   .     A
C258   O312    1.382   .     S
C258   C262    1.425   .     A
C258   C285    1.409   .     A
C259   C263    1.407   .     S
C259   O316    1.285   .     A
C259   O319    1.285   .     A
C260   C264    1.407   .     S
C260   O318    1.285   .     A
C260   O317    1.285   .     A
C261   C288    1.425   .     A
C261   C286    1.425   .     A
C261   C390    1.515   1_545 S
C262   C287    1.425   .     A
C262   C389    1.515   .     S
C264   C519    1.189   .     S
C265   C270    1.393   .     A
C265   H298    1.085   .     S
C265   C276    1.400   .     A
C266   C271    1.393   .     A
C266   C277    1.400   .     A
C266   H299    1.085   .     S
C267   C272    1.393   .     A
C267   H300    1.085   .     S
C267   C277    1.400   .     A
C268   O314    1.289   .     A
C268   O313    1.289   .     A
C268   C275    1.457   .     S
C269   H301    1.085   .     S
C269   C273    1.393   .     A
C269   C276    1.400   .     A
C270   C274    1.410   .     A
C270   C278    1.446   .     S
C271   C275    1.410   .     A
C271   C280    1.446   .     S
C272   C281    1.446   .     S
C272   C275    1.410   .     A
C273   C274    1.410   .     A
C273   C282    1.446   .     S
C276   C341    1.463   1_455 S
C277   C340    1.463   .     S
C278   N305    1.157   .     T
C279   H291    1.082   .     S
C279   N303    1.362   .     A
C279   C286    1.409   .     A
C280   N306    1.157   .     T
C281   N307    1.157   .     T
C282   N308    1.157   .     T
C283   N304    1.362   .     A
C283   H295    1.082   .     S
C283   C287    1.409   .     A
C284   N303    1.362   .     A
C284   C288    1.409   .     A
C284   H296    1.082   .     S
C285   N304    1.362   .     A
C285   H297    1.082   .     S
C286   O320    1.382   .     S
C287   O310    1.382   .     S
C288   O311    1.382   .     S
Cu289  O314    1.951   .     S
Cu289  O309    1.951   .     S
Cu289  Cu290   2.672   .     S
Cu289  O316    1.932   .     S
Cu289  N304    2.007   .     S
Cu289  O318    1.932   .     S
Cu290  O313    1.951   .     S
Cu290  O319    1.932   .     S
Cu290  N303    2.007   .     S
Cu290  O315    1.951   .     S
Cu290  O317    1.932   .     S
H292   O438    0.988   1_545 S
H293   O439    0.988   .     S
H294   O440    0.988   1_545 S
H302   O448    0.988   .     S
O310   H420    0.988   .     S
O311   H421    0.988   1_545 S
O312   H422    0.988   .     S
O320   H430    0.988   1_545 S
C321   C338    1.457   .     S
C321   O379    1.289   .     A
C321   O373    1.289   .     A
C322   O376    1.382   .     S
C322   C326    1.425   .     A
C322   C349    1.409   .     A
C323   C327    1.407   .     S
C323   O380    1.285   .     A
C323   O383    1.285   .     A
C324   C328    1.407   .     S
C324   O382    1.285   .     A
C324   O381    1.285   .     A
C325   C352    1.425   .     A
C325   C350    1.425   .     A
C325   C454    1.515   1_545 S
C326   C351    1.425   .     A
C326   C453    1.515   .     S
C328   C583    1.189   .     S
C329   C334    1.393   .     A
C329   H362    1.085   .     S
C329   C340    1.400   .     A
C330   C335    1.393   .     A
C330   C341    1.400   .     A
C330   H363    1.085   .     S
C331   C336    1.393   .     A
C331   H364    1.085   .     S
C331   C341    1.400   .     A
C332   O378    1.289   .     A
C332   O377    1.289   .     A
C332   C339    1.457   .     S
C333   H365    1.085   .     S
C333   C337    1.393   .     A
C333   C340    1.400   .     A
C334   C338    1.410   .     A
C334   C342    1.446   .     S
C335   C339    1.410   .     A
C335   C344    1.446   .     S
C336   C345    1.446   .     S
C336   C339    1.410   .     A
C337   C338    1.410   .     A
C337   C346    1.446   .     S
C341   C276    1.463   1_655 S
C342   N369    1.157   .     T
C343   H355    1.082   .     S
C343   N367    1.362   .     A
C343   C350    1.409   .     A
C344   N370    1.157   .     T
C345   N371    1.157   .     T
C346   N372    1.157   .     T
C347   N368    1.362   .     A
C347   H359    1.082   .     S
C347   C351    1.409   .     A
C348   N367    1.362   .     A
C348   C352    1.409   .     A
C348   H360    1.082   .     S
C349   N368    1.362   .     A
C349   H361    1.082   .     S
C350   O384    1.382   .     S
C351   O374    1.382   .     S
C352   O375    1.382   .     S
Cu353  O378    1.951   .     S
Cu353  O373    1.951   .     S
Cu353  Cu354   2.672   .     S
Cu353  O380    1.932   .     S
Cu353  N368    2.007   .     S
Cu353  O382    1.932   .     S
Cu354  O377    1.951   .     S
Cu354  O383    1.932   .     S
Cu354  N367    2.007   .     S
Cu354  O379    1.951   .     S
Cu354  O381    1.932   .     S
H356   O502    0.988   1_545 S
H357   O503    0.988   .     S
H358   O504    0.988   1_545 S
H366   O512    0.988   .     S
O374   H484    0.988   .     S
O375   H485    0.988   1_545 S
O376   H486    0.988   .     S
O384   H494    0.988   1_545 S
C385   C402    1.457   .     S
C385   O443    1.289   .     A
C385   O437    1.289   .     A
C386   O440    1.382   .     S
C386   C390    1.425   .     A
C386   C413    1.409   .     A
C387   C391    1.407   .     S
C387   O444    1.285   .     A
C387   O447    1.285   .     A
C388   C392    1.407   .     S
C388   O446    1.285   .     A
C388   O445    1.285   .     A
C389   C416    1.425   .     A
C389   C414    1.425   .     A
C390   C415    1.425   .     A
C390   C261    1.515   1_565 S
C392   C647    1.189   .     S
C393   C398    1.393   .     A
C393   H426    1.085   .     S
C393   C404    1.400   .     A
C394   C399    1.393   .     A
C394   C405    1.400   .     A
C394   H427    1.085   .     S
C395   C400    1.393   .     A
C395   H428    1.085   .     S
C395   C405    1.400   .     A
C396   O442    1.289   .     A
C396   O441    1.289   .     A
C396   C403    1.457   .     S
C397   H429    1.085   .     S
C397   C401    1.393   .     A
C397   C404    1.400   .     A
C398   C402    1.410   .     A
C398   C406    1.446   .     S
C399   C403    1.410   .     A
C399   C408    1.446   .     S
C400   C409    1.446   .     S
C400   C403    1.410   .     A
C401   C402    1.410   .     A
C401   C410    1.446   .     S
C404   C469    1.463   1_455 S
C405   C468    1.463   .     S
C406   N433    1.157   .     T
C407   H419    1.082   .     S
C407   N431    1.362   .     A
C407   C414    1.409   .     A
C408   N434    1.157   .     T
C409   N435    1.157   .     T
C410   N436    1.157   .     T
C411   N432    1.362   .     A
C411   H423    1.082   .     S
C411   C415    1.409   .     A
C412   N431    1.362   .     A
C412   C416    1.409   .     A
C412   H424    1.082   .     S
C413   N432    1.362   .     A
C413   H425    1.082   .     S
C414   O448    1.382   .     S
C415   O438    1.382   .     S
C416   O439    1.382   .     S
Cu417  O442    1.951   .     S
Cu417  O437    1.951   .     S
Cu417  Cu418   2.672   .     S
Cu417  O444    1.932   .     S
Cu417  N432    2.007   .     S
Cu417  O446    1.932   .     S
Cu418  O441    1.951   .     S
Cu418  O447    1.932   .     S
Cu418  N431    2.007   .     S
Cu418  O443    1.951   .     S
Cu418  O445    1.932   .     S
H421   O311    0.988   1_565 S
H430   O320    0.988   1_565 S
O438   H292    0.988   1_565 S
O440   H294    0.988   1_565 S
C449   C466    1.457   .     S
C449   O507    1.289   .     A
C449   O501    1.289   .     A
C450   O504    1.382   .     S
C450   C454    1.425   .     A
C450   C477    1.409   .     A
C451   C455    1.407   .     S
C451   O508    1.285   .     A
C451   O511    1.285   .     A
C452   C456    1.407   .     S
C452   O510    1.285   .     A
C452   O509    1.285   .     A
C453   C480    1.425   .     A
C453   C478    1.425   .     A
C454   C479    1.425   .     A
C454   C325    1.515   1_565 S
C456   C711    1.189   .     S
C457   C462    1.393   .     A
C457   H490    1.085   .     S
C457   C468    1.400   .     A
C458   C463    1.393   .     A
C458   C469    1.400   .     A
C458   H491    1.085   .     S
C459   C464    1.393   .     A
C459   H492    1.085   .     S
C459   C469    1.400   .     A
C460   O506    1.289   .     A
C460   O505    1.289   .     A
C460   C467    1.457   .     S
C461   H493    1.085   .     S
C461   C465    1.393   .     A
C461   C468    1.400   .     A
C462   C466    1.410   .     A
C462   C470    1.446   .     S
C463   C467    1.410   .     A
C463   C472    1.446   .     S
C464   C473    1.446   .     S
C464   C467    1.410   .     A
C465   C466    1.410   .     A
C465   C474    1.446   .     S
C469   C404    1.463   1_655 S
C470   N497    1.157   .     T
C471   H483    1.082   .     S
C471   N495    1.362   .     A
C471   C478    1.409   .     A
C472   N498    1.157   .     T
C473   N499    1.157   .     T
C474   N500    1.157   .     T
C475   N496    1.362   .     A
C475   H487    1.082   .     S
C475   C479    1.409   .     A
C476   N495    1.362   .     A
C476   C480    1.409   .     A
C476   H488    1.082   .     S
C477   N496    1.362   .     A
C477   H489    1.082   .     S
C478   O512    1.382   .     S
C479   O502    1.382   .     S
C480   O503    1.382   .     S
Cu481  O506    1.951   .     S
Cu481  O501    1.951   .     S
Cu481  Cu482   2.672   .     S
Cu481  O508    1.932   .     S
Cu481  N496    2.007   .     S
Cu481  O510    1.932   .     S
Cu482  O505    1.951   .     S
Cu482  O511    1.932   .     S
Cu482  N495    2.007   .     S
Cu482  O507    1.951   .     S
Cu482  O509    1.932   .     S
H485   O375    0.988   1_565 S
H494   O384    0.988   1_565 S
O502   H356    0.988   1_565 S
O504   H358    0.988   1_565 S
C513   C530    1.457   .     S
C513   O571    1.289   .     A
C513   O565    1.289   .     A
C514   O568    1.382   .     S
C514   C518    1.425   .     A
C514   C541    1.409   .     A
C515   C519    1.407   .     S
C515   O572    1.285   .     A
C515   O575    1.285   .     A
C516   C520    1.407   .     S
C516   O574    1.285   .     A
C516   O573    1.285   .     A
C517   C544    1.425   .     A
C517   C542    1.425   .     A
C517   C646    1.515   1_545 S
C518   C543    1.425   .     A
C518   C645    1.515   .     S
C520   C7      1.189   1_556 S
C521   C526    1.393   .     A
C521   H554    1.085   .     S
C521   C532    1.400   .     A
C522   C527    1.393   .     A
C522   C533    1.400   .     A
C522   H555    1.085   .     S
C523   C528    1.393   .     A
C523   H556    1.085   .     S
C523   C533    1.400   .     A
C524   O570    1.289   .     A
C524   O569    1.289   .     A
C524   C531    1.457   .     S
C525   H557    1.085   .     S
C525   C529    1.393   .     A
C525   C532    1.400   .     A
C526   C530    1.410   .     A
C526   C534    1.446   .     S
C527   C531    1.410   .     A
C527   C536    1.446   .     S
C528   C537    1.446   .     S
C528   C531    1.410   .     A
C529   C530    1.410   .     A
C529   C538    1.446   .     S
C532   C597    1.463   1_455 S
C533   C596    1.463   .     S
C534   N561    1.157   .     T
C535   H547    1.082   .     S
C535   N559    1.362   .     A
C535   C542    1.409   .     A
C536   N562    1.157   .     T
C537   N563    1.157   .     T
C538   N564    1.157   .     T
C539   N560    1.362   .     A
C539   H551    1.082   .     S
C539   C543    1.409   .     A
C540   N559    1.362   .     A
C540   C544    1.409   .     A
C540   H552    1.082   .     S
C541   N560    1.362   .     A
C541   H553    1.082   .     S
C542   O576    1.382   .     S
C543   O566    1.382   .     S
C544   O567    1.382   .     S
Cu545  O570    1.951   .     S
Cu545  O565    1.951   .     S
Cu545  Cu546   2.672   .     S
Cu545  O572    1.932   .     S
Cu545  N560    2.007   .     S
Cu545  O574    1.932   .     S
Cu546  O569    1.951   .     S
Cu546  O575    1.932   .     S
Cu546  N559    2.007   .     S
Cu546  O571    1.951   .     S
Cu546  O573    1.932   .     S
H548   O694    0.988   1_545 S
H549   O695    0.988   .     S
H550   O696    0.988   1_545 S
H558   O704    0.988   .     S
O566   H676    0.988   .     S
O567   H677    0.988   1_545 S
O568   H678    0.988   .     S
O576   H686    0.988   1_545 S
C577   C594    1.457   .     S
C577   O635    1.289   .     A
C577   O629    1.289   .     A
C578   O632    1.382   .     S
C578   C582    1.425   .     A
C578   C605    1.409   .     A
C579   C583    1.407   .     S
C579   O636    1.285   .     A
C579   O639    1.285   .     A
C580   C584    1.407   .     S
C580   O638    1.285   .     A
C580   O637    1.285   .     A
C581   C608    1.425   .     A
C581   C606    1.425   .     A
C581   C710    1.515   1_545 S
C582   C607    1.425   .     A
C582   C709    1.515   .     S
C584   C71     1.189   1_556 S
C585   C590    1.393   .     A
C585   H618    1.085   .     S
C585   C596    1.400   .     A
C586   C591    1.393   .     A
C586   C597    1.400   .     A
C586   H619    1.085   .     S
C587   C592    1.393   .     A
C587   H620    1.085   .     S
C587   C597    1.400   .     A
C588   O634    1.289   .     A
C588   O633    1.289   .     A
C588   C595    1.457   .     S
C589   H621    1.085   .     S
C589   C593    1.393   .     A
C589   C596    1.400   .     A
C590   C594    1.410   .     A
C590   C598    1.446   .     S
C591   C595    1.410   .     A
C591   C600    1.446   .     S
C592   C601    1.446   .     S
C592   C595    1.410   .     A
C593   C594    1.410   .     A
C593   C602    1.446   .     S
C597   C532    1.463   1_655 S
C598   N625    1.157   .     T
C599   H611    1.082   .     S
C599   N623    1.362   .     A
C599   C606    1.409   .     A
C600   N626    1.157   .     T
C601   N627    1.157   .     T
C602   N628    1.157   .     T
C603   N624    1.362   .     A
C603   H615    1.082   .     S
C603   C607    1.409   .     A
C604   N623    1.362   .     A
C604   C608    1.409   .     A
C604   H616    1.082   .     S
C605   N624    1.362   .     A
C605   H617    1.082   .     S
C606   O640    1.382   .     S
C607   O630    1.382   .     S
C608   O631    1.382   .     S
Cu609  O634    1.951   .     S
Cu609  O629    1.951   .     S
Cu609  Cu610   2.672   .     S
Cu609  O636    1.932   .     S
Cu609  N624    2.007   .     S
Cu609  O638    1.932   .     S
Cu610  O633    1.951   .     S
Cu610  O639    1.932   .     S
Cu610  N623    2.007   .     S
Cu610  O635    1.951   .     S
Cu610  O637    1.932   .     S
H612   O758    0.988   1_545 S
H613   O759    0.988   .     S
H614   O760    0.988   1_545 S
H622   O768    0.988   .     S
O630   H740    0.988   .     S
O631   H741    0.988   1_545 S
O632   H742    0.988   .     S
O640   H750    0.988   1_545 S
C641   C658    1.457   .     S
C641   O699    1.289   .     A
C641   O693    1.289   .     A
C642   O696    1.382   .     S
C642   C646    1.425   .     A
C642   C669    1.409   .     A
C643   C647    1.407   .     S
C643   O700    1.285   .     A
C643   O703    1.285   .     A
C644   C648    1.407   .     S
C644   O702    1.285   .     A
C644   O701    1.285   .     A
C645   C672    1.425   .     A
C645   C670    1.425   .     A
C646   C671    1.425   .     A
C646   C517    1.515   1_565 S
C648   C135    1.189   1_556 S
C649   C654    1.393   .     A
C649   H682    1.085   .     S
C649   C660    1.400   .     A
C650   C655    1.393   .     A
C650   C661    1.400   .     A
C650   H683    1.085   .     S
C651   C656    1.393   .     A
C651   H684    1.085   .     S
C651   C661    1.400   .     A
C652   O698    1.289   .     A
C652   O697    1.289   .     A
C652   C659    1.457   .     S
C653   H685    1.085   .     S
C653   C657    1.393   .     A
C653   C660    1.400   .     A
C654   C658    1.410   .     A
C654   C662    1.446   .     S
C655   C659    1.410   .     A
C655   C664    1.446   .     S
C656   C665    1.446   .     S
C656   C659    1.410   .     A
C657   C658    1.410   .     A
C657   C666    1.446   .     S
C660   C725    1.463   1_455 S
C661   C724    1.463   .     S
C662   N689    1.157   .     T
C663   H675    1.082   .     S
C663   N687    1.362   .     A
C663   C670    1.409   .     A
C664   N690    1.157   .     T
C665   N691    1.157   .     T
C666   N692    1.157   .     T
C667   N688    1.362   .     A
C667   H679    1.082   .     S
C667   C671    1.409   .     A
C668   N687    1.362   .     A
C668   C672    1.409   .     A
C668   H680    1.082   .     S
C669   N688    1.362   .     A
C669   H681    1.082   .     S
C670   O704    1.382   .     S
C671   O694    1.382   .     S
C672   O695    1.382   .     S
Cu673  O698    1.951   .     S
Cu673  O693    1.951   .     S
Cu673  Cu674   2.672   .     S
Cu673  O700    1.932   .     S
Cu673  N688    2.007   .     S
Cu673  O702    1.932   .     S
Cu674  O697    1.951   .     S
Cu674  O703    1.932   .     S
Cu674  N687    2.007   .     S
Cu674  O699    1.951   .     S
Cu674  O701    1.932   .     S
H677   O567    0.988   1_565 S
H686   O576    0.988   1_565 S
O694   H548    0.988   1_565 S
O696   H550    0.988   1_565 S
C705   C722    1.457   .     S
C705   O763    1.289   .     A
C705   O757    1.289   .     A
C706   O760    1.382   .     S
C706   C710    1.425   .     A
C706   C733    1.409   .     A
C707   C711    1.407   .     S
C707   O764    1.285   .     A
C707   O767    1.285   .     A
C708   C712    1.407   .     S
C708   O766    1.285   .     A
C708   O765    1.285   .     A
C709   C736    1.425   .     A
C709   C734    1.425   .     A
C710   C735    1.425   .     A
C710   C581    1.515   1_565 S
C712   C199    1.189   1_556 S
C713   C718    1.393   .     A
C713   H746    1.085   .     S
C713   C724    1.400   .     A
C714   C719    1.393   .     A
C714   C725    1.400   .     A
C714   H747    1.085   .     S
C715   C720    1.393   .     A
C715   H748    1.085   .     S
C715   C725    1.400   .     A
C716   O762    1.289   .     A
C716   O761    1.289   .     A
C716   C723    1.457   .     S
C717   H749    1.085   .     S
C717   C721    1.393   .     A
C717   C724    1.400   .     A
C718   C722    1.410   .     A
C718   C726    1.446   .     S
C719   C723    1.410   .     A
C719   C728    1.446   .     S
C720   C729    1.446   .     S
C720   C723    1.410   .     A
C721   C722    1.410   .     A
C721   C730    1.446   .     S
C725   C660    1.463   1_655 S
C726   N753    1.157   .     T
C727   H739    1.082   .     S
C727   N751    1.362   .     A
C727   C734    1.409   .     A
C728   N754    1.157   .     T
C729   N755    1.157   .     T
C730   N756    1.157   .     T
C731   N752    1.362   .     A
C731   H743    1.082   .     S
C731   C735    1.409   .     A
C732   N751    1.362   .     A
C732   C736    1.409   .     A
C732   H744    1.082   .     S
C733   N752    1.362   .     A
C733   H745    1.082   .     S
C734   O768    1.382   .     S
C735   O758    1.382   .     S
C736   O759    1.382   .     S
Cu737  O762    1.951   .     S
Cu737  O757    1.951   .     S
Cu737  Cu738   2.672   .     S
Cu737  O764    1.932   .     S
Cu737  N752    2.007   .     S
Cu737  O766    1.932   .     S
Cu738  O761    1.951   .     S
Cu738  O767    1.932   .     S
Cu738  N751    2.007   .     S
Cu738  O763    1.951   .     S
Cu738  O765    1.932   .     S
H741   O631    0.988   1_565 S
H750   O640    0.988   1_565 S
O758   H612    0.988   1_565 S
O760   H614    0.988   1_565 S
