data_str_m2_o1_o10_pcu_sym.155
_audit_creation_date              2020-01-03
_audit_creation_method            'Materials Studio'
_symmetry_space_group_name_H-M    'P1'
_symmetry_Int_Tables_number       1
_symmetry_cell_setting            triclinic
loop_
_symmetry_equiv_pos_as_xyz
  x,y,z
_cell_length_a                    26.4339
_cell_length_b                    32.6384
_cell_length_c                    28.9753
_cell_angle_alpha                 89.6719
_cell_angle_beta                  97.7710
_cell_angle_gamma                 95.1692
loop_
_atom_site_label
_atom_site_type_symbol
_atom_site_fract_x
_atom_site_fract_y
_atom_site_fract_z
_atom_site_U_iso_or_equiv
_atom_site_adp_type
_atom_site_occupancy
C1     C     0.17096   0.08781   0.16746   0.00000  Uiso   1.00
C2     C     0.16237   0.24552   0.16587   0.00000  Uiso   1.00
C3     C     0.06821   0.16635   0.15494   0.00000  Uiso   1.00
C4     C     0.26512   0.16699   0.17840   0.00000  Uiso   1.00
C5     C     0.01308   0.16098   0.14946   0.00000  Uiso   1.00
C6     C     0.32025   0.17236   0.18388   0.00000  Uiso   1.00
C7     C     0.18037   0.02186   0.12783   0.00000  Uiso   1.00
C8     C     0.15297   0.31148   0.20551   0.00000  Uiso   1.00
C9     C     0.16686   0.31302   0.12430   0.00000  Uiso   1.00
C10    C     0.16647   0.02032   0.20904   0.00000  Uiso   1.00
C11    C     0.15834   0.29028   0.16457   0.00000  Uiso   1.00
C12    C     0.17500   0.04306   0.16877   0.00000  Uiso   1.00
C13    C     0.13273   0.13979   0.02028   0.00000  Uiso   1.00
C14    C     0.20060   0.19354   0.31306   0.00000  Uiso   1.00
C15    C     0.13232   0.14077   0.30413   0.00000  Uiso   1.00
C16    C     0.20101   0.19256   0.02920   0.00000  Uiso   1.00
Cu17   Cu    0.16667   0.16667   0.21355   0.00000  Uiso   1.00
Cu18   Cu    0.16667   0.16666   0.11978   0.00000  Uiso   1.00
N19    N     0.16668   0.16668   0.28403   0.00000  Uiso   1.00
N20    N     0.16665   0.16666   0.04931   0.00000  Uiso   1.00
O21    O     0.16666   0.10655   0.20625   0.00000  Uiso   1.00
O22    O     0.16667   0.22678   0.12709   0.00000  Uiso   1.00
O23    O     0.16666   0.10654   0.12706   0.00000  Uiso   1.00
O24    O     0.16667   0.22679   0.20628   0.00000  Uiso   1.00
O25    O     0.09161   0.16667   0.19712   0.00000  Uiso   1.00
O26    O     0.24172   0.16666   0.13621   0.00000  Uiso   1.00
O27    O     0.09161   0.16666   0.11793   0.00000  Uiso   1.00
O28    O     0.24172   0.16667   0.21540   0.00000  Uiso   1.00
Br29   Br    0.31605   0.13008   0.09424   0.00000  Uiso   1.00
Br30   Br    0.01728   0.20325   0.23909   0.00000  Uiso   1.00
Br31   Br    0.21685   0.04740   0.08024   0.00000  Uiso   1.00
Br32   Br    0.11650   0.28594   0.25310   0.00000  Uiso   1.00
Br33   Br    0.14836   0.29046   0.06227   0.00000  Uiso   1.00
Br34   Br    0.18498   0.04287   0.27106   0.00000  Uiso   1.00
C35    C     0.09261   0.10983   0.03907   0.00000  Uiso   1.00
C36    C     0.09703   0.06416   0.02942   0.00000  Uiso   1.00
H37    H     0.06273   0.05082   0.00616   0.00000  Uiso   1.00
H38    H     0.13154   0.05973   0.01306   0.00000  Uiso   1.00
H39    H     0.09873   0.04628   0.06223   0.00000  Uiso   1.00
H40    H     0.09339   0.11166   0.07635   0.00000  Uiso   1.00
H41    H     0.05394   0.11803   0.02401   0.00000  Uiso   1.00
C42    C     0.24073   0.22350   0.29427   0.00000  Uiso   1.00
C43    C     0.23632   0.26918   0.30392   0.00000  Uiso   1.00
H44    H     0.20181   0.27361   0.32028   0.00000  Uiso   1.00
H45    H     0.27062   0.28251   0.32718   0.00000  Uiso   1.00
H46    H     0.23461   0.28706   0.27111   0.00000  Uiso   1.00
H47    H     0.27939   0.21529   0.30931   0.00000  Uiso   1.00
H48    H     0.23994   0.22168   0.25698   0.00000  Uiso   1.00
Br49   Br    0.08110   0.10585   0.26485   0.00000  Uiso   1.00
Br50   Br    0.25223   0.22748   0.06848   0.00000  Uiso   1.00
C51    C     0.50430   0.08781   0.16746   0.00000  Uiso   1.00
C52    C     0.49570   0.24552   0.16587   0.00000  Uiso   1.00
C53    C     0.40155   0.16635   0.15494   0.00000  Uiso   1.00
C54    C     0.59845   0.16699   0.17840   0.00000  Uiso   1.00
C55    C     0.34641   0.16098   0.14946   0.00000  Uiso   1.00
C56    C     0.65358   0.17236   0.18388   0.00000  Uiso   1.00
C57    C     0.51370   0.02186   0.12783   0.00000  Uiso   1.00
C58    C     0.48630   0.31148   0.20551   0.00000  Uiso   1.00
C59    C     0.50020   0.31302   0.12430   0.00000  Uiso   1.00
C60    C     0.49981   0.02032   0.20904   0.00000  Uiso   1.00
C61    C     0.49167   0.29028   0.16457   0.00000  Uiso   1.00
C62    C     0.50833   0.04306   0.16877   0.00000  Uiso   1.00
C63    C     0.46606   0.13979   0.02028   0.00000  Uiso   1.00
C64    C     0.53394   0.19354   0.31306   0.00000  Uiso   1.00
C65    C     0.46565   0.14077   0.30413   0.00000  Uiso   1.00
C66    C     0.53435   0.19256   0.02920   0.00000  Uiso   1.00
Cu67   Cu    0.50000   0.16667   0.21355   0.00000  Uiso   1.00
Cu68   Cu    0.50000   0.16666   0.11978   0.00000  Uiso   1.00
N69    N     0.50001   0.16668   0.28403   0.00000  Uiso   1.00
N70    N     0.49999   0.16666   0.04931   0.00000  Uiso   1.00
O71    O     0.50000   0.10655   0.20625   0.00000  Uiso   1.00
O72    O     0.50000   0.22678   0.12709   0.00000  Uiso   1.00
O73    O     0.50000   0.10654   0.12706   0.00000  Uiso   1.00
O74    O     0.50000   0.22679   0.20628   0.00000  Uiso   1.00
O75    O     0.42495   0.16667   0.19712   0.00000  Uiso   1.00
O76    O     0.57505   0.16666   0.13621   0.00000  Uiso   1.00
O77    O     0.42494   0.16666   0.11793   0.00000  Uiso   1.00
O78    O     0.57506   0.16667   0.21540   0.00000  Uiso   1.00
Br79   Br    0.64938   0.13008   0.09424   0.00000  Uiso   1.00
Br80   Br    0.35062   0.20325   0.23909   0.00000  Uiso   1.00
Br81   Br    0.55018   0.04740   0.08024   0.00000  Uiso   1.00
Br82   Br    0.44983   0.28594   0.25310   0.00000  Uiso   1.00
Br83   Br    0.48169   0.29046   0.06227   0.00000  Uiso   1.00
Br84   Br    0.51831   0.04287   0.27106   0.00000  Uiso   1.00
C85    C     0.42594   0.10983   0.03907   0.00000  Uiso   1.00
C86    C     0.43036   0.06416   0.02942   0.00000  Uiso   1.00
H87    H     0.39606   0.05082   0.00616   0.00000  Uiso   1.00
H88    H     0.46487   0.05973   0.01306   0.00000  Uiso   1.00
H89    H     0.43207   0.04628   0.06223   0.00000  Uiso   1.00
H90    H     0.42672   0.11166   0.07635   0.00000  Uiso   1.00
H91    H     0.38727   0.11803   0.02401   0.00000  Uiso   1.00
C92    C     0.57406   0.22350   0.29427   0.00000  Uiso   1.00
C93    C     0.56965   0.26918   0.30392   0.00000  Uiso   1.00
H94    H     0.53515   0.27361   0.32028   0.00000  Uiso   1.00
H95    H     0.60396   0.28251   0.32718   0.00000  Uiso   1.00
H96    H     0.56795   0.28706   0.27111   0.00000  Uiso   1.00
H97    H     0.61273   0.21529   0.30931   0.00000  Uiso   1.00
H98    H     0.57327   0.22168   0.25698   0.00000  Uiso   1.00
Br99   Br    0.41443   0.10585   0.26485   0.00000  Uiso   1.00
Br100  Br    0.58557   0.22748   0.06848   0.00000  Uiso   1.00
C101   C     0.83763   0.08781   0.16746   0.00000  Uiso   1.00
C102   C     0.82904   0.24552   0.16587   0.00000  Uiso   1.00
C103   C     0.73488   0.16635   0.15494   0.00000  Uiso   1.00
C104   C     0.93179   0.16699   0.17840   0.00000  Uiso   1.00
C105   C     0.67975   0.16098   0.14946   0.00000  Uiso   1.00
C106   C     0.98692   0.17236   0.18388   0.00000  Uiso   1.00
C107   C     0.84704   0.02186   0.12783   0.00000  Uiso   1.00
C108   C     0.81964   0.31148   0.20551   0.00000  Uiso   1.00
C109   C     0.83353   0.31302   0.12430   0.00000  Uiso   1.00
C110   C     0.83314   0.02032   0.20904   0.00000  Uiso   1.00
C111   C     0.82501   0.29028   0.16457   0.00000  Uiso   1.00
C112   C     0.84166   0.04306   0.16877   0.00000  Uiso   1.00
C113   C     0.79939   0.13979   0.02028   0.00000  Uiso   1.00
C114   C     0.86727   0.19354   0.31306   0.00000  Uiso   1.00
C115   C     0.79899   0.14077   0.30413   0.00000  Uiso   1.00
C116   C     0.86768   0.19256   0.02920   0.00000  Uiso   1.00
Cu117  Cu    0.83333   0.16667   0.21355   0.00000  Uiso   1.00
Cu118  Cu    0.83333   0.16666   0.11978   0.00000  Uiso   1.00
N119   N     0.83335   0.16668   0.28403   0.00000  Uiso   1.00
N120   N     0.83332   0.16666   0.04931   0.00000  Uiso   1.00
O121   O     0.83333   0.10655   0.20625   0.00000  Uiso   1.00
O122   O     0.83334   0.22678   0.12709   0.00000  Uiso   1.00
O123   O     0.83333   0.10654   0.12706   0.00000  Uiso   1.00
O124   O     0.83334   0.22679   0.20628   0.00000  Uiso   1.00
O125   O     0.75828   0.16667   0.19712   0.00000  Uiso   1.00
O126   O     0.90839   0.16666   0.13621   0.00000  Uiso   1.00
O127   O     0.75828   0.16666   0.11793   0.00000  Uiso   1.00
O128   O     0.90839   0.16667   0.21540   0.00000  Uiso   1.00
Br129  Br    0.98272   0.13008   0.09424   0.00000  Uiso   1.00
Br130  Br    0.68395   0.20325   0.23909   0.00000  Uiso   1.00
Br131  Br    0.88351   0.04740   0.08024   0.00000  Uiso   1.00
Br132  Br    0.78316   0.28594   0.25310   0.00000  Uiso   1.00
Br133  Br    0.81503   0.29046   0.06227   0.00000  Uiso   1.00
Br134  Br    0.85164   0.04287   0.27106   0.00000  Uiso   1.00
C135   C     0.75928   0.10983   0.03907   0.00000  Uiso   1.00
C136   C     0.76370   0.06416   0.02942   0.00000  Uiso   1.00
H137   H     0.72940   0.05082   0.00616   0.00000  Uiso   1.00
H138   H     0.79820   0.05973   0.01306   0.00000  Uiso   1.00
H139   H     0.76540   0.04628   0.06223   0.00000  Uiso   1.00
H140   H     0.76006   0.11166   0.07635   0.00000  Uiso   1.00
H141   H     0.72061   0.11803   0.02401   0.00000  Uiso   1.00
C142   C     0.90739   0.22350   0.29427   0.00000  Uiso   1.00
C143   C     0.90298   0.26918   0.30392   0.00000  Uiso   1.00
H144   H     0.86848   0.27361   0.32028   0.00000  Uiso   1.00
H145   H     0.93729   0.28251   0.32718   0.00000  Uiso   1.00
H146   H     0.90128   0.28706   0.27111   0.00000  Uiso   1.00
H147   H     0.94606   0.21529   0.30931   0.00000  Uiso   1.00
H148   H     0.90661   0.22168   0.25698   0.00000  Uiso   1.00
Br149  Br    0.74777   0.10585   0.26485   0.00000  Uiso   1.00
Br150  Br    0.91890   0.22748   0.06848   0.00000  Uiso   1.00
C151   C     0.17096   0.42114   0.16746   0.00000  Uiso   1.00
C152   C     0.16237   0.57886   0.16587   0.00000  Uiso   1.00
C153   C     0.06821   0.49968   0.15494   0.00000  Uiso   1.00
C154   C     0.26512   0.50032   0.17840   0.00000  Uiso   1.00
C155   C     0.01308   0.49431   0.14946   0.00000  Uiso   1.00
C156   C     0.32025   0.50569   0.18388   0.00000  Uiso   1.00
C157   C     0.18037   0.35519   0.12783   0.00000  Uiso   1.00
C158   C     0.15297   0.64481   0.20551   0.00000  Uiso   1.00
C159   C     0.16686   0.64635   0.12430   0.00000  Uiso   1.00
C160   C     0.16647   0.35365   0.20904   0.00000  Uiso   1.00
C161   C     0.15834   0.62361   0.16457   0.00000  Uiso   1.00
C162   C     0.17500   0.37639   0.16877   0.00000  Uiso   1.00
C163   C     0.13273   0.47312   0.02028   0.00000  Uiso   1.00
C164   C     0.20060   0.52688   0.31306   0.00000  Uiso   1.00
C165   C     0.13232   0.47411   0.30413   0.00000  Uiso   1.00
C166   C     0.20101   0.52589   0.02920   0.00000  Uiso   1.00
Cu167  Cu    0.16667   0.50001   0.21355   0.00000  Uiso   1.00
Cu168  Cu    0.16667   0.49999   0.11978   0.00000  Uiso   1.00
N169   N     0.16668   0.50001   0.28403   0.00000  Uiso   1.00
N170   N     0.16665   0.49999   0.04931   0.00000  Uiso   1.00
O171   O     0.16666   0.43989   0.20625   0.00000  Uiso   1.00
O172   O     0.16667   0.56011   0.12709   0.00000  Uiso   1.00
O173   O     0.16666   0.43988   0.12706   0.00000  Uiso   1.00
O174   O     0.16667   0.56012   0.20628   0.00000  Uiso   1.00
O175   O     0.09161   0.50000   0.19712   0.00000  Uiso   1.00
O176   O     0.24172   0.50000   0.13621   0.00000  Uiso   1.00
O177   O     0.09161   0.49999   0.11793   0.00000  Uiso   1.00
O178   O     0.24172   0.50001   0.21540   0.00000  Uiso   1.00
Br179  Br    0.31605   0.46341   0.09424   0.00000  Uiso   1.00
Br180  Br    0.01728   0.53659   0.23909   0.00000  Uiso   1.00
Br181  Br    0.21685   0.38073   0.08024   0.00000  Uiso   1.00
Br182  Br    0.11650   0.61927   0.25310   0.00000  Uiso   1.00
Br183  Br    0.14836   0.62380   0.06227   0.00000  Uiso   1.00
Br184  Br    0.18498   0.37620   0.27106   0.00000  Uiso   1.00
C185   C     0.09261   0.44316   0.03907   0.00000  Uiso   1.00
C186   C     0.09703   0.39749   0.02942   0.00000  Uiso   1.00
H187   H     0.06273   0.38415   0.00616   0.00000  Uiso   1.00
H188   H     0.13154   0.39306   0.01306   0.00000  Uiso   1.00
H189   H     0.09873   0.37961   0.06223   0.00000  Uiso   1.00
H190   H     0.09339   0.44499   0.07635   0.00000  Uiso   1.00
H191   H     0.05394   0.45136   0.02401   0.00000  Uiso   1.00
C192   C     0.24073   0.55683   0.29427   0.00000  Uiso   1.00
C193   C     0.23632   0.60251   0.30392   0.00000  Uiso   1.00
H194   H     0.20181   0.60694   0.32028   0.00000  Uiso   1.00
H195   H     0.27062   0.61584   0.32718   0.00000  Uiso   1.00
H196   H     0.23461   0.62039   0.27111   0.00000  Uiso   1.00
H197   H     0.27939   0.54863   0.30931   0.00000  Uiso   1.00
H198   H     0.23994   0.55501   0.25698   0.00000  Uiso   1.00
Br199  Br    0.08110   0.43919   0.26485   0.00000  Uiso   1.00
Br200  Br    0.25223   0.56081   0.06848   0.00000  Uiso   1.00
C201   C     0.50430   0.42114   0.16746   0.00000  Uiso   1.00
C202   C     0.49570   0.57886   0.16587   0.00000  Uiso   1.00
C203   C     0.40155   0.49968   0.15494   0.00000  Uiso   1.00
C204   C     0.59845   0.50032   0.17840   0.00000  Uiso   1.00
C205   C     0.34641   0.49431   0.14946   0.00000  Uiso   1.00
C206   C     0.65358   0.50569   0.18388   0.00000  Uiso   1.00
C207   C     0.51370   0.35519   0.12783   0.00000  Uiso   1.00
C208   C     0.48630   0.64481   0.20551   0.00000  Uiso   1.00
C209   C     0.50020   0.64635   0.12430   0.00000  Uiso   1.00
C210   C     0.49981   0.35365   0.20904   0.00000  Uiso   1.00
C211   C     0.49167   0.62361   0.16457   0.00000  Uiso   1.00
C212   C     0.50833   0.37639   0.16877   0.00000  Uiso   1.00
C213   C     0.46606   0.47312   0.02028   0.00000  Uiso   1.00
C214   C     0.53394   0.52688   0.31306   0.00000  Uiso   1.00
C215   C     0.46565   0.47411   0.30413   0.00000  Uiso   1.00
C216   C     0.53435   0.52589   0.02920   0.00000  Uiso   1.00
Cu217  Cu    0.50000   0.50001   0.21355   0.00000  Uiso   1.00
Cu218  Cu    0.50000   0.49999   0.11978   0.00000  Uiso   1.00
N219   N     0.50001   0.50001   0.28403   0.00000  Uiso   1.00
N220   N     0.49999   0.49999   0.04931   0.00000  Uiso   1.00
O221   O     0.50000   0.43989   0.20625   0.00000  Uiso   1.00
O222   O     0.50000   0.56011   0.12709   0.00000  Uiso   1.00
O223   O     0.50000   0.43988   0.12706   0.00000  Uiso   1.00
O224   O     0.50000   0.56012   0.20628   0.00000  Uiso   1.00
O225   O     0.42495   0.50000   0.19712   0.00000  Uiso   1.00
O226   O     0.57505   0.50000   0.13621   0.00000  Uiso   1.00
O227   O     0.42494   0.49999   0.11793   0.00000  Uiso   1.00
O228   O     0.57506   0.50001   0.21540   0.00000  Uiso   1.00
Br229  Br    0.64938   0.46341   0.09424   0.00000  Uiso   1.00
Br230  Br    0.35062   0.53659   0.23909   0.00000  Uiso   1.00
Br231  Br    0.55018   0.38073   0.08024   0.00000  Uiso   1.00
Br232  Br    0.44983   0.61927   0.25310   0.00000  Uiso   1.00
Br233  Br    0.48169   0.62380   0.06227   0.00000  Uiso   1.00
Br234  Br    0.51831   0.37620   0.27106   0.00000  Uiso   1.00
C235   C     0.42594   0.44316   0.03907   0.00000  Uiso   1.00
C236   C     0.43036   0.39749   0.02942   0.00000  Uiso   1.00
H237   H     0.39606   0.38415   0.00616   0.00000  Uiso   1.00
H238   H     0.46487   0.39306   0.01306   0.00000  Uiso   1.00
H239   H     0.43207   0.37961   0.06223   0.00000  Uiso   1.00
H240   H     0.42672   0.44499   0.07635   0.00000  Uiso   1.00
H241   H     0.38727   0.45136   0.02401   0.00000  Uiso   1.00
C242   C     0.57406   0.55683   0.29427   0.00000  Uiso   1.00
C243   C     0.56965   0.60251   0.30392   0.00000  Uiso   1.00
H244   H     0.53515   0.60694   0.32028   0.00000  Uiso   1.00
H245   H     0.60396   0.61584   0.32718   0.00000  Uiso   1.00
H246   H     0.56795   0.62039   0.27111   0.00000  Uiso   1.00
H247   H     0.61273   0.54863   0.30931   0.00000  Uiso   1.00
H248   H     0.57327   0.55501   0.25698   0.00000  Uiso   1.00
Br249  Br    0.41443   0.43919   0.26485   0.00000  Uiso   1.00
Br250  Br    0.58557   0.56081   0.06848   0.00000  Uiso   1.00
C251   C     0.83763   0.42114   0.16746   0.00000  Uiso   1.00
C252   C     0.82904   0.57886   0.16587   0.00000  Uiso   1.00
C253   C     0.73488   0.49968   0.15494   0.00000  Uiso   1.00
C254   C     0.93179   0.50032   0.17840   0.00000  Uiso   1.00
C255   C     0.67975   0.49431   0.14946   0.00000  Uiso   1.00
C256   C     0.98692   0.50569   0.18388   0.00000  Uiso   1.00
C257   C     0.84704   0.35519   0.12783   0.00000  Uiso   1.00
C258   C     0.81964   0.64481   0.20551   0.00000  Uiso   1.00
C259   C     0.83353   0.64635   0.12430   0.00000  Uiso   1.00
C260   C     0.83314   0.35365   0.20904   0.00000  Uiso   1.00
C261   C     0.82501   0.62361   0.16457   0.00000  Uiso   1.00
C262   C     0.84166   0.37639   0.16877   0.00000  Uiso   1.00
C263   C     0.79939   0.47312   0.02028   0.00000  Uiso   1.00
C264   C     0.86727   0.52688   0.31306   0.00000  Uiso   1.00
C265   C     0.79899   0.47411   0.30413   0.00000  Uiso   1.00
C266   C     0.86768   0.52589   0.02920   0.00000  Uiso   1.00
Cu267  Cu    0.83333   0.50001   0.21355   0.00000  Uiso   1.00
Cu268  Cu    0.83333   0.49999   0.11978   0.00000  Uiso   1.00
N269   N     0.83335   0.50001   0.28403   0.00000  Uiso   1.00
N270   N     0.83332   0.49999   0.04931   0.00000  Uiso   1.00
O271   O     0.83333   0.43989   0.20625   0.00000  Uiso   1.00
O272   O     0.83334   0.56011   0.12709   0.00000  Uiso   1.00
O273   O     0.83333   0.43988   0.12706   0.00000  Uiso   1.00
O274   O     0.83334   0.56012   0.20628   0.00000  Uiso   1.00
O275   O     0.75828   0.50000   0.19712   0.00000  Uiso   1.00
O276   O     0.90839   0.50000   0.13621   0.00000  Uiso   1.00
O277   O     0.75828   0.49999   0.11793   0.00000  Uiso   1.00
O278   O     0.90839   0.50001   0.21540   0.00000  Uiso   1.00
Br279  Br    0.98272   0.46341   0.09424   0.00000  Uiso   1.00
Br280  Br    0.68395   0.53659   0.23909   0.00000  Uiso   1.00
Br281  Br    0.88351   0.38073   0.08024   0.00000  Uiso   1.00
Br282  Br    0.78316   0.61927   0.25310   0.00000  Uiso   1.00
Br283  Br    0.81503   0.62380   0.06227   0.00000  Uiso   1.00
Br284  Br    0.85164   0.37620   0.27106   0.00000  Uiso   1.00
C285   C     0.75928   0.44316   0.03907   0.00000  Uiso   1.00
C286   C     0.76370   0.39749   0.02942   0.00000  Uiso   1.00
H287   H     0.72940   0.38415   0.00616   0.00000  Uiso   1.00
H288   H     0.79820   0.39306   0.01306   0.00000  Uiso   1.00
H289   H     0.76540   0.37961   0.06223   0.00000  Uiso   1.00
H290   H     0.76006   0.44499   0.07635   0.00000  Uiso   1.00
H291   H     0.72061   0.45136   0.02401   0.00000  Uiso   1.00
C292   C     0.90739   0.55683   0.29427   0.00000  Uiso   1.00
C293   C     0.90298   0.60251   0.30392   0.00000  Uiso   1.00
H294   H     0.86848   0.60694   0.32028   0.00000  Uiso   1.00
H295   H     0.93729   0.61584   0.32718   0.00000  Uiso   1.00
H296   H     0.90128   0.62039   0.27111   0.00000  Uiso   1.00
H297   H     0.94606   0.54863   0.30931   0.00000  Uiso   1.00
H298   H     0.90661   0.55501   0.25698   0.00000  Uiso   1.00
Br299  Br    0.74777   0.43919   0.26485   0.00000  Uiso   1.00
Br300  Br    0.91890   0.56081   0.06848   0.00000  Uiso   1.00
C301   C     0.17096   0.75448   0.16746   0.00000  Uiso   1.00
C302   C     0.16237   0.91219   0.16587   0.00000  Uiso   1.00
C303   C     0.06821   0.83301   0.15494   0.00000  Uiso   1.00
C304   C     0.26512   0.83365   0.17840   0.00000  Uiso   1.00
C305   C     0.01308   0.82764   0.14946   0.00000  Uiso   1.00
C306   C     0.32025   0.83902   0.18388   0.00000  Uiso   1.00
C307   C     0.18037   0.68853   0.12783   0.00000  Uiso   1.00
C308   C     0.15297   0.97814   0.20551   0.00000  Uiso   1.00
C309   C     0.16686   0.97969   0.12430   0.00000  Uiso   1.00
C310   C     0.16647   0.68698   0.20904   0.00000  Uiso   1.00
C311   C     0.15834   0.95694   0.16457   0.00000  Uiso   1.00
C312   C     0.17500   0.70972   0.16877   0.00000  Uiso   1.00
C313   C     0.13273   0.80646   0.02028   0.00000  Uiso   1.00
C314   C     0.20060   0.86021   0.31306   0.00000  Uiso   1.00
C315   C     0.13232   0.80744   0.30413   0.00000  Uiso   1.00
C316   C     0.20101   0.85923   0.02920   0.00000  Uiso   1.00
Cu317  Cu    0.16667   0.83334   0.21355   0.00000  Uiso   1.00
Cu318  Cu    0.16667   0.83333   0.11978   0.00000  Uiso   1.00
N319   N     0.16668   0.83334   0.28403   0.00000  Uiso   1.00
N320   N     0.16665   0.83332   0.04931   0.00000  Uiso   1.00
O321   O     0.16666   0.77322   0.20625   0.00000  Uiso   1.00
O322   O     0.16667   0.89345   0.12709   0.00000  Uiso   1.00
O323   O     0.16666   0.77321   0.12706   0.00000  Uiso   1.00
O324   O     0.16667   0.89346   0.20628   0.00000  Uiso   1.00
O325   O     0.09161   0.83334   0.19712   0.00000  Uiso   1.00
O326   O     0.24172   0.83333   0.13621   0.00000  Uiso   1.00
O327   O     0.09161   0.83333   0.11793   0.00000  Uiso   1.00
O328   O     0.24172   0.83334   0.21540   0.00000  Uiso   1.00
Br329  Br    0.31605   0.79675   0.09424   0.00000  Uiso   1.00
Br330  Br    0.01728   0.86992   0.23909   0.00000  Uiso   1.00
Br331  Br    0.21685   0.71406   0.08024   0.00000  Uiso   1.00
Br332  Br    0.11650   0.95260   0.25310   0.00000  Uiso   1.00
Br333  Br    0.14836   0.95713   0.06227   0.00000  Uiso   1.00
Br334  Br    0.18498   0.70954   0.27106   0.00000  Uiso   1.00
C335   C     0.09261   0.77650   0.03907   0.00000  Uiso   1.00
C336   C     0.09703   0.73082   0.02942   0.00000  Uiso   1.00
H337   H     0.06273   0.71749   0.00616   0.00000  Uiso   1.00
H338   H     0.13154   0.72640   0.01306   0.00000  Uiso   1.00
H339   H     0.09873   0.71294   0.06223   0.00000  Uiso   1.00
H340   H     0.09339   0.77832   0.07635   0.00000  Uiso   1.00
H341   H     0.05394   0.78470   0.02401   0.00000  Uiso   1.00
C342   C     0.24073   0.89017   0.29427   0.00000  Uiso   1.00
C343   C     0.23632   0.93584   0.30392   0.00000  Uiso   1.00
H344   H     0.20181   0.94027   0.32028   0.00000  Uiso   1.00
H345   H     0.27062   0.94918   0.32718   0.00000  Uiso   1.00
H346   H     0.23461   0.95373   0.27111   0.00000  Uiso   1.00
H347   H     0.27939   0.88196   0.30931   0.00000  Uiso   1.00
H348   H     0.23994   0.88834   0.25698   0.00000  Uiso   1.00
Br349  Br    0.08110   0.77252   0.26485   0.00000  Uiso   1.00
Br350  Br    0.25223   0.89415   0.06848   0.00000  Uiso   1.00
C351   C     0.50430   0.75448   0.16746   0.00000  Uiso   1.00
C352   C     0.49570   0.91219   0.16587   0.00000  Uiso   1.00
C353   C     0.40155   0.83301   0.15494   0.00000  Uiso   1.00
C354   C     0.59845   0.83365   0.17840   0.00000  Uiso   1.00
C355   C     0.34641   0.82764   0.14946   0.00000  Uiso   1.00
C356   C     0.65358   0.83902   0.18388   0.00000  Uiso   1.00
C357   C     0.51370   0.68853   0.12783   0.00000  Uiso   1.00
C358   C     0.48630   0.97814   0.20551   0.00000  Uiso   1.00
C359   C     0.50020   0.97969   0.12430   0.00000  Uiso   1.00
C360   C     0.49981   0.68698   0.20904   0.00000  Uiso   1.00
C361   C     0.49167   0.95694   0.16457   0.00000  Uiso   1.00
C362   C     0.50833   0.70972   0.16877   0.00000  Uiso   1.00
C363   C     0.46606   0.80646   0.02028   0.00000  Uiso   1.00
C364   C     0.53394   0.86021   0.31306   0.00000  Uiso   1.00
C365   C     0.46565   0.80744   0.30413   0.00000  Uiso   1.00
C366   C     0.53435   0.85923   0.02920   0.00000  Uiso   1.00
Cu367  Cu    0.50000   0.83334   0.21355   0.00000  Uiso   1.00
Cu368  Cu    0.50000   0.83333   0.11978   0.00000  Uiso   1.00
N369   N     0.50001   0.83334   0.28403   0.00000  Uiso   1.00
N370   N     0.49999   0.83332   0.04931   0.00000  Uiso   1.00
O371   O     0.50000   0.77322   0.20625   0.00000  Uiso   1.00
O372   O     0.50000   0.89345   0.12709   0.00000  Uiso   1.00
O373   O     0.50000   0.77321   0.12706   0.00000  Uiso   1.00
O374   O     0.50000   0.89346   0.20628   0.00000  Uiso   1.00
O375   O     0.42495   0.83334   0.19712   0.00000  Uiso   1.00
O376   O     0.57505   0.83333   0.13621   0.00000  Uiso   1.00
O377   O     0.42494   0.83333   0.11793   0.00000  Uiso   1.00
O378   O     0.57506   0.83334   0.21540   0.00000  Uiso   1.00
Br379  Br    0.64938   0.79675   0.09424   0.00000  Uiso   1.00
Br380  Br    0.35062   0.86992   0.23909   0.00000  Uiso   1.00
Br381  Br    0.55018   0.71406   0.08024   0.00000  Uiso   1.00
Br382  Br    0.44983   0.95260   0.25310   0.00000  Uiso   1.00
Br383  Br    0.48169   0.95713   0.06227   0.00000  Uiso   1.00
Br384  Br    0.51831   0.70954   0.27106   0.00000  Uiso   1.00
C385   C     0.42594   0.77650   0.03907   0.00000  Uiso   1.00
C386   C     0.43036   0.73082   0.02942   0.00000  Uiso   1.00
H387   H     0.39606   0.71749   0.00616   0.00000  Uiso   1.00
H388   H     0.46487   0.72640   0.01306   0.00000  Uiso   1.00
H389   H     0.43207   0.71294   0.06223   0.00000  Uiso   1.00
H390   H     0.42672   0.77832   0.07635   0.00000  Uiso   1.00
H391   H     0.38727   0.78470   0.02401   0.00000  Uiso   1.00
C392   C     0.57406   0.89017   0.29427   0.00000  Uiso   1.00
C393   C     0.56965   0.93584   0.30392   0.00000  Uiso   1.00
H394   H     0.53515   0.94027   0.32028   0.00000  Uiso   1.00
H395   H     0.60396   0.94918   0.32718   0.00000  Uiso   1.00
H396   H     0.56795   0.95373   0.27111   0.00000  Uiso   1.00
H397   H     0.61273   0.88196   0.30931   0.00000  Uiso   1.00
H398   H     0.57327   0.88834   0.25698   0.00000  Uiso   1.00
Br399  Br    0.41443   0.77252   0.26485   0.00000  Uiso   1.00
Br400  Br    0.58557   0.89415   0.06848   0.00000  Uiso   1.00
C401   C     0.83763   0.75448   0.16746   0.00000  Uiso   1.00
C402   C     0.82904   0.91219   0.16587   0.00000  Uiso   1.00
C403   C     0.73488   0.83301   0.15494   0.00000  Uiso   1.00
C404   C     0.93179   0.83365   0.17840   0.00000  Uiso   1.00
C405   C     0.67975   0.82764   0.14946   0.00000  Uiso   1.00
C406   C     0.98692   0.83902   0.18388   0.00000  Uiso   1.00
C407   C     0.84704   0.68853   0.12783   0.00000  Uiso   1.00
C408   C     0.81964   0.97814   0.20551   0.00000  Uiso   1.00
C409   C     0.83353   0.97969   0.12430   0.00000  Uiso   1.00
C410   C     0.83314   0.68698   0.20904   0.00000  Uiso   1.00
C411   C     0.82501   0.95694   0.16457   0.00000  Uiso   1.00
C412   C     0.84166   0.70972   0.16877   0.00000  Uiso   1.00
C413   C     0.79939   0.80646   0.02028   0.00000  Uiso   1.00
C414   C     0.86727   0.86021   0.31306   0.00000  Uiso   1.00
C415   C     0.79899   0.80744   0.30413   0.00000  Uiso   1.00
C416   C     0.86768   0.85923   0.02920   0.00000  Uiso   1.00
Cu417  Cu    0.83333   0.83334   0.21355   0.00000  Uiso   1.00
Cu418  Cu    0.83333   0.83333   0.11978   0.00000  Uiso   1.00
N419   N     0.83335   0.83334   0.28403   0.00000  Uiso   1.00
N420   N     0.83332   0.83332   0.04931   0.00000  Uiso   1.00
O421   O     0.83333   0.77322   0.20625   0.00000  Uiso   1.00
O422   O     0.83334   0.89345   0.12709   0.00000  Uiso   1.00
O423   O     0.83333   0.77321   0.12706   0.00000  Uiso   1.00
O424   O     0.83334   0.89346   0.20628   0.00000  Uiso   1.00
O425   O     0.75828   0.83334   0.19712   0.00000  Uiso   1.00
O426   O     0.90839   0.83333   0.13621   0.00000  Uiso   1.00
O427   O     0.75828   0.83333   0.11793   0.00000  Uiso   1.00
O428   O     0.90839   0.83334   0.21540   0.00000  Uiso   1.00
Br429  Br    0.98272   0.79675   0.09424   0.00000  Uiso   1.00
Br430  Br    0.68395   0.86992   0.23909   0.00000  Uiso   1.00
Br431  Br    0.88351   0.71406   0.08024   0.00000  Uiso   1.00
Br432  Br    0.78316   0.95260   0.25310   0.00000  Uiso   1.00
Br433  Br    0.81503   0.95713   0.06227   0.00000  Uiso   1.00
Br434  Br    0.85164   0.70954   0.27106   0.00000  Uiso   1.00
C435   C     0.75928   0.77650   0.03907   0.00000  Uiso   1.00
C436   C     0.76370   0.73082   0.02942   0.00000  Uiso   1.00
H437   H     0.72940   0.71749   0.00616   0.00000  Uiso   1.00
H438   H     0.79820   0.72640   0.01306   0.00000  Uiso   1.00
H439   H     0.76540   0.71294   0.06223   0.00000  Uiso   1.00
H440   H     0.76006   0.77832   0.07635   0.00000  Uiso   1.00
H441   H     0.72061   0.78470   0.02401   0.00000  Uiso   1.00
C442   C     0.90739   0.89017   0.29427   0.00000  Uiso   1.00
C443   C     0.90298   0.93584   0.30392   0.00000  Uiso   1.00
H444   H     0.86848   0.94027   0.32028   0.00000  Uiso   1.00
H445   H     0.93729   0.94918   0.32718   0.00000  Uiso   1.00
H446   H     0.90128   0.95373   0.27111   0.00000  Uiso   1.00
H447   H     0.94606   0.88196   0.30931   0.00000  Uiso   1.00
H448   H     0.90661   0.88834   0.25698   0.00000  Uiso   1.00
Br449  Br    0.74777   0.77252   0.26485   0.00000  Uiso   1.00
Br450  Br    0.91890   0.89415   0.06848   0.00000  Uiso   1.00
C451   C     0.17096   0.08781   0.50079   0.00000  Uiso   1.00
C452   C     0.16237   0.24552   0.49921   0.00000  Uiso   1.00
C453   C     0.06821   0.16635   0.48827   0.00000  Uiso   1.00
C454   C     0.26512   0.16699   0.51173   0.00000  Uiso   1.00
C455   C     0.01308   0.16098   0.48279   0.00000  Uiso   1.00
C456   C     0.32025   0.17236   0.51721   0.00000  Uiso   1.00
C457   C     0.18037   0.02186   0.46116   0.00000  Uiso   1.00
C458   C     0.15297   0.31148   0.53884   0.00000  Uiso   1.00
C459   C     0.16686   0.31302   0.45763   0.00000  Uiso   1.00
C460   C     0.16647   0.02032   0.54237   0.00000  Uiso   1.00
C461   C     0.15834   0.29028   0.49790   0.00000  Uiso   1.00
C462   C     0.17500   0.04306   0.50210   0.00000  Uiso   1.00
C463   C     0.13273   0.13979   0.35361   0.00000  Uiso   1.00
C464   C     0.20060   0.19354   0.64639   0.00000  Uiso   1.00
C465   C     0.13232   0.14077   0.63746   0.00000  Uiso   1.00
C466   C     0.20101   0.19256   0.36254   0.00000  Uiso   1.00
Cu467  Cu    0.16667   0.16667   0.54689   0.00000  Uiso   1.00
Cu468  Cu    0.16667   0.16666   0.45311   0.00000  Uiso   1.00
N469   N     0.16668   0.16668   0.61736   0.00000  Uiso   1.00
N470   N     0.16665   0.16666   0.38264   0.00000  Uiso   1.00
O471   O     0.16666   0.10655   0.53958   0.00000  Uiso   1.00
O472   O     0.16667   0.22678   0.46042   0.00000  Uiso   1.00
O473   O     0.16666   0.10654   0.46039   0.00000  Uiso   1.00
O474   O     0.16667   0.22679   0.53961   0.00000  Uiso   1.00
O475   O     0.09161   0.16667   0.53046   0.00000  Uiso   1.00
O476   O     0.24172   0.16666   0.46954   0.00000  Uiso   1.00
O477   O     0.09161   0.16666   0.45127   0.00000  Uiso   1.00
O478   O     0.24172   0.16667   0.54873   0.00000  Uiso   1.00
Br479  Br    0.31605   0.13008   0.42757   0.00000  Uiso   1.00
Br480  Br    0.01728   0.20325   0.57242   0.00000  Uiso   1.00
Br481  Br    0.21685   0.04740   0.41358   0.00000  Uiso   1.00
Br482  Br    0.11650   0.28594   0.58643   0.00000  Uiso   1.00
Br483  Br    0.14836   0.29046   0.39560   0.00000  Uiso   1.00
Br484  Br    0.18498   0.04287   0.60440   0.00000  Uiso   1.00
C485   C     0.09261   0.10983   0.37240   0.00000  Uiso   1.00
C486   C     0.09703   0.06416   0.36275   0.00000  Uiso   1.00
H487   H     0.06273   0.05082   0.33949   0.00000  Uiso   1.00
H488   H     0.13154   0.05973   0.34639   0.00000  Uiso   1.00
H489   H     0.09873   0.04628   0.39556   0.00000  Uiso   1.00
H490   H     0.09339   0.11166   0.40968   0.00000  Uiso   1.00
H491   H     0.05394   0.11803   0.35735   0.00000  Uiso   1.00
C492   C     0.24073   0.22350   0.62760   0.00000  Uiso   1.00
C493   C     0.23632   0.26918   0.63725   0.00000  Uiso   1.00
H494   H     0.20181   0.27361   0.65362   0.00000  Uiso   1.00
H495   H     0.27062   0.28251   0.66051   0.00000  Uiso   1.00
H496   H     0.23461   0.28706   0.60445   0.00000  Uiso   1.00
H497   H     0.27939   0.21529   0.64265   0.00000  Uiso   1.00
H498   H     0.23994   0.22168   0.59031   0.00000  Uiso   1.00
Br499  Br    0.08110   0.10585   0.59819   0.00000  Uiso   1.00
Br500  Br    0.25223   0.22748   0.40181   0.00000  Uiso   1.00
C501   C     0.50430   0.08781   0.50079   0.00000  Uiso   1.00
C502   C     0.49570   0.24552   0.49921   0.00000  Uiso   1.00
C503   C     0.40155   0.16635   0.48827   0.00000  Uiso   1.00
C504   C     0.59845   0.16699   0.51173   0.00000  Uiso   1.00
C505   C     0.34641   0.16098   0.48279   0.00000  Uiso   1.00
C506   C     0.65358   0.17236   0.51721   0.00000  Uiso   1.00
C507   C     0.51370   0.02186   0.46116   0.00000  Uiso   1.00
C508   C     0.48630   0.31148   0.53884   0.00000  Uiso   1.00
C509   C     0.50020   0.31302   0.45763   0.00000  Uiso   1.00
C510   C     0.49981   0.02032   0.54237   0.00000  Uiso   1.00
C511   C     0.49167   0.29028   0.49790   0.00000  Uiso   1.00
C512   C     0.50833   0.04306   0.50210   0.00000  Uiso   1.00
C513   C     0.46606   0.13979   0.35361   0.00000  Uiso   1.00
C514   C     0.53394   0.19354   0.64639   0.00000  Uiso   1.00
C515   C     0.46565   0.14077   0.63746   0.00000  Uiso   1.00
C516   C     0.53435   0.19256   0.36254   0.00000  Uiso   1.00
Cu517  Cu    0.50000   0.16667   0.54689   0.00000  Uiso   1.00
Cu518  Cu    0.50000   0.16666   0.45311   0.00000  Uiso   1.00
N519   N     0.50001   0.16668   0.61736   0.00000  Uiso   1.00
N520   N     0.49999   0.16666   0.38264   0.00000  Uiso   1.00
O521   O     0.50000   0.10655   0.53958   0.00000  Uiso   1.00
O522   O     0.50000   0.22678   0.46042   0.00000  Uiso   1.00
O523   O     0.50000   0.10654   0.46039   0.00000  Uiso   1.00
O524   O     0.50000   0.22679   0.53961   0.00000  Uiso   1.00
O525   O     0.42495   0.16667   0.53046   0.00000  Uiso   1.00
O526   O     0.57505   0.16666   0.46954   0.00000  Uiso   1.00
O527   O     0.42494   0.16666   0.45127   0.00000  Uiso   1.00
O528   O     0.57506   0.16667   0.54873   0.00000  Uiso   1.00
Br529  Br    0.64938   0.13008   0.42757   0.00000  Uiso   1.00
Br530  Br    0.35062   0.20325   0.57242   0.00000  Uiso   1.00
Br531  Br    0.55018   0.04740   0.41358   0.00000  Uiso   1.00
Br532  Br    0.44983   0.28594   0.58643   0.00000  Uiso   1.00
Br533  Br    0.48169   0.29046   0.39560   0.00000  Uiso   1.00
Br534  Br    0.51831   0.04287   0.60440   0.00000  Uiso   1.00
C535   C     0.42594   0.10983   0.37240   0.00000  Uiso   1.00
C536   C     0.43036   0.06416   0.36275   0.00000  Uiso   1.00
H537   H     0.39606   0.05082   0.33949   0.00000  Uiso   1.00
H538   H     0.46487   0.05973   0.34639   0.00000  Uiso   1.00
H539   H     0.43207   0.04628   0.39556   0.00000  Uiso   1.00
H540   H     0.42672   0.11166   0.40968   0.00000  Uiso   1.00
H541   H     0.38727   0.11803   0.35735   0.00000  Uiso   1.00
C542   C     0.57406   0.22350   0.62760   0.00000  Uiso   1.00
C543   C     0.56965   0.26918   0.63725   0.00000  Uiso   1.00
H544   H     0.53515   0.27361   0.65362   0.00000  Uiso   1.00
H545   H     0.60396   0.28251   0.66051   0.00000  Uiso   1.00
H546   H     0.56795   0.28706   0.60445   0.00000  Uiso   1.00
H547   H     0.61273   0.21529   0.64265   0.00000  Uiso   1.00
H548   H     0.57327   0.22168   0.59031   0.00000  Uiso   1.00
Br549  Br    0.41443   0.10585   0.59819   0.00000  Uiso   1.00
Br550  Br    0.58557   0.22748   0.40181   0.00000  Uiso   1.00
C551   C     0.83763   0.08781   0.50079   0.00000  Uiso   1.00
C552   C     0.82904   0.24552   0.49921   0.00000  Uiso   1.00
C553   C     0.73488   0.16635   0.48827   0.00000  Uiso   1.00
C554   C     0.93179   0.16699   0.51173   0.00000  Uiso   1.00
C555   C     0.67975   0.16098   0.48279   0.00000  Uiso   1.00
C556   C     0.98692   0.17236   0.51721   0.00000  Uiso   1.00
C557   C     0.84704   0.02186   0.46116   0.00000  Uiso   1.00
C558   C     0.81964   0.31148   0.53884   0.00000  Uiso   1.00
C559   C     0.83353   0.31302   0.45763   0.00000  Uiso   1.00
C560   C     0.83314   0.02032   0.54237   0.00000  Uiso   1.00
C561   C     0.82501   0.29028   0.49790   0.00000  Uiso   1.00
C562   C     0.84166   0.04306   0.50210   0.00000  Uiso   1.00
C563   C     0.79939   0.13979   0.35361   0.00000  Uiso   1.00
C564   C     0.86727   0.19354   0.64639   0.00000  Uiso   1.00
C565   C     0.79899   0.14077   0.63746   0.00000  Uiso   1.00
C566   C     0.86768   0.19256   0.36254   0.00000  Uiso   1.00
Cu567  Cu    0.83333   0.16667   0.54689   0.00000  Uiso   1.00
Cu568  Cu    0.83333   0.16666   0.45311   0.00000  Uiso   1.00
N569   N     0.83335   0.16668   0.61736   0.00000  Uiso   1.00
N570   N     0.83332   0.16666   0.38264   0.00000  Uiso   1.00
O571   O     0.83333   0.10655   0.53958   0.00000  Uiso   1.00
O572   O     0.83334   0.22678   0.46042   0.00000  Uiso   1.00
O573   O     0.83333   0.10654   0.46039   0.00000  Uiso   1.00
O574   O     0.83334   0.22679   0.53961   0.00000  Uiso   1.00
O575   O     0.75828   0.16667   0.53046   0.00000  Uiso   1.00
O576   O     0.90839   0.16666   0.46954   0.00000  Uiso   1.00
O577   O     0.75828   0.16666   0.45127   0.00000  Uiso   1.00
O578   O     0.90839   0.16667   0.54873   0.00000  Uiso   1.00
Br579  Br    0.98272   0.13008   0.42757   0.00000  Uiso   1.00
Br580  Br    0.68395   0.20325   0.57242   0.00000  Uiso   1.00
Br581  Br    0.88351   0.04740   0.41358   0.00000  Uiso   1.00
Br582  Br    0.78316   0.28594   0.58643   0.00000  Uiso   1.00
Br583  Br    0.81503   0.29046   0.39560   0.00000  Uiso   1.00
Br584  Br    0.85164   0.04287   0.60440   0.00000  Uiso   1.00
C585   C     0.75928   0.10983   0.37240   0.00000  Uiso   1.00
C586   C     0.76370   0.06416   0.36275   0.00000  Uiso   1.00
H587   H     0.72940   0.05082   0.33949   0.00000  Uiso   1.00
H588   H     0.79820   0.05973   0.34639   0.00000  Uiso   1.00
H589   H     0.76540   0.04628   0.39556   0.00000  Uiso   1.00
H590   H     0.76006   0.11166   0.40968   0.00000  Uiso   1.00
H591   H     0.72061   0.11803   0.35735   0.00000  Uiso   1.00
C592   C     0.90739   0.22350   0.62760   0.00000  Uiso   1.00
C593   C     0.90298   0.26918   0.63725   0.00000  Uiso   1.00
H594   H     0.86848   0.27361   0.65362   0.00000  Uiso   1.00
H595   H     0.93729   0.28251   0.66051   0.00000  Uiso   1.00
H596   H     0.90128   0.28706   0.60445   0.00000  Uiso   1.00
H597   H     0.94606   0.21529   0.64265   0.00000  Uiso   1.00
H598   H     0.90661   0.22168   0.59031   0.00000  Uiso   1.00
Br599  Br    0.74777   0.10585   0.59819   0.00000  Uiso   1.00
Br600  Br    0.91890   0.22748   0.40181   0.00000  Uiso   1.00
C601   C     0.17096   0.42114   0.50079   0.00000  Uiso   1.00
C602   C     0.16237   0.57886   0.49921   0.00000  Uiso   1.00
C603   C     0.06821   0.49968   0.48827   0.00000  Uiso   1.00
C604   C     0.26512   0.50032   0.51173   0.00000  Uiso   1.00
C605   C     0.01308   0.49431   0.48279   0.00000  Uiso   1.00
C606   C     0.32025   0.50569   0.51721   0.00000  Uiso   1.00
C607   C     0.18037   0.35519   0.46116   0.00000  Uiso   1.00
C608   C     0.15297   0.64481   0.53884   0.00000  Uiso   1.00
C609   C     0.16686   0.64635   0.45763   0.00000  Uiso   1.00
C610   C     0.16647   0.35365   0.54237   0.00000  Uiso   1.00
C611   C     0.15834   0.62361   0.49790   0.00000  Uiso   1.00
C612   C     0.17500   0.37639   0.50210   0.00000  Uiso   1.00
C613   C     0.13273   0.47312   0.35361   0.00000  Uiso   1.00
C614   C     0.20060   0.52688   0.64639   0.00000  Uiso   1.00
C615   C     0.13232   0.47411   0.63746   0.00000  Uiso   1.00
C616   C     0.20101   0.52589   0.36254   0.00000  Uiso   1.00
Cu617  Cu    0.16667   0.50001   0.54689   0.00000  Uiso   1.00
Cu618  Cu    0.16667   0.49999   0.45311   0.00000  Uiso   1.00
N619   N     0.16668   0.50001   0.61736   0.00000  Uiso   1.00
N620   N     0.16665   0.49999   0.38264   0.00000  Uiso   1.00
O621   O     0.16666   0.43989   0.53958   0.00000  Uiso   1.00
O622   O     0.16667   0.56011   0.46042   0.00000  Uiso   1.00
O623   O     0.16666   0.43988   0.46039   0.00000  Uiso   1.00
O624   O     0.16667   0.56012   0.53961   0.00000  Uiso   1.00
O625   O     0.09161   0.50000   0.53046   0.00000  Uiso   1.00
O626   O     0.24172   0.50000   0.46954   0.00000  Uiso   1.00
O627   O     0.09161   0.49999   0.45127   0.00000  Uiso   1.00
O628   O     0.24172   0.50001   0.54873   0.00000  Uiso   1.00
Br629  Br    0.31605   0.46341   0.42757   0.00000  Uiso   1.00
Br630  Br    0.01728   0.53659   0.57242   0.00000  Uiso   1.00
Br631  Br    0.21685   0.38073   0.41358   0.00000  Uiso   1.00
Br632  Br    0.11650   0.61927   0.58643   0.00000  Uiso   1.00
Br633  Br    0.14836   0.62380   0.39560   0.00000  Uiso   1.00
Br634  Br    0.18498   0.37620   0.60440   0.00000  Uiso   1.00
C635   C     0.09261   0.44316   0.37240   0.00000  Uiso   1.00
C636   C     0.09703   0.39749   0.36275   0.00000  Uiso   1.00
H637   H     0.06273   0.38415   0.33949   0.00000  Uiso   1.00
H638   H     0.13154   0.39306   0.34639   0.00000  Uiso   1.00
H639   H     0.09873   0.37961   0.39556   0.00000  Uiso   1.00
H640   H     0.09339   0.44499   0.40968   0.00000  Uiso   1.00
H641   H     0.05394   0.45136   0.35735   0.00000  Uiso   1.00
C642   C     0.24073   0.55683   0.62760   0.00000  Uiso   1.00
C643   C     0.23632   0.60251   0.63725   0.00000  Uiso   1.00
H644   H     0.20181   0.60694   0.65362   0.00000  Uiso   1.00
H645   H     0.27062   0.61584   0.66051   0.00000  Uiso   1.00
H646   H     0.23461   0.62039   0.60445   0.00000  Uiso   1.00
H647   H     0.27939   0.54863   0.64265   0.00000  Uiso   1.00
H648   H     0.23994   0.55501   0.59031   0.00000  Uiso   1.00
Br649  Br    0.08110   0.43919   0.59819   0.00000  Uiso   1.00
Br650  Br    0.25223   0.56081   0.40181   0.00000  Uiso   1.00
C651   C     0.50430   0.42114   0.50079   0.00000  Uiso   1.00
C652   C     0.49570   0.57886   0.49921   0.00000  Uiso   1.00
C653   C     0.40155   0.49968   0.48827   0.00000  Uiso   1.00
C654   C     0.59845   0.50032   0.51173   0.00000  Uiso   1.00
C655   C     0.34641   0.49431   0.48279   0.00000  Uiso   1.00
C656   C     0.65358   0.50569   0.51721   0.00000  Uiso   1.00
C657   C     0.51370   0.35519   0.46116   0.00000  Uiso   1.00
C658   C     0.48630   0.64481   0.53884   0.00000  Uiso   1.00
C659   C     0.50020   0.64635   0.45763   0.00000  Uiso   1.00
C660   C     0.49981   0.35365   0.54237   0.00000  Uiso   1.00
C661   C     0.49167   0.62361   0.49790   0.00000  Uiso   1.00
C662   C     0.50833   0.37639   0.50210   0.00000  Uiso   1.00
C663   C     0.46606   0.47312   0.35361   0.00000  Uiso   1.00
C664   C     0.53394   0.52688   0.64639   0.00000  Uiso   1.00
C665   C     0.46565   0.47411   0.63746   0.00000  Uiso   1.00
C666   C     0.53435   0.52589   0.36254   0.00000  Uiso   1.00
Cu667  Cu    0.50000   0.50001   0.54689   0.00000  Uiso   1.00
Cu668  Cu    0.50000   0.49999   0.45311   0.00000  Uiso   1.00
N669   N     0.50001   0.50001   0.61736   0.00000  Uiso   1.00
N670   N     0.49999   0.49999   0.38264   0.00000  Uiso   1.00
O671   O     0.50000   0.43989   0.53958   0.00000  Uiso   1.00
O672   O     0.50000   0.56011   0.46042   0.00000  Uiso   1.00
O673   O     0.50000   0.43988   0.46039   0.00000  Uiso   1.00
O674   O     0.50000   0.56012   0.53961   0.00000  Uiso   1.00
O675   O     0.42495   0.50000   0.53046   0.00000  Uiso   1.00
O676   O     0.57505   0.50000   0.46954   0.00000  Uiso   1.00
O677   O     0.42494   0.49999   0.45127   0.00000  Uiso   1.00
O678   O     0.57506   0.50001   0.54873   0.00000  Uiso   1.00
Br679  Br    0.64938   0.46341   0.42757   0.00000  Uiso   1.00
Br680  Br    0.35062   0.53659   0.57242   0.00000  Uiso   1.00
Br681  Br    0.55018   0.38073   0.41358   0.00000  Uiso   1.00
Br682  Br    0.44983   0.61927   0.58643   0.00000  Uiso   1.00
Br683  Br    0.48169   0.62380   0.39560   0.00000  Uiso   1.00
Br684  Br    0.51831   0.37620   0.60440   0.00000  Uiso   1.00
C685   C     0.42594   0.44316   0.37240   0.00000  Uiso   1.00
C686   C     0.43036   0.39749   0.36275   0.00000  Uiso   1.00
H687   H     0.39606   0.38415   0.33949   0.00000  Uiso   1.00
H688   H     0.46487   0.39306   0.34639   0.00000  Uiso   1.00
H689   H     0.43207   0.37961   0.39556   0.00000  Uiso   1.00
H690   H     0.42672   0.44499   0.40968   0.00000  Uiso   1.00
H691   H     0.38727   0.45136   0.35735   0.00000  Uiso   1.00
C692   C     0.57406   0.55683   0.62760   0.00000  Uiso   1.00
C693   C     0.56965   0.60251   0.63725   0.00000  Uiso   1.00
H694   H     0.53515   0.60694   0.65362   0.00000  Uiso   1.00
H695   H     0.60396   0.61584   0.66051   0.00000  Uiso   1.00
H696   H     0.56795   0.62039   0.60445   0.00000  Uiso   1.00
H697   H     0.61273   0.54863   0.64265   0.00000  Uiso   1.00
H698   H     0.57327   0.55501   0.59031   0.00000  Uiso   1.00
Br699  Br    0.41443   0.43919   0.59819   0.00000  Uiso   1.00
Br700  Br    0.58557   0.56081   0.40181   0.00000  Uiso   1.00
C701   C     0.83763   0.42114   0.50079   0.00000  Uiso   1.00
C702   C     0.82904   0.57886   0.49921   0.00000  Uiso   1.00
C703   C     0.73488   0.49968   0.48827   0.00000  Uiso   1.00
C704   C     0.93179   0.50032   0.51173   0.00000  Uiso   1.00
C705   C     0.67975   0.49431   0.48279   0.00000  Uiso   1.00
C706   C     0.98692   0.50569   0.51721   0.00000  Uiso   1.00
C707   C     0.84704   0.35519   0.46116   0.00000  Uiso   1.00
C708   C     0.81964   0.64481   0.53884   0.00000  Uiso   1.00
C709   C     0.83353   0.64635   0.45763   0.00000  Uiso   1.00
C710   C     0.83314   0.35365   0.54237   0.00000  Uiso   1.00
C711   C     0.82501   0.62361   0.49790   0.00000  Uiso   1.00
C712   C     0.84166   0.37639   0.50210   0.00000  Uiso   1.00
C713   C     0.79939   0.47312   0.35361   0.00000  Uiso   1.00
C714   C     0.86727   0.52688   0.64639   0.00000  Uiso   1.00
C715   C     0.79899   0.47411   0.63746   0.00000  Uiso   1.00
C716   C     0.86768   0.52589   0.36254   0.00000  Uiso   1.00
Cu717  Cu    0.83333   0.50001   0.54689   0.00000  Uiso   1.00
Cu718  Cu    0.83333   0.49999   0.45311   0.00000  Uiso   1.00
N719   N     0.83335   0.50001   0.61736   0.00000  Uiso   1.00
N720   N     0.83332   0.49999   0.38264   0.00000  Uiso   1.00
O721   O     0.83333   0.43989   0.53958   0.00000  Uiso   1.00
O722   O     0.83334   0.56011   0.46042   0.00000  Uiso   1.00
O723   O     0.83333   0.43988   0.46039   0.00000  Uiso   1.00
O724   O     0.83334   0.56012   0.53961   0.00000  Uiso   1.00
O725   O     0.75828   0.50000   0.53046   0.00000  Uiso   1.00
O726   O     0.90839   0.50000   0.46954   0.00000  Uiso   1.00
O727   O     0.75828   0.49999   0.45127   0.00000  Uiso   1.00
O728   O     0.90839   0.50001   0.54873   0.00000  Uiso   1.00
Br729  Br    0.98272   0.46341   0.42757   0.00000  Uiso   1.00
Br730  Br    0.68395   0.53659   0.57242   0.00000  Uiso   1.00
Br731  Br    0.88351   0.38073   0.41358   0.00000  Uiso   1.00
Br732  Br    0.78316   0.61927   0.58643   0.00000  Uiso   1.00
Br733  Br    0.81503   0.62380   0.39560   0.00000  Uiso   1.00
Br734  Br    0.85164   0.37620   0.60440   0.00000  Uiso   1.00
C735   C     0.75928   0.44316   0.37240   0.00000  Uiso   1.00
C736   C     0.76370   0.39749   0.36275   0.00000  Uiso   1.00
H737   H     0.72940   0.38415   0.33949   0.00000  Uiso   1.00
H738   H     0.79820   0.39306   0.34639   0.00000  Uiso   1.00
H739   H     0.76540   0.37961   0.39556   0.00000  Uiso   1.00
H740   H     0.76006   0.44499   0.40968   0.00000  Uiso   1.00
H741   H     0.72061   0.45136   0.35735   0.00000  Uiso   1.00
C742   C     0.90739   0.55683   0.62760   0.00000  Uiso   1.00
C743   C     0.90298   0.60251   0.63725   0.00000  Uiso   1.00
H744   H     0.86848   0.60694   0.65362   0.00000  Uiso   1.00
H745   H     0.93729   0.61584   0.66051   0.00000  Uiso   1.00
H746   H     0.90128   0.62039   0.60445   0.00000  Uiso   1.00
H747   H     0.94606   0.54863   0.64265   0.00000  Uiso   1.00
H748   H     0.90661   0.55501   0.59031   0.00000  Uiso   1.00
Br749  Br    0.74777   0.43919   0.59819   0.00000  Uiso   1.00
Br750  Br    0.91890   0.56081   0.40181   0.00000  Uiso   1.00
C751   C     0.17096   0.75448   0.50079   0.00000  Uiso   1.00
C752   C     0.16237   0.91219   0.49921   0.00000  Uiso   1.00
C753   C     0.06821   0.83301   0.48827   0.00000  Uiso   1.00
C754   C     0.26512   0.83365   0.51173   0.00000  Uiso   1.00
C755   C     0.01308   0.82764   0.48279   0.00000  Uiso   1.00
C756   C     0.32025   0.83902   0.51721   0.00000  Uiso   1.00
C757   C     0.18037   0.68853   0.46116   0.00000  Uiso   1.00
C758   C     0.15297   0.97814   0.53884   0.00000  Uiso   1.00
C759   C     0.16686   0.97969   0.45763   0.00000  Uiso   1.00
C760   C     0.16647   0.68698   0.54237   0.00000  Uiso   1.00
C761   C     0.15834   0.95694   0.49790   0.00000  Uiso   1.00
C762   C     0.17500   0.70972   0.50210   0.00000  Uiso   1.00
C763   C     0.13273   0.80646   0.35361   0.00000  Uiso   1.00
C764   C     0.20060   0.86021   0.64639   0.00000  Uiso   1.00
C765   C     0.13232   0.80744   0.63746   0.00000  Uiso   1.00
C766   C     0.20101   0.85923   0.36254   0.00000  Uiso   1.00
Cu767  Cu    0.16667   0.83334   0.54689   0.00000  Uiso   1.00
Cu768  Cu    0.16667   0.83333   0.45311   0.00000  Uiso   1.00
N769   N     0.16668   0.83334   0.61736   0.00000  Uiso   1.00
N770   N     0.16665   0.83332   0.38264   0.00000  Uiso   1.00
O771   O     0.16666   0.77322   0.53958   0.00000  Uiso   1.00
O772   O     0.16667   0.89345   0.46042   0.00000  Uiso   1.00
O773   O     0.16666   0.77321   0.46039   0.00000  Uiso   1.00
O774   O     0.16667   0.89346   0.53961   0.00000  Uiso   1.00
O775   O     0.09161   0.83334   0.53046   0.00000  Uiso   1.00
O776   O     0.24172   0.83333   0.46954   0.00000  Uiso   1.00
O777   O     0.09161   0.83333   0.45127   0.00000  Uiso   1.00
O778   O     0.24172   0.83334   0.54873   0.00000  Uiso   1.00
Br779  Br    0.31605   0.79675   0.42757   0.00000  Uiso   1.00
Br780  Br    0.01728   0.86992   0.57242   0.00000  Uiso   1.00
Br781  Br    0.21685   0.71406   0.41358   0.00000  Uiso   1.00
Br782  Br    0.11650   0.95260   0.58643   0.00000  Uiso   1.00
Br783  Br    0.14836   0.95713   0.39560   0.00000  Uiso   1.00
Br784  Br    0.18498   0.70954   0.60440   0.00000  Uiso   1.00
C785   C     0.09261   0.77650   0.37240   0.00000  Uiso   1.00
C786   C     0.09703   0.73082   0.36275   0.00000  Uiso   1.00
H787   H     0.06273   0.71749   0.33949   0.00000  Uiso   1.00
H788   H     0.13154   0.72640   0.34639   0.00000  Uiso   1.00
H789   H     0.09873   0.71294   0.39556   0.00000  Uiso   1.00
H790   H     0.09339   0.77832   0.40968   0.00000  Uiso   1.00
H791   H     0.05394   0.78470   0.35735   0.00000  Uiso   1.00
C792   C     0.24073   0.89017   0.62760   0.00000  Uiso   1.00
C793   C     0.23632   0.93584   0.63725   0.00000  Uiso   1.00
H794   H     0.20181   0.94027   0.65362   0.00000  Uiso   1.00
H795   H     0.27062   0.94918   0.66051   0.00000  Uiso   1.00
H796   H     0.23461   0.95373   0.60445   0.00000  Uiso   1.00
H797   H     0.27939   0.88196   0.64265   0.00000  Uiso   1.00
H798   H     0.23994   0.88834   0.59031   0.00000  Uiso   1.00
Br799  Br    0.08110   0.77252   0.59819   0.00000  Uiso   1.00
Br800  Br    0.25223   0.89415   0.40181   0.00000  Uiso   1.00
C801   C     0.50430   0.75448   0.50079   0.00000  Uiso   1.00
C802   C     0.49570   0.91219   0.49921   0.00000  Uiso   1.00
C803   C     0.40155   0.83301   0.48827   0.00000  Uiso   1.00
C804   C     0.59845   0.83365   0.51173   0.00000  Uiso   1.00
C805   C     0.34641   0.82764   0.48279   0.00000  Uiso   1.00
C806   C     0.65358   0.83902   0.51721   0.00000  Uiso   1.00
C807   C     0.51370   0.68853   0.46116   0.00000  Uiso   1.00
C808   C     0.48630   0.97814   0.53884   0.00000  Uiso   1.00
C809   C     0.50020   0.97969   0.45763   0.00000  Uiso   1.00
C810   C     0.49981   0.68698   0.54237   0.00000  Uiso   1.00
C811   C     0.49167   0.95694   0.49790   0.00000  Uiso   1.00
C812   C     0.50833   0.70972   0.50210   0.00000  Uiso   1.00
C813   C     0.46606   0.80646   0.35361   0.00000  Uiso   1.00
C814   C     0.53394   0.86021   0.64639   0.00000  Uiso   1.00
C815   C     0.46565   0.80744   0.63746   0.00000  Uiso   1.00
C816   C     0.53435   0.85923   0.36254   0.00000  Uiso   1.00
Cu817  Cu    0.50000   0.83334   0.54689   0.00000  Uiso   1.00
Cu818  Cu    0.50000   0.83333   0.45311   0.00000  Uiso   1.00
N819   N     0.50001   0.83334   0.61736   0.00000  Uiso   1.00
N820   N     0.49999   0.83332   0.38264   0.00000  Uiso   1.00
O821   O     0.50000   0.77322   0.53958   0.00000  Uiso   1.00
O822   O     0.50000   0.89345   0.46042   0.00000  Uiso   1.00
O823   O     0.50000   0.77321   0.46039   0.00000  Uiso   1.00
O824   O     0.50000   0.89346   0.53961   0.00000  Uiso   1.00
O825   O     0.42495   0.83334   0.53046   0.00000  Uiso   1.00
O826   O     0.57505   0.83333   0.46954   0.00000  Uiso   1.00
O827   O     0.42494   0.83333   0.45127   0.00000  Uiso   1.00
O828   O     0.57506   0.83334   0.54873   0.00000  Uiso   1.00
Br829  Br    0.64938   0.79675   0.42757   0.00000  Uiso   1.00
Br830  Br    0.35062   0.86992   0.57242   0.00000  Uiso   1.00
Br831  Br    0.55018   0.71406   0.41358   0.00000  Uiso   1.00
Br832  Br    0.44983   0.95260   0.58643   0.00000  Uiso   1.00
Br833  Br    0.48169   0.95713   0.39560   0.00000  Uiso   1.00
Br834  Br    0.51831   0.70954   0.60440   0.00000  Uiso   1.00
C835   C     0.42594   0.77650   0.37240   0.00000  Uiso   1.00
C836   C     0.43036   0.73082   0.36275   0.00000  Uiso   1.00
H837   H     0.39606   0.71749   0.33949   0.00000  Uiso   1.00
H838   H     0.46487   0.72640   0.34639   0.00000  Uiso   1.00
H839   H     0.43207   0.71294   0.39556   0.00000  Uiso   1.00
H840   H     0.42672   0.77832   0.40968   0.00000  Uiso   1.00
H841   H     0.38727   0.78470   0.35735   0.00000  Uiso   1.00
C842   C     0.57406   0.89017   0.62760   0.00000  Uiso   1.00
C843   C     0.56965   0.93584   0.63725   0.00000  Uiso   1.00
H844   H     0.53515   0.94027   0.65362   0.00000  Uiso   1.00
H845   H     0.60396   0.94918   0.66051   0.00000  Uiso   1.00
H846   H     0.56795   0.95373   0.60445   0.00000  Uiso   1.00
H847   H     0.61273   0.88196   0.64265   0.00000  Uiso   1.00
H848   H     0.57327   0.88834   0.59031   0.00000  Uiso   1.00
Br849  Br    0.41443   0.77252   0.59819   0.00000  Uiso   1.00
Br850  Br    0.58557   0.89415   0.40181   0.00000  Uiso   1.00
C851   C     0.83763   0.75448   0.50079   0.00000  Uiso   1.00
C852   C     0.82904   0.91219   0.49921   0.00000  Uiso   1.00
C853   C     0.73488   0.83301   0.48827   0.00000  Uiso   1.00
C854   C     0.93179   0.83365   0.51173   0.00000  Uiso   1.00
C855   C     0.67975   0.82764   0.48279   0.00000  Uiso   1.00
C856   C     0.98692   0.83902   0.51721   0.00000  Uiso   1.00
C857   C     0.84704   0.68853   0.46116   0.00000  Uiso   1.00
C858   C     0.81964   0.97814   0.53884   0.00000  Uiso   1.00
C859   C     0.83353   0.97969   0.45763   0.00000  Uiso   1.00
C860   C     0.83314   0.68698   0.54237   0.00000  Uiso   1.00
C861   C     0.82501   0.95694   0.49790   0.00000  Uiso   1.00
C862   C     0.84166   0.70972   0.50210   0.00000  Uiso   1.00
C863   C     0.79939   0.80646   0.35361   0.00000  Uiso   1.00
C864   C     0.86727   0.86021   0.64639   0.00000  Uiso   1.00
C865   C     0.79899   0.80744   0.63746   0.00000  Uiso   1.00
C866   C     0.86768   0.85923   0.36254   0.00000  Uiso   1.00
Cu867  Cu    0.83333   0.83334   0.54689   0.00000  Uiso   1.00
Cu868  Cu    0.83333   0.83333   0.45311   0.00000  Uiso   1.00
N869   N     0.83335   0.83334   0.61736   0.00000  Uiso   1.00
N870   N     0.83332   0.83332   0.38264   0.00000  Uiso   1.00
O871   O     0.83333   0.77322   0.53958   0.00000  Uiso   1.00
O872   O     0.83334   0.89345   0.46042   0.00000  Uiso   1.00
O873   O     0.83333   0.77321   0.46039   0.00000  Uiso   1.00
O874   O     0.83334   0.89346   0.53961   0.00000  Uiso   1.00
O875   O     0.75828   0.83334   0.53046   0.00000  Uiso   1.00
O876   O     0.90839   0.83333   0.46954   0.00000  Uiso   1.00
O877   O     0.75828   0.83333   0.45127   0.00000  Uiso   1.00
O878   O     0.90839   0.83334   0.54873   0.00000  Uiso   1.00
Br879  Br    0.98272   0.79675   0.42757   0.00000  Uiso   1.00
Br880  Br    0.68395   0.86992   0.57242   0.00000  Uiso   1.00
Br881  Br    0.88351   0.71406   0.41358   0.00000  Uiso   1.00
Br882  Br    0.78316   0.95260   0.58643   0.00000  Uiso   1.00
Br883  Br    0.81503   0.95713   0.39560   0.00000  Uiso   1.00
Br884  Br    0.85164   0.70954   0.60440   0.00000  Uiso   1.00
C885   C     0.75928   0.77650   0.37240   0.00000  Uiso   1.00
C886   C     0.76370   0.73082   0.36275   0.00000  Uiso   1.00
H887   H     0.72940   0.71749   0.33949   0.00000  Uiso   1.00
H888   H     0.79820   0.72640   0.34639   0.00000  Uiso   1.00
H889   H     0.76540   0.71294   0.39556   0.00000  Uiso   1.00
H890   H     0.76006   0.77832   0.40968   0.00000  Uiso   1.00
H891   H     0.72061   0.78470   0.35735   0.00000  Uiso   1.00
C892   C     0.90739   0.89017   0.62760   0.00000  Uiso   1.00
C893   C     0.90298   0.93584   0.63725   0.00000  Uiso   1.00
H894   H     0.86848   0.94027   0.65362   0.00000  Uiso   1.00
H895   H     0.93729   0.94918   0.66051   0.00000  Uiso   1.00
H896   H     0.90128   0.95373   0.60445   0.00000  Uiso   1.00
H897   H     0.94606   0.88196   0.64265   0.00000  Uiso   1.00
H898   H     0.90661   0.88834   0.59031   0.00000  Uiso   1.00
Br899  Br    0.74777   0.77252   0.59819   0.00000  Uiso   1.00
Br900  Br    0.91890   0.89415   0.40181   0.00000  Uiso   1.00
C901   C     0.17096   0.08781   0.83413   0.00000  Uiso   1.00
C902   C     0.16237   0.24552   0.83254   0.00000  Uiso   1.00
C903   C     0.06821   0.16635   0.82160   0.00000  Uiso   1.00
C904   C     0.26512   0.16699   0.84506   0.00000  Uiso   1.00
C905   C     0.01308   0.16098   0.81612   0.00000  Uiso   1.00
C906   C     0.32025   0.17236   0.85054   0.00000  Uiso   1.00
C907   C     0.18037   0.02186   0.79449   0.00000  Uiso   1.00
C908   C     0.15297   0.31148   0.87217   0.00000  Uiso   1.00
C909   C     0.16686   0.31302   0.79096   0.00000  Uiso   1.00
C910   C     0.16647   0.02032   0.87571   0.00000  Uiso   1.00
C911   C     0.15834   0.29028   0.83123   0.00000  Uiso   1.00
C912   C     0.17500   0.04306   0.83543   0.00000  Uiso   1.00
C913   C     0.13273   0.13979   0.68694   0.00000  Uiso   1.00
C914   C     0.20060   0.19354   0.97972   0.00000  Uiso   1.00
C915   C     0.13232   0.14077   0.97080   0.00000  Uiso   1.00
C916   C     0.20101   0.19256   0.69587   0.00000  Uiso   1.00
Cu917  Cu    0.16667   0.16667   0.88022   0.00000  Uiso   1.00
Cu918  Cu    0.16667   0.16666   0.78645   0.00000  Uiso   1.00
N919   N     0.16668   0.16668   0.95069   0.00000  Uiso   1.00
N920   N     0.16665   0.16666   0.71597   0.00000  Uiso   1.00
O921   O     0.16666   0.10655   0.87291   0.00000  Uiso   1.00
O922   O     0.16667   0.22678   0.79375   0.00000  Uiso   1.00
O923   O     0.16666   0.10654   0.79372   0.00000  Uiso   1.00
O924   O     0.16667   0.22679   0.87294   0.00000  Uiso   1.00
O925   O     0.09161   0.16667   0.86379   0.00000  Uiso   1.00
O926   O     0.24172   0.16666   0.80288   0.00000  Uiso   1.00
O927   O     0.09161   0.16666   0.78460   0.00000  Uiso   1.00
O928   O     0.24172   0.16667   0.88207   0.00000  Uiso   1.00
Br929  Br    0.31605   0.13008   0.76091   0.00000  Uiso   1.00
Br930  Br    0.01728   0.20325   0.90576   0.00000  Uiso   1.00
Br931  Br    0.21685   0.04740   0.74691   0.00000  Uiso   1.00
Br932  Br    0.11650   0.28594   0.91976   0.00000  Uiso   1.00
Br933  Br    0.14836   0.29046   0.72894   0.00000  Uiso   1.00
Br934  Br    0.18498   0.04287   0.93773   0.00000  Uiso   1.00
C935   C     0.09261   0.10983   0.70573   0.00000  Uiso   1.00
C936   C     0.09703   0.06416   0.69608   0.00000  Uiso   1.00
H937   H     0.06273   0.05082   0.67282   0.00000  Uiso   1.00
H938   H     0.13154   0.05973   0.67972   0.00000  Uiso   1.00
H939   H     0.09873   0.04628   0.72889   0.00000  Uiso   1.00
H940   H     0.09339   0.11166   0.74302   0.00000  Uiso   1.00
H941   H     0.05394   0.11803   0.69068   0.00000  Uiso   1.00
C942   C     0.24073   0.22350   0.96093   0.00000  Uiso   1.00
C943   C     0.23632   0.26918   0.97059   0.00000  Uiso   1.00
H944   H     0.20181   0.27361   0.98695   0.00000  Uiso   1.00
H945   H     0.27062   0.28251   0.99384   0.00000  Uiso   1.00
H946   H     0.23461   0.28706   0.93778   0.00000  Uiso   1.00
H947   H     0.27939   0.21529   0.97598   0.00000  Uiso   1.00
H948   H     0.23994   0.22168   0.92365   0.00000  Uiso   1.00
Br949  Br    0.08110   0.10585   0.93152   0.00000  Uiso   1.00
Br950  Br    0.25223   0.22748   0.73515   0.00000  Uiso   1.00
C951   C     0.50430   0.08781   0.83413   0.00000  Uiso   1.00
C952   C     0.49570   0.24552   0.83254   0.00000  Uiso   1.00
C953   C     0.40155   0.16635   0.82160   0.00000  Uiso   1.00
C954   C     0.59845   0.16699   0.84506   0.00000  Uiso   1.00
C955   C     0.34641   0.16098   0.81612   0.00000  Uiso   1.00
C956   C     0.65358   0.17236   0.85054   0.00000  Uiso   1.00
C957   C     0.51370   0.02186   0.79449   0.00000  Uiso   1.00
C958   C     0.48630   0.31148   0.87217   0.00000  Uiso   1.00
C959   C     0.50020   0.31302   0.79096   0.00000  Uiso   1.00
C960   C     0.49981   0.02032   0.87571   0.00000  Uiso   1.00
C961   C     0.49167   0.29028   0.83123   0.00000  Uiso   1.00
C962   C     0.50833   0.04306   0.83543   0.00000  Uiso   1.00
C963   C     0.46606   0.13979   0.68694   0.00000  Uiso   1.00
C964   C     0.53394   0.19354   0.97972   0.00000  Uiso   1.00
C965   C     0.46565   0.14077   0.97080   0.00000  Uiso   1.00
C966   C     0.53435   0.19256   0.69587   0.00000  Uiso   1.00
Cu967  Cu    0.50000   0.16667   0.88022   0.00000  Uiso   1.00
Cu968  Cu    0.50000   0.16666   0.78645   0.00000  Uiso   1.00
N969   N     0.50001   0.16668   0.95069   0.00000  Uiso   1.00
N970   N     0.49999   0.16666   0.71597   0.00000  Uiso   1.00
O971   O     0.50000   0.10655   0.87291   0.00000  Uiso   1.00
O972   O     0.50000   0.22678   0.79375   0.00000  Uiso   1.00
O973   O     0.50000   0.10654   0.79372   0.00000  Uiso   1.00
O974   O     0.50000   0.22679   0.87294   0.00000  Uiso   1.00
O975   O     0.42495   0.16667   0.86379   0.00000  Uiso   1.00
O976   O     0.57505   0.16666   0.80288   0.00000  Uiso   1.00
O977   O     0.42494   0.16666   0.78460   0.00000  Uiso   1.00
O978   O     0.57506   0.16667   0.88207   0.00000  Uiso   1.00
Br979  Br    0.64938   0.13008   0.76091   0.00000  Uiso   1.00
Br980  Br    0.35062   0.20325   0.90576   0.00000  Uiso   1.00
Br981  Br    0.55018   0.04740   0.74691   0.00000  Uiso   1.00
Br982  Br    0.44983   0.28594   0.91976   0.00000  Uiso   1.00
Br983  Br    0.48169   0.29046   0.72894   0.00000  Uiso   1.00
Br984  Br    0.51831   0.04287   0.93773   0.00000  Uiso   1.00
C985   C     0.42594   0.10983   0.70573   0.00000  Uiso   1.00
C986   C     0.43036   0.06416   0.69608   0.00000  Uiso   1.00
H987   H     0.39606   0.05082   0.67282   0.00000  Uiso   1.00
H988   H     0.46487   0.05973   0.67972   0.00000  Uiso   1.00
H989   H     0.43207   0.04628   0.72889   0.00000  Uiso   1.00
H990   H     0.42672   0.11166   0.74302   0.00000  Uiso   1.00
H991   H     0.38727   0.11803   0.69068   0.00000  Uiso   1.00
C992   C     0.57406   0.22350   0.96093   0.00000  Uiso   1.00
C993   C     0.56965   0.26918   0.97059   0.00000  Uiso   1.00
H994   H     0.53515   0.27361   0.98695   0.00000  Uiso   1.00
H995   H     0.60396   0.28251   0.99384   0.00000  Uiso   1.00
H996   H     0.56795   0.28706   0.93778   0.00000  Uiso   1.00
H997   H     0.61273   0.21529   0.97598   0.00000  Uiso   1.00
H998   H     0.57327   0.22168   0.92365   0.00000  Uiso   1.00
Br999  Br    0.41443   0.10585   0.93152   0.00000  Uiso   1.00
Br1000 Br    0.58557   0.22748   0.73515   0.00000  Uiso   1.00
C1001  C     0.83763   0.08781   0.83413   0.00000  Uiso   1.00
C1002  C     0.82904   0.24552   0.83254   0.00000  Uiso   1.00
C1003  C     0.73488   0.16635   0.82160   0.00000  Uiso   1.00
C1004  C     0.93179   0.16699   0.84506   0.00000  Uiso   1.00
C1005  C     0.67975   0.16098   0.81612   0.00000  Uiso   1.00
C1006  C     0.98692   0.17236   0.85054   0.00000  Uiso   1.00
C1007  C     0.84704   0.02186   0.79449   0.00000  Uiso   1.00
C1008  C     0.81964   0.31148   0.87217   0.00000  Uiso   1.00
C1009  C     0.83353   0.31302   0.79096   0.00000  Uiso   1.00
C1010  C     0.83314   0.02032   0.87571   0.00000  Uiso   1.00
C1011  C     0.82501   0.29028   0.83123   0.00000  Uiso   1.00
C1012  C     0.84166   0.04306   0.83543   0.00000  Uiso   1.00
C1013  C     0.79939   0.13979   0.68694   0.00000  Uiso   1.00
C1014  C     0.86727   0.19354   0.97972   0.00000  Uiso   1.00
C1015  C     0.79899   0.14077   0.97080   0.00000  Uiso   1.00
C1016  C     0.86768   0.19256   0.69587   0.00000  Uiso   1.00
Cu1017 Cu    0.83333   0.16667   0.88022   0.00000  Uiso   1.00
Cu1018 Cu    0.83333   0.16666   0.78645   0.00000  Uiso   1.00
N1019  N     0.83335   0.16668   0.95069   0.00000  Uiso   1.00
N1020  N     0.83332   0.16666   0.71597   0.00000  Uiso   1.00
O1021  O     0.83333   0.10655   0.87291   0.00000  Uiso   1.00
O1022  O     0.83334   0.22678   0.79375   0.00000  Uiso   1.00
O1023  O     0.83333   0.10654   0.79372   0.00000  Uiso   1.00
O1024  O     0.83334   0.22679   0.87294   0.00000  Uiso   1.00
O1025  O     0.75828   0.16667   0.86379   0.00000  Uiso   1.00
O1026  O     0.90839   0.16666   0.80288   0.00000  Uiso   1.00
O1027  O     0.75828   0.16666   0.78460   0.00000  Uiso   1.00
O1028  O     0.90839   0.16667   0.88207   0.00000  Uiso   1.00
Br1029 Br    0.98272   0.13008   0.76091   0.00000  Uiso   1.00
Br1030 Br    0.68395   0.20325   0.90576   0.00000  Uiso   1.00
Br1031 Br    0.88351   0.04740   0.74691   0.00000  Uiso   1.00
Br1032 Br    0.78316   0.28594   0.91976   0.00000  Uiso   1.00
Br1033 Br    0.81503   0.29046   0.72894   0.00000  Uiso   1.00
Br1034 Br    0.85164   0.04287   0.93773   0.00000  Uiso   1.00
C1035  C     0.75928   0.10983   0.70573   0.00000  Uiso   1.00
C1036  C     0.76370   0.06416   0.69608   0.00000  Uiso   1.00
H1037  H     0.72940   0.05082   0.67282   0.00000  Uiso   1.00
H1038  H     0.79820   0.05973   0.67972   0.00000  Uiso   1.00
H1039  H     0.76540   0.04628   0.72889   0.00000  Uiso   1.00
H1040  H     0.76006   0.11166   0.74302   0.00000  Uiso   1.00
H1041  H     0.72061   0.11803   0.69068   0.00000  Uiso   1.00
C1042  C     0.90739   0.22350   0.96093   0.00000  Uiso   1.00
C1043  C     0.90298   0.26918   0.97059   0.00000  Uiso   1.00
H1044  H     0.86848   0.27361   0.98695   0.00000  Uiso   1.00
H1045  H     0.93729   0.28251   0.99384   0.00000  Uiso   1.00
H1046  H     0.90128   0.28706   0.93778   0.00000  Uiso   1.00
H1047  H     0.94606   0.21529   0.97598   0.00000  Uiso   1.00
H1048  H     0.90661   0.22168   0.92365   0.00000  Uiso   1.00
Br1049 Br    0.74777   0.10585   0.93152   0.00000  Uiso   1.00
Br1050 Br    0.91890   0.22748   0.73515   0.00000  Uiso   1.00
C1051  C     0.17096   0.42114   0.83413   0.00000  Uiso   1.00
C1052  C     0.16237   0.57886   0.83254   0.00000  Uiso   1.00
C1053  C     0.06821   0.49968   0.82160   0.00000  Uiso   1.00
C1054  C     0.26512   0.50032   0.84506   0.00000  Uiso   1.00
C1055  C     0.01308   0.49431   0.81612   0.00000  Uiso   1.00
C1056  C     0.32025   0.50569   0.85054   0.00000  Uiso   1.00
C1057  C     0.18037   0.35519   0.79449   0.00000  Uiso   1.00
C1058  C     0.15297   0.64481   0.87217   0.00000  Uiso   1.00
C1059  C     0.16686   0.64635   0.79096   0.00000  Uiso   1.00
C1060  C     0.16647   0.35365   0.87571   0.00000  Uiso   1.00
C1061  C     0.15834   0.62361   0.83123   0.00000  Uiso   1.00
C1062  C     0.17500   0.37639   0.83543   0.00000  Uiso   1.00
C1063  C     0.13273   0.47312   0.68694   0.00000  Uiso   1.00
C1064  C     0.20060   0.52688   0.97972   0.00000  Uiso   1.00
C1065  C     0.13232   0.47411   0.97080   0.00000  Uiso   1.00
C1066  C     0.20101   0.52589   0.69587   0.00000  Uiso   1.00
Cu1067 Cu    0.16667   0.50001   0.88022   0.00000  Uiso   1.00
Cu1068 Cu    0.16667   0.49999   0.78645   0.00000  Uiso   1.00
N1069  N     0.16668   0.50001   0.95069   0.00000  Uiso   1.00
N1070  N     0.16665   0.49999   0.71597   0.00000  Uiso   1.00
O1071  O     0.16666   0.43989   0.87291   0.00000  Uiso   1.00
O1072  O     0.16667   0.56011   0.79375   0.00000  Uiso   1.00
O1073  O     0.16666   0.43988   0.79372   0.00000  Uiso   1.00
O1074  O     0.16667   0.56012   0.87294   0.00000  Uiso   1.00
O1075  O     0.09161   0.50000   0.86379   0.00000  Uiso   1.00
O1076  O     0.24172   0.50000   0.80288   0.00000  Uiso   1.00
O1077  O     0.09161   0.49999   0.78460   0.00000  Uiso   1.00
O1078  O     0.24172   0.50001   0.88207   0.00000  Uiso   1.00
Br1079 Br    0.31605   0.46341   0.76091   0.00000  Uiso   1.00
Br1080 Br    0.01728   0.53659   0.90576   0.00000  Uiso   1.00
Br1081 Br    0.21685   0.38073   0.74691   0.00000  Uiso   1.00
Br1082 Br    0.11650   0.61927   0.91976   0.00000  Uiso   1.00
Br1083 Br    0.14836   0.62380   0.72894   0.00000  Uiso   1.00
Br1084 Br    0.18498   0.37620   0.93773   0.00000  Uiso   1.00
C1085  C     0.09261   0.44316   0.70573   0.00000  Uiso   1.00
C1086  C     0.09703   0.39749   0.69608   0.00000  Uiso   1.00
H1087  H     0.06273   0.38415   0.67282   0.00000  Uiso   1.00
H1088  H     0.13154   0.39306   0.67972   0.00000  Uiso   1.00
H1089  H     0.09873   0.37961   0.72889   0.00000  Uiso   1.00
H1090  H     0.09339   0.44499   0.74302   0.00000  Uiso   1.00
H1091  H     0.05394   0.45136   0.69068   0.00000  Uiso   1.00
C1092  C     0.24073   0.55683   0.96093   0.00000  Uiso   1.00
C1093  C     0.23632   0.60251   0.97059   0.00000  Uiso   1.00
H1094  H     0.20181   0.60694   0.98695   0.00000  Uiso   1.00
H1095  H     0.27062   0.61584   0.99384   0.00000  Uiso   1.00
H1096  H     0.23461   0.62039   0.93778   0.00000  Uiso   1.00
H1097  H     0.27939   0.54863   0.97598   0.00000  Uiso   1.00
H1098  H     0.23994   0.55501   0.92365   0.00000  Uiso   1.00
Br1099 Br    0.08110   0.43919   0.93152   0.00000  Uiso   1.00
Br1100 Br    0.25223   0.56081   0.73515   0.00000  Uiso   1.00
C1101  C     0.50430   0.42114   0.83413   0.00000  Uiso   1.00
C1102  C     0.49570   0.57886   0.83254   0.00000  Uiso   1.00
C1103  C     0.40155   0.49968   0.82160   0.00000  Uiso   1.00
C1104  C     0.59845   0.50032   0.84506   0.00000  Uiso   1.00
C1105  C     0.34641   0.49431   0.81612   0.00000  Uiso   1.00
C1106  C     0.65358   0.50569   0.85054   0.00000  Uiso   1.00
C1107  C     0.51370   0.35519   0.79449   0.00000  Uiso   1.00
C1108  C     0.48630   0.64481   0.87217   0.00000  Uiso   1.00
C1109  C     0.50020   0.64635   0.79096   0.00000  Uiso   1.00
C1110  C     0.49981   0.35365   0.87571   0.00000  Uiso   1.00
C1111  C     0.49167   0.62361   0.83123   0.00000  Uiso   1.00
C1112  C     0.50833   0.37639   0.83543   0.00000  Uiso   1.00
C1113  C     0.46606   0.47312   0.68694   0.00000  Uiso   1.00
C1114  C     0.53394   0.52688   0.97972   0.00000  Uiso   1.00
C1115  C     0.46565   0.47411   0.97080   0.00000  Uiso   1.00
C1116  C     0.53435   0.52589   0.69587   0.00000  Uiso   1.00
Cu1117 Cu    0.50000   0.50001   0.88022   0.00000  Uiso   1.00
Cu1118 Cu    0.50000   0.49999   0.78645   0.00000  Uiso   1.00
N1119  N     0.50001   0.50001   0.95069   0.00000  Uiso   1.00
N1120  N     0.49999   0.49999   0.71597   0.00000  Uiso   1.00
O1121  O     0.50000   0.43989   0.87291   0.00000  Uiso   1.00
O1122  O     0.50000   0.56011   0.79375   0.00000  Uiso   1.00
O1123  O     0.50000   0.43988   0.79372   0.00000  Uiso   1.00
O1124  O     0.50000   0.56012   0.87294   0.00000  Uiso   1.00
O1125  O     0.42495   0.50000   0.86379   0.00000  Uiso   1.00
O1126  O     0.57505   0.50000   0.80288   0.00000  Uiso   1.00
O1127  O     0.42494   0.49999   0.78460   0.00000  Uiso   1.00
O1128  O     0.57506   0.50001   0.88207   0.00000  Uiso   1.00
Br1129 Br    0.64938   0.46341   0.76091   0.00000  Uiso   1.00
Br1130 Br    0.35062   0.53659   0.90576   0.00000  Uiso   1.00
Br1131 Br    0.55018   0.38073   0.74691   0.00000  Uiso   1.00
Br1132 Br    0.44983   0.61927   0.91976   0.00000  Uiso   1.00
Br1133 Br    0.48169   0.62380   0.72894   0.00000  Uiso   1.00
Br1134 Br    0.51831   0.37620   0.93773   0.00000  Uiso   1.00
C1135  C     0.42594   0.44316   0.70573   0.00000  Uiso   1.00
C1136  C     0.43036   0.39749   0.69608   0.00000  Uiso   1.00
H1137  H     0.39606   0.38415   0.67282   0.00000  Uiso   1.00
H1138  H     0.46487   0.39306   0.67972   0.00000  Uiso   1.00
H1139  H     0.43207   0.37961   0.72889   0.00000  Uiso   1.00
H1140  H     0.42672   0.44499   0.74302   0.00000  Uiso   1.00
H1141  H     0.38727   0.45136   0.69068   0.00000  Uiso   1.00
C1142  C     0.57406   0.55683   0.96093   0.00000  Uiso   1.00
C1143  C     0.56965   0.60251   0.97059   0.00000  Uiso   1.00
H1144  H     0.53515   0.60694   0.98695   0.00000  Uiso   1.00
H1145  H     0.60396   0.61584   0.99384   0.00000  Uiso   1.00
H1146  H     0.56795   0.62039   0.93778   0.00000  Uiso   1.00
H1147  H     0.61273   0.54863   0.97598   0.00000  Uiso   1.00
H1148  H     0.57327   0.55501   0.92365   0.00000  Uiso   1.00
Br1149 Br    0.41443   0.43919   0.93152   0.00000  Uiso   1.00
Br1150 Br    0.58557   0.56081   0.73515   0.00000  Uiso   1.00
C1151  C     0.83763   0.42114   0.83413   0.00000  Uiso   1.00
C1152  C     0.82904   0.57886   0.83254   0.00000  Uiso   1.00
C1153  C     0.73488   0.49968   0.82160   0.00000  Uiso   1.00
C1154  C     0.93179   0.50032   0.84506   0.00000  Uiso   1.00
C1155  C     0.67975   0.49431   0.81612   0.00000  Uiso   1.00
C1156  C     0.98692   0.50569   0.85054   0.00000  Uiso   1.00
C1157  C     0.84704   0.35519   0.79449   0.00000  Uiso   1.00
C1158  C     0.81964   0.64481   0.87217   0.00000  Uiso   1.00
C1159  C     0.83353   0.64635   0.79096   0.00000  Uiso   1.00
C1160  C     0.83314   0.35365   0.87571   0.00000  Uiso   1.00
C1161  C     0.82501   0.62361   0.83123   0.00000  Uiso   1.00
C1162  C     0.84166   0.37639   0.83543   0.00000  Uiso   1.00
C1163  C     0.79939   0.47312   0.68694   0.00000  Uiso   1.00
C1164  C     0.86727   0.52688   0.97972   0.00000  Uiso   1.00
C1165  C     0.79899   0.47411   0.97080   0.00000  Uiso   1.00
C1166  C     0.86768   0.52589   0.69587   0.00000  Uiso   1.00
Cu1167 Cu    0.83333   0.50001   0.88022   0.00000  Uiso   1.00
Cu1168 Cu    0.83333   0.49999   0.78645   0.00000  Uiso   1.00
N1169  N     0.83335   0.50001   0.95069   0.00000  Uiso   1.00
N1170  N     0.83332   0.49999   0.71597   0.00000  Uiso   1.00
O1171  O     0.83333   0.43989   0.87291   0.00000  Uiso   1.00
O1172  O     0.83334   0.56011   0.79375   0.00000  Uiso   1.00
O1173  O     0.83333   0.43988   0.79372   0.00000  Uiso   1.00
O1174  O     0.83334   0.56012   0.87294   0.00000  Uiso   1.00
O1175  O     0.75828   0.50000   0.86379   0.00000  Uiso   1.00
O1176  O     0.90839   0.50000   0.80288   0.00000  Uiso   1.00
O1177  O     0.75828   0.49999   0.78460   0.00000  Uiso   1.00
O1178  O     0.90839   0.50001   0.88207   0.00000  Uiso   1.00
Br1179 Br    0.98272   0.46341   0.76091   0.00000  Uiso   1.00
Br1180 Br    0.68395   0.53659   0.90576   0.00000  Uiso   1.00
Br1181 Br    0.88351   0.38073   0.74691   0.00000  Uiso   1.00
Br1182 Br    0.78316   0.61927   0.91976   0.00000  Uiso   1.00
Br1183 Br    0.81503   0.62380   0.72894   0.00000  Uiso   1.00
Br1184 Br    0.85164   0.37620   0.93773   0.00000  Uiso   1.00
C1185  C     0.75928   0.44316   0.70573   0.00000  Uiso   1.00
C1186  C     0.76370   0.39749   0.69608   0.00000  Uiso   1.00
H1187  H     0.72940   0.38415   0.67282   0.00000  Uiso   1.00
H1188  H     0.79820   0.39306   0.67972   0.00000  Uiso   1.00
H1189  H     0.76540   0.37961   0.72889   0.00000  Uiso   1.00
H1190  H     0.76006   0.44499   0.74302   0.00000  Uiso   1.00
H1191  H     0.72061   0.45136   0.69068   0.00000  Uiso   1.00
C1192  C     0.90739   0.55683   0.96093   0.00000  Uiso   1.00
C1193  C     0.90298   0.60251   0.97059   0.00000  Uiso   1.00
H1194  H     0.86848   0.60694   0.98695   0.00000  Uiso   1.00
H1195  H     0.93729   0.61584   0.99384   0.00000  Uiso   1.00
H1196  H     0.90128   0.62039   0.93778   0.00000  Uiso   1.00
H1197  H     0.94606   0.54863   0.97598   0.00000  Uiso   1.00
H1198  H     0.90661   0.55501   0.92365   0.00000  Uiso   1.00
Br1199 Br    0.74777   0.43919   0.93152   0.00000  Uiso   1.00
Br1200 Br    0.91890   0.56081   0.73515   0.00000  Uiso   1.00
C1201  C     0.17096   0.75448   0.83413   0.00000  Uiso   1.00
C1202  C     0.16237   0.91219   0.83254   0.00000  Uiso   1.00
C1203  C     0.06821   0.83301   0.82160   0.00000  Uiso   1.00
C1204  C     0.26512   0.83365   0.84506   0.00000  Uiso   1.00
C1205  C     0.01308   0.82764   0.81612   0.00000  Uiso   1.00
C1206  C     0.32025   0.83902   0.85054   0.00000  Uiso   1.00
C1207  C     0.18037   0.68853   0.79449   0.00000  Uiso   1.00
C1208  C     0.15297   0.97814   0.87217   0.00000  Uiso   1.00
C1209  C     0.16686   0.97969   0.79096   0.00000  Uiso   1.00
C1210  C     0.16647   0.68698   0.87571   0.00000  Uiso   1.00
C1211  C     0.15834   0.95694   0.83123   0.00000  Uiso   1.00
C1212  C     0.17500   0.70972   0.83543   0.00000  Uiso   1.00
C1213  C     0.13273   0.80646   0.68694   0.00000  Uiso   1.00
C1214  C     0.20060   0.86021   0.97972   0.00000  Uiso   1.00
C1215  C     0.13232   0.80744   0.97080   0.00000  Uiso   1.00
C1216  C     0.20101   0.85923   0.69587   0.00000  Uiso   1.00
Cu1217 Cu    0.16667   0.83334   0.88022   0.00000  Uiso   1.00
Cu1218 Cu    0.16667   0.83333   0.78645   0.00000  Uiso   1.00
N1219  N     0.16668   0.83334   0.95069   0.00000  Uiso   1.00
N1220  N     0.16665   0.83332   0.71597   0.00000  Uiso   1.00
O1221  O     0.16666   0.77322   0.87291   0.00000  Uiso   1.00
O1222  O     0.16667   0.89345   0.79375   0.00000  Uiso   1.00
O1223  O     0.16666   0.77321   0.79372   0.00000  Uiso   1.00
O1224  O     0.16667   0.89346   0.87294   0.00000  Uiso   1.00
O1225  O     0.09161   0.83334   0.86379   0.00000  Uiso   1.00
O1226  O     0.24172   0.83333   0.80288   0.00000  Uiso   1.00
O1227  O     0.09161   0.83333   0.78460   0.00000  Uiso   1.00
O1228  O     0.24172   0.83334   0.88207   0.00000  Uiso   1.00
Br1229 Br    0.31605   0.79675   0.76091   0.00000  Uiso   1.00
Br1230 Br    0.01728   0.86992   0.90576   0.00000  Uiso   1.00
Br1231 Br    0.21685   0.71406   0.74691   0.00000  Uiso   1.00
Br1232 Br    0.11650   0.95260   0.91976   0.00000  Uiso   1.00
Br1233 Br    0.14836   0.95713   0.72894   0.00000  Uiso   1.00
Br1234 Br    0.18498   0.70954   0.93773   0.00000  Uiso   1.00
C1235  C     0.09261   0.77650   0.70573   0.00000  Uiso   1.00
C1236  C     0.09703   0.73082   0.69608   0.00000  Uiso   1.00
H1237  H     0.06273   0.71749   0.67282   0.00000  Uiso   1.00
H1238  H     0.13154   0.72640   0.67972   0.00000  Uiso   1.00
H1239  H     0.09873   0.71294   0.72889   0.00000  Uiso   1.00
H1240  H     0.09339   0.77832   0.74302   0.00000  Uiso   1.00
H1241  H     0.05394   0.78470   0.69068   0.00000  Uiso   1.00
C1242  C     0.24073   0.89017   0.96093   0.00000  Uiso   1.00
C1243  C     0.23632   0.93584   0.97059   0.00000  Uiso   1.00
H1244  H     0.20181   0.94027   0.98695   0.00000  Uiso   1.00
H1245  H     0.27062   0.94918   0.99384   0.00000  Uiso   1.00
H1246  H     0.23461   0.95373   0.93778   0.00000  Uiso   1.00
H1247  H     0.27939   0.88196   0.97598   0.00000  Uiso   1.00
H1248  H     0.23994   0.88834   0.92365   0.00000  Uiso   1.00
Br1249 Br    0.08110   0.77252   0.93152   0.00000  Uiso   1.00
Br1250 Br    0.25223   0.89415   0.73515   0.00000  Uiso   1.00
C1251  C     0.50430   0.75448   0.83413   0.00000  Uiso   1.00
C1252  C     0.49570   0.91219   0.83254   0.00000  Uiso   1.00
C1253  C     0.40155   0.83301   0.82160   0.00000  Uiso   1.00
C1254  C     0.59845   0.83365   0.84506   0.00000  Uiso   1.00
C1255  C     0.34641   0.82764   0.81612   0.00000  Uiso   1.00
C1256  C     0.65358   0.83902   0.85054   0.00000  Uiso   1.00
C1257  C     0.51370   0.68853   0.79449   0.00000  Uiso   1.00
C1258  C     0.48630   0.97814   0.87217   0.00000  Uiso   1.00
C1259  C     0.50020   0.97969   0.79096   0.00000  Uiso   1.00
C1260  C     0.49981   0.68698   0.87571   0.00000  Uiso   1.00
C1261  C     0.49167   0.95694   0.83123   0.00000  Uiso   1.00
C1262  C     0.50833   0.70972   0.83543   0.00000  Uiso   1.00
C1263  C     0.46606   0.80646   0.68694   0.00000  Uiso   1.00
C1264  C     0.53394   0.86021   0.97972   0.00000  Uiso   1.00
C1265  C     0.46565   0.80744   0.97080   0.00000  Uiso   1.00
C1266  C     0.53435   0.85923   0.69587   0.00000  Uiso   1.00
Cu1267 Cu    0.50000   0.83334   0.88022   0.00000  Uiso   1.00
Cu1268 Cu    0.50000   0.83333   0.78645   0.00000  Uiso   1.00
N1269  N     0.50001   0.83334   0.95069   0.00000  Uiso   1.00
N1270  N     0.49999   0.83332   0.71597   0.00000  Uiso   1.00
O1271  O     0.50000   0.77322   0.87291   0.00000  Uiso   1.00
O1272  O     0.50000   0.89345   0.79375   0.00000  Uiso   1.00
O1273  O     0.50000   0.77321   0.79372   0.00000  Uiso   1.00
O1274  O     0.50000   0.89346   0.87294   0.00000  Uiso   1.00
O1275  O     0.42495   0.83334   0.86379   0.00000  Uiso   1.00
O1276  O     0.57505   0.83333   0.80288   0.00000  Uiso   1.00
O1277  O     0.42494   0.83333   0.78460   0.00000  Uiso   1.00
O1278  O     0.57506   0.83334   0.88207   0.00000  Uiso   1.00
Br1279 Br    0.64938   0.79675   0.76091   0.00000  Uiso   1.00
Br1280 Br    0.35062   0.86992   0.90576   0.00000  Uiso   1.00
Br1281 Br    0.55018   0.71406   0.74691   0.00000  Uiso   1.00
Br1282 Br    0.44983   0.95260   0.91976   0.00000  Uiso   1.00
Br1283 Br    0.48169   0.95713   0.72894   0.00000  Uiso   1.00
Br1284 Br    0.51831   0.70954   0.93773   0.00000  Uiso   1.00
C1285  C     0.42594   0.77650   0.70573   0.00000  Uiso   1.00
C1286  C     0.43036   0.73082   0.69608   0.00000  Uiso   1.00
H1287  H     0.39606   0.71749   0.67282   0.00000  Uiso   1.00
H1288  H     0.46487   0.72640   0.67972   0.00000  Uiso   1.00
H1289  H     0.43207   0.71294   0.72889   0.00000  Uiso   1.00
H1290  H     0.42672   0.77832   0.74302   0.00000  Uiso   1.00
H1291  H     0.38727   0.78470   0.69068   0.00000  Uiso   1.00
C1292  C     0.57406   0.89017   0.96093   0.00000  Uiso   1.00
C1293  C     0.56965   0.93584   0.97059   0.00000  Uiso   1.00
H1294  H     0.53515   0.94027   0.98695   0.00000  Uiso   1.00
H1295  H     0.60396   0.94918   0.99384   0.00000  Uiso   1.00
H1296  H     0.56795   0.95373   0.93778   0.00000  Uiso   1.00
H1297  H     0.61273   0.88196   0.97598   0.00000  Uiso   1.00
H1298  H     0.57327   0.88834   0.92365   0.00000  Uiso   1.00
Br1299 Br    0.41443   0.77252   0.93152   0.00000  Uiso   1.00
Br1300 Br    0.58557   0.89415   0.73515   0.00000  Uiso   1.00
C1301  C     0.83763   0.75448   0.83413   0.00000  Uiso   1.00
C1302  C     0.82904   0.91219   0.83254   0.00000  Uiso   1.00
C1303  C     0.73488   0.83301   0.82160   0.00000  Uiso   1.00
C1304  C     0.93179   0.83365   0.84506   0.00000  Uiso   1.00
C1305  C     0.67975   0.82764   0.81612   0.00000  Uiso   1.00
C1306  C     0.98692   0.83902   0.85054   0.00000  Uiso   1.00
C1307  C     0.84704   0.68853   0.79449   0.00000  Uiso   1.00
C1308  C     0.81964   0.97814   0.87217   0.00000  Uiso   1.00
C1309  C     0.83353   0.97969   0.79096   0.00000  Uiso   1.00
C1310  C     0.83314   0.68698   0.87571   0.00000  Uiso   1.00
C1311  C     0.82501   0.95694   0.83123   0.00000  Uiso   1.00
C1312  C     0.84166   0.70972   0.83543   0.00000  Uiso   1.00
C1313  C     0.79939   0.80646   0.68694   0.00000  Uiso   1.00
C1314  C     0.86727   0.86021   0.97972   0.00000  Uiso   1.00
C1315  C     0.79899   0.80744   0.97080   0.00000  Uiso   1.00
C1316  C     0.86768   0.85923   0.69587   0.00000  Uiso   1.00
Cu1317 Cu    0.83333   0.83334   0.88022   0.00000  Uiso   1.00
Cu1318 Cu    0.83333   0.83333   0.78645   0.00000  Uiso   1.00
N1319  N     0.83335   0.83334   0.95069   0.00000  Uiso   1.00
N1320  N     0.83332   0.83332   0.71597   0.00000  Uiso   1.00
O1321  O     0.83333   0.77322   0.87291   0.00000  Uiso   1.00
O1322  O     0.83334   0.89345   0.79375   0.00000  Uiso   1.00
O1323  O     0.83333   0.77321   0.79372   0.00000  Uiso   1.00
O1324  O     0.83334   0.89346   0.87294   0.00000  Uiso   1.00
O1325  O     0.75828   0.83334   0.86379   0.00000  Uiso   1.00
O1326  O     0.90839   0.83333   0.80288   0.00000  Uiso   1.00
O1327  O     0.75828   0.83333   0.78460   0.00000  Uiso   1.00
O1328  O     0.90839   0.83334   0.88207   0.00000  Uiso   1.00
Br1329 Br    0.98272   0.79675   0.76091   0.00000  Uiso   1.00
Br1330 Br    0.68395   0.86992   0.90576   0.00000  Uiso   1.00
Br1331 Br    0.88351   0.71406   0.74691   0.00000  Uiso   1.00
Br1332 Br    0.78316   0.95260   0.91976   0.00000  Uiso   1.00
Br1333 Br    0.81503   0.95713   0.72894   0.00000  Uiso   1.00
Br1334 Br    0.85164   0.70954   0.93773   0.00000  Uiso   1.00
C1335  C     0.75928   0.77650   0.70573   0.00000  Uiso   1.00
C1336  C     0.76370   0.73082   0.69608   0.00000  Uiso   1.00
H1337  H     0.72940   0.71749   0.67282   0.00000  Uiso   1.00
H1338  H     0.79820   0.72640   0.67972   0.00000  Uiso   1.00
H1339  H     0.76540   0.71294   0.72889   0.00000  Uiso   1.00
H1340  H     0.76006   0.77832   0.74302   0.00000  Uiso   1.00
H1341  H     0.72061   0.78470   0.69068   0.00000  Uiso   1.00
C1342  C     0.90739   0.89017   0.96093   0.00000  Uiso   1.00
C1343  C     0.90298   0.93584   0.97059   0.00000  Uiso   1.00
H1344  H     0.86848   0.94027   0.98695   0.00000  Uiso   1.00
H1345  H     0.93729   0.94918   0.99384   0.00000  Uiso   1.00
H1346  H     0.90128   0.95373   0.93778   0.00000  Uiso   1.00
H1347  H     0.94606   0.88196   0.97598   0.00000  Uiso   1.00
H1348  H     0.90661   0.88834   0.92365   0.00000  Uiso   1.00
Br1349 Br    0.74777   0.77252   0.93152   0.00000  Uiso   1.00
Br1350 Br    0.91890   0.89415   0.73515   0.00000  Uiso   1.00
loop_
_geom_bond_atom_site_label_1
_geom_bond_atom_site_label_2
_geom_bond_distance
_geom_bond_site_symmetry_2
_ccdc_geom_bond_type
C1     O21     1.306   .     A
C1     O23     1.314   .     A
C1     C12     1.474   .     S
C2     O22     1.306   .     A
C2     C11     1.474   .     S
C2     O24     1.314   .     A
C3     O27     1.308   .     A
C3     O25     1.293   .     A
C3     C5      1.439   .     S
C4     O26     1.293   .     A
C4     C6      1.439   .     S
C4     O28     1.308   .     A
C5     C106    1.359   1_455 S
C5     Br129   1.935   1_455 S
C6     C55     1.359   .     S
C6     Br80    1.936   .     S
C7     C12     1.407   .     A
C7     Br31    1.931   .     S
C7     C309    1.391   1_545 S
C8     C11     1.407   .     A
C8     Br32    1.931   .     S
C8     C160    1.391   .     S
C9     Br33    1.930   .     S
C9     C11     1.412   .     A
C9     C157    1.391   .     S
C10    Br34    1.930   .     S
C10    C12     1.412   .     A
C10    C308    1.391   1_545 S
C13    C35     1.530   .     S
C13    N20     1.394   .     A
C13    C915    1.432   1_554 S
C14    C42     1.530   .     S
C14    N19     1.394   .     A
C14    C466    1.432   .     S
C15    N19     1.370   .     A
C15    Br49    1.936   .     S
C15    C463    1.432   .     S
C16    N20     1.370   .     A
C16    Br50    1.936   .     S
C16    C914    1.432   1_554 S
Cu17   O25     1.977   .     S
Cu17   Cu18    2.717   .     S
Cu17   O24     1.972   .     S
Cu17   N19     2.042   .     S
Cu17   O28     1.978   .     S
Cu17   O21     1.975   .     S
Cu18   N20     2.042   .     S
Cu18   O26     1.977   .     S
Cu18   O23     1.972   .     S
Cu18   O22     1.975   .     S
Cu18   O27     1.978   .     S
Br29   C55     1.935   .     S
Br30   C106    1.936   1_455 S
C35    C36     1.536   .     S
C35    H41     1.111   .     S
C35    H40     1.080   .     S
C36    H38     1.104   .     S
C36    H37     1.110   .     S
C36    H39     1.111   .     S
C42    H48     1.080   .     S
C42    H47     1.111   .     S
C42    C43     1.536   .     S
C43    H44     1.104   .     S
C43    H45     1.110   .     S
C43    H46     1.111   .     S
C51    O71     1.306   .     A
C51    O73     1.314   .     A
C51    C62     1.474   .     S
C52    O72     1.306   .     A
C52    C61     1.474   .     S
C52    O74     1.314   .     A
C53    O77     1.308   .     A
C53    O75     1.293   .     A
C53    C55     1.439   .     S
C54    O76     1.293   .     A
C54    C56     1.439   .     S
C54    O78     1.308   .     A
C56    C105    1.359   .     S
C56    Br130   1.936   .     S
C57    C62     1.407   .     A
C57    Br81    1.931   .     S
C57    C359    1.391   1_545 S
C58    C61     1.407   .     A
C58    Br82    1.931   .     S
C58    C210    1.391   .     S
C59    Br83    1.930   .     S
C59    C61     1.412   .     A
C59    C207    1.391   .     S
C60    Br84    1.930   .     S
C60    C62     1.412   .     A
C60    C358    1.391   1_545 S
C63    C85     1.530   .     S
C63    N70     1.394   .     A
C63    C965    1.432   1_554 S
C64    C92     1.530   .     S
C64    N69     1.394   .     A
C64    C516    1.432   .     S
C65    N69     1.370   .     A
C65    Br99    1.936   .     S
C65    C513    1.432   .     S
C66    N70     1.370   .     A
C66    Br100   1.936   .     S
C66    C964    1.432   1_554 S
Cu67   O75     1.977   .     S
Cu67   Cu68    2.717   .     S
Cu67   O74     1.972   .     S
Cu67   N69     2.042   .     S
Cu67   O78     1.978   .     S
Cu67   O71     1.975   .     S
Cu68   N70     2.042   .     S
Cu68   O76     1.977   .     S
Cu68   O73     1.972   .     S
Cu68   O72     1.975   .     S
Cu68   O77     1.978   .     S
Br79   C105    1.935   .     S
C85    C86     1.536   .     S
C85    H91     1.111   .     S
C85    H90     1.080   .     S
C86    H88     1.104   .     S
C86    H87     1.110   .     S
C86    H89     1.111   .     S
C92    H98     1.080   .     S
C92    H97     1.111   .     S
C92    C93     1.536   .     S
C93    H94     1.104   .     S
C93    H95     1.110   .     S
C93    H96     1.111   .     S
C101   O121    1.306   .     A
C101   O123    1.314   .     A
C101   C112    1.474   .     S
C102   O122    1.306   .     A
C102   C111    1.474   .     S
C102   O124    1.314   .     A
C103   O127    1.308   .     A
C103   O125    1.293   .     A
C103   C105    1.439   .     S
C104   O126    1.293   .     A
C104   C106    1.439   .     S
C104   O128    1.308   .     A
C106   C5      1.359   1_655 S
C106   Br30    1.936   1_655 S
C107   C112    1.407   .     A
C107   Br131   1.931   .     S
C107   C409    1.391   1_545 S
C108   C111    1.407   .     A
C108   Br132   1.931   .     S
C108   C260    1.391   .     S
C109   Br133   1.930   .     S
C109   C111    1.412   .     A
C109   C257    1.391   .     S
C110   Br134   1.930   .     S
C110   C112    1.412   .     A
C110   C408    1.391   1_545 S
C113   C135    1.530   .     S
C113   N120    1.394   .     A
C113   C1015   1.432   1_554 S
C114   C142    1.530   .     S
C114   N119    1.394   .     A
C114   C566    1.432   .     S
C115   N119    1.370   .     A
C115   Br149   1.936   .     S
C115   C563    1.432   .     S
C116   N120    1.370   .     A
C116   Br150   1.936   .     S
C116   C1014   1.432   1_554 S
Cu117  O125    1.977   .     S
Cu117  Cu118   2.717   .     S
Cu117  O124    1.972   .     S
Cu117  N119    2.042   .     S
Cu117  O128    1.978   .     S
Cu117  O121    1.975   .     S
Cu118  N120    2.042   .     S
Cu118  O126    1.977   .     S
Cu118  O123    1.972   .     S
Cu118  O122    1.975   .     S
Cu118  O127    1.978   .     S
Br129  C5      1.935   1_655 S
C135   C136    1.536   .     S
C135   H141    1.111   .     S
C135   H140    1.080   .     S
C136   H138    1.104   .     S
C136   H137    1.110   .     S
C136   H139    1.111   .     S
C142   H148    1.080   .     S
C142   H147    1.111   .     S
C142   C143    1.536   .     S
C143   H144    1.104   .     S
C143   H145    1.110   .     S
C143   H146    1.111   .     S
C151   O171    1.306   .     A
C151   O173    1.314   .     A
C151   C162    1.474   .     S
C152   O172    1.306   .     A
C152   C161    1.474   .     S
C152   O174    1.314   .     A
C153   O177    1.308   .     A
C153   O175    1.293   .     A
C153   C155    1.439   .     S
C154   O176    1.293   .     A
C154   C156    1.439   .     S
C154   O178    1.308   .     A
C155   C256    1.359   1_455 S
C155   Br279   1.935   1_455 S
C156   C205    1.359   .     S
C156   Br230   1.936   .     S
C157   C162    1.407   .     A
C157   Br181   1.931   .     S
C158   C161    1.407   .     A
C158   Br182   1.931   .     S
C158   C310    1.391   .     S
C159   Br183   1.930   .     S
C159   C161    1.412   .     A
C159   C307    1.391   .     S
C160   Br184   1.930   .     S
C160   C162    1.412   .     A
C163   C185    1.530   .     S
C163   N170    1.394   .     A
C163   C1065   1.432   1_554 S
C164   C192    1.530   .     S
C164   N169    1.394   .     A
C164   C616    1.432   .     S
C165   N169    1.370   .     A
C165   Br199   1.936   .     S
C165   C613    1.432   .     S
C166   N170    1.370   .     A
C166   Br200   1.936   .     S
C166   C1064   1.432   1_554 S
Cu167  O175    1.977   .     S
Cu167  Cu168   2.717   .     S
Cu167  O174    1.972   .     S
Cu167  N169    2.042   .     S
Cu167  O178    1.978   .     S
Cu167  O171    1.975   .     S
Cu168  N170    2.042   .     S
Cu168  O176    1.977   .     S
Cu168  O173    1.972   .     S
Cu168  O172    1.975   .     S
Cu168  O177    1.978   .     S
Br179  C205    1.935   .     S
Br180  C256    1.936   1_455 S
C185   C186    1.536   .     S
C185   H191    1.111   .     S
C185   H190    1.080   .     S
C186   H188    1.104   .     S
C186   H187    1.110   .     S
C186   H189    1.111   .     S
C192   H198    1.080   .     S
C192   H197    1.111   .     S
C192   C193    1.536   .     S
C193   H194    1.104   .     S
C193   H195    1.110   .     S
C193   H196    1.111   .     S
C201   O221    1.306   .     A
C201   O223    1.314   .     A
C201   C212    1.474   .     S
C202   O222    1.306   .     A
C202   C211    1.474   .     S
C202   O224    1.314   .     A
C203   O227    1.308   .     A
C203   O225    1.293   .     A
C203   C205    1.439   .     S
C204   O226    1.293   .     A
C204   C206    1.439   .     S
C204   O228    1.308   .     A
C206   C255    1.359   .     S
C206   Br280   1.936   .     S
C207   C212    1.407   .     A
C207   Br231   1.931   .     S
C208   C211    1.407   .     A
C208   Br232   1.931   .     S
C208   C360    1.391   .     S
C209   Br233   1.930   .     S
C209   C211    1.412   .     A
C209   C357    1.391   .     S
C210   Br234   1.930   .     S
C210   C212    1.412   .     A
C213   C235    1.530   .     S
C213   N220    1.394   .     A
C213   C1115   1.432   1_554 S
C214   C242    1.530   .     S
C214   N219    1.394   .     A
C214   C666    1.432   .     S
C215   N219    1.370   .     A
C215   Br249   1.936   .     S
C215   C663    1.432   .     S
C216   N220    1.370   .     A
C216   Br250   1.936   .     S
C216   C1114   1.432   1_554 S
Cu217  O225    1.977   .     S
Cu217  Cu218   2.717   .     S
Cu217  O224    1.972   .     S
Cu217  N219    2.042   .     S
Cu217  O228    1.978   .     S
Cu217  O221    1.975   .     S
Cu218  N220    2.042   .     S
Cu218  O226    1.977   .     S
Cu218  O223    1.972   .     S
Cu218  O222    1.975   .     S
Cu218  O227    1.978   .     S
Br229  C255    1.935   .     S
C235   C236    1.536   .     S
C235   H241    1.111   .     S
C235   H240    1.080   .     S
C236   H238    1.104   .     S
C236   H237    1.110   .     S
C236   H239    1.111   .     S
C242   H248    1.080   .     S
C242   H247    1.111   .     S
C242   C243    1.536   .     S
C243   H244    1.104   .     S
C243   H245    1.110   .     S
C243   H246    1.111   .     S
C251   O271    1.306   .     A
C251   O273    1.314   .     A
C251   C262    1.474   .     S
C252   O272    1.306   .     A
C252   C261    1.474   .     S
C252   O274    1.314   .     A
C253   O277    1.308   .     A
C253   O275    1.293   .     A
C253   C255    1.439   .     S
C254   O276    1.293   .     A
C254   C256    1.439   .     S
C254   O278    1.308   .     A
C256   C155    1.359   1_655 S
C256   Br180   1.936   1_655 S
C257   C262    1.407   .     A
C257   Br281   1.931   .     S
C258   C261    1.407   .     A
C258   Br282   1.931   .     S
C258   C410    1.391   .     S
C259   Br283   1.930   .     S
C259   C261    1.412   .     A
C259   C407    1.391   .     S
C260   Br284   1.930   .     S
C260   C262    1.412   .     A
C263   C285    1.530   .     S
C263   N270    1.394   .     A
C263   C1165   1.432   1_554 S
C264   C292    1.530   .     S
C264   N269    1.394   .     A
C264   C716    1.432   .     S
C265   N269    1.370   .     A
C265   Br299   1.936   .     S
C265   C713    1.432   .     S
C266   N270    1.370   .     A
C266   Br300   1.936   .     S
C266   C1164   1.432   1_554 S
Cu267  O275    1.977   .     S
Cu267  Cu268   2.717   .     S
Cu267  O274    1.972   .     S
Cu267  N269    2.042   .     S
Cu267  O278    1.978   .     S
Cu267  O271    1.975   .     S
Cu268  N270    2.042   .     S
Cu268  O276    1.977   .     S
Cu268  O273    1.972   .     S
Cu268  O272    1.975   .     S
Cu268  O277    1.978   .     S
Br279  C155    1.935   1_655 S
C285   C286    1.536   .     S
C285   H291    1.111   .     S
C285   H290    1.080   .     S
C286   H288    1.104   .     S
C286   H287    1.110   .     S
C286   H289    1.111   .     S
C292   H298    1.080   .     S
C292   H297    1.111   .     S
C292   C293    1.536   .     S
C293   H294    1.104   .     S
C293   H295    1.110   .     S
C293   H296    1.111   .     S
C301   O321    1.306   .     A
C301   O323    1.314   .     A
C301   C312    1.474   .     S
C302   O322    1.306   .     A
C302   C311    1.474   .     S
C302   O324    1.314   .     A
C303   O327    1.308   .     A
C303   O325    1.293   .     A
C303   C305    1.439   .     S
C304   O326    1.293   .     A
C304   C306    1.439   .     S
C304   O328    1.308   .     A
C305   C406    1.359   1_455 S
C305   Br429   1.935   1_455 S
C306   C355    1.359   .     S
C306   Br380   1.936   .     S
C307   C312    1.407   .     A
C307   Br331   1.931   .     S
C308   C311    1.407   .     A
C308   Br332   1.931   .     S
C308   C10     1.391   1_565 S
C309   Br333   1.930   .     S
C309   C311    1.412   .     A
C309   C7      1.391   1_565 S
C310   Br334   1.930   .     S
C310   C312    1.412   .     A
C313   C335    1.530   .     S
C313   N320    1.394   .     A
C313   C1215   1.432   1_554 S
C314   C342    1.530   .     S
C314   N319    1.394   .     A
C314   C766    1.432   .     S
C315   N319    1.370   .     A
C315   Br349   1.936   .     S
C315   C763    1.432   .     S
C316   N320    1.370   .     A
C316   Br350   1.936   .     S
C316   C1214   1.432   1_554 S
Cu317  O325    1.977   .     S
Cu317  Cu318   2.717   .     S
Cu317  O324    1.972   .     S
Cu317  N319    2.042   .     S
Cu317  O328    1.978   .     S
Cu317  O321    1.975   .     S
Cu318  N320    2.042   .     S
Cu318  O326    1.977   .     S
Cu318  O323    1.972   .     S
Cu318  O322    1.975   .     S
Cu318  O327    1.978   .     S
Br329  C355    1.935   .     S
Br330  C406    1.936   1_455 S
C335   C336    1.536   .     S
C335   H341    1.111   .     S
C335   H340    1.080   .     S
C336   H338    1.104   .     S
C336   H337    1.110   .     S
C336   H339    1.111   .     S
C342   H348    1.080   .     S
C342   H347    1.111   .     S
C342   C343    1.536   .     S
C343   H344    1.104   .     S
C343   H345    1.110   .     S
C343   H346    1.111   .     S
C351   O371    1.306   .     A
C351   O373    1.314   .     A
C351   C362    1.474   .     S
C352   O372    1.306   .     A
C352   C361    1.474   .     S
C352   O374    1.314   .     A
C353   O377    1.308   .     A
C353   O375    1.293   .     A
C353   C355    1.439   .     S
C354   O376    1.293   .     A
C354   C356    1.439   .     S
C354   O378    1.308   .     A
C356   C405    1.359   .     S
C356   Br430   1.936   .     S
C357   C362    1.407   .     A
C357   Br381   1.931   .     S
C358   C361    1.407   .     A
C358   Br382   1.931   .     S
C358   C60     1.391   1_565 S
C359   Br383   1.930   .     S
C359   C361    1.412   .     A
C359   C57     1.391   1_565 S
C360   Br384   1.930   .     S
C360   C362    1.412   .     A
C363   C385    1.530   .     S
C363   N370    1.394   .     A
C363   C1265   1.432   1_554 S
C364   C392    1.530   .     S
C364   N369    1.394   .     A
C364   C816    1.432   .     S
C365   N369    1.370   .     A
C365   Br399   1.936   .     S
C365   C813    1.432   .     S
C366   N370    1.370   .     A
C366   Br400   1.936   .     S
C366   C1264   1.432   1_554 S
Cu367  O375    1.977   .     S
Cu367  Cu368   2.717   .     S
Cu367  O374    1.972   .     S
Cu367  N369    2.042   .     S
Cu367  O378    1.978   .     S
Cu367  O371    1.975   .     S
Cu368  N370    2.042   .     S
Cu368  O376    1.977   .     S
Cu368  O373    1.972   .     S
Cu368  O372    1.975   .     S
Cu368  O377    1.978   .     S
Br379  C405    1.935   .     S
C385   C386    1.536   .     S
C385   H391    1.111   .     S
C385   H390    1.080   .     S
C386   H388    1.104   .     S
C386   H387    1.110   .     S
C386   H389    1.111   .     S
C392   H398    1.080   .     S
C392   H397    1.111   .     S
C392   C393    1.536   .     S
C393   H394    1.104   .     S
C393   H395    1.110   .     S
C393   H396    1.111   .     S
C401   O421    1.306   .     A
C401   O423    1.314   .     A
C401   C412    1.474   .     S
C402   O422    1.306   .     A
C402   C411    1.474   .     S
C402   O424    1.314   .     A
C403   O427    1.308   .     A
C403   O425    1.293   .     A
C403   C405    1.439   .     S
C404   O426    1.293   .     A
C404   C406    1.439   .     S
C404   O428    1.308   .     A
C406   C305    1.359   1_655 S
C406   Br330   1.936   1_655 S
C407   C412    1.407   .     A
C407   Br431   1.931   .     S
C408   C411    1.407   .     A
C408   Br432   1.931   .     S
C408   C110    1.391   1_565 S
C409   Br433   1.930   .     S
C409   C411    1.412   .     A
C409   C107    1.391   1_565 S
C410   Br434   1.930   .     S
C410   C412    1.412   .     A
C413   C435    1.530   .     S
C413   N420    1.394   .     A
C413   C1315   1.432   1_554 S
C414   C442    1.530   .     S
C414   N419    1.394   .     A
C414   C866    1.432   .     S
C415   N419    1.370   .     A
C415   Br449   1.936   .     S
C415   C863    1.432   .     S
C416   N420    1.370   .     A
C416   Br450   1.936   .     S
C416   C1314   1.432   1_554 S
Cu417  O425    1.977   .     S
Cu417  Cu418   2.717   .     S
Cu417  O424    1.972   .     S
Cu417  N419    2.042   .     S
Cu417  O428    1.978   .     S
Cu417  O421    1.975   .     S
Cu418  N420    2.042   .     S
Cu418  O426    1.977   .     S
Cu418  O423    1.972   .     S
Cu418  O422    1.975   .     S
Cu418  O427    1.978   .     S
Br429  C305    1.935   1_655 S
C435   C436    1.536   .     S
C435   H441    1.111   .     S
C435   H440    1.080   .     S
C436   H438    1.104   .     S
C436   H437    1.110   .     S
C436   H439    1.111   .     S
C442   H448    1.080   .     S
C442   H447    1.111   .     S
C442   C443    1.536   .     S
C443   H444    1.104   .     S
C443   H445    1.110   .     S
C443   H446    1.111   .     S
C451   O471    1.306   .     A
C451   O473    1.314   .     A
C451   C462    1.474   .     S
C452   O472    1.306   .     A
C452   C461    1.474   .     S
C452   O474    1.314   .     A
C453   O477    1.308   .     A
C453   O475    1.293   .     A
C453   C455    1.439   .     S
C454   O476    1.293   .     A
C454   C456    1.439   .     S
C454   O478    1.308   .     A
C455   C556    1.359   1_455 S
C455   Br579   1.935   1_455 S
C456   C505    1.359   .     S
C456   Br530   1.936   .     S
C457   C462    1.407   .     A
C457   Br481   1.931   .     S
C457   C759    1.391   1_545 S
C458   C461    1.407   .     A
C458   Br482   1.931   .     S
C458   C610    1.391   .     S
C459   Br483   1.930   .     S
C459   C461    1.412   .     A
C459   C607    1.391   .     S
C460   Br484   1.930   .     S
C460   C462    1.412   .     A
C460   C758    1.391   1_545 S
C463   C485    1.530   .     S
C463   N470    1.394   .     A
C464   C492    1.530   .     S
C464   N469    1.394   .     A
C464   C916    1.432   .     S
C465   N469    1.370   .     A
C465   Br499   1.936   .     S
C465   C913    1.432   .     S
C466   N470    1.370   .     A
C466   Br500   1.936   .     S
Cu467  O475    1.977   .     S
Cu467  Cu468   2.717   .     S
Cu467  O474    1.972   .     S
Cu467  N469    2.042   .     S
Cu467  O478    1.978   .     S
Cu467  O471    1.975   .     S
Cu468  N470    2.042   .     S
Cu468  O476    1.977   .     S
Cu468  O473    1.972   .     S
Cu468  O472    1.975   .     S
Cu468  O477    1.978   .     S
Br479  C505    1.935   .     S
Br480  C556    1.936   1_455 S
C485   C486    1.536   .     S
C485   H491    1.111   .     S
C485   H490    1.080   .     S
C486   H488    1.104   .     S
C486   H487    1.110   .     S
C486   H489    1.111   .     S
C492   H498    1.080   .     S
C492   H497    1.111   .     S
C492   C493    1.536   .     S
C493   H494    1.104   .     S
C493   H495    1.110   .     S
C493   H496    1.111   .     S
C501   O521    1.306   .     A
C501   O523    1.314   .     A
C501   C512    1.474   .     S
C502   O522    1.306   .     A
C502   C511    1.474   .     S
C502   O524    1.314   .     A
C503   O527    1.308   .     A
C503   O525    1.293   .     A
C503   C505    1.439   .     S
C504   O526    1.293   .     A
C504   C506    1.439   .     S
C504   O528    1.308   .     A
C506   C555    1.359   .     S
C506   Br580   1.936   .     S
C507   C512    1.407   .     A
C507   Br531   1.931   .     S
C507   C809    1.391   1_545 S
C508   C511    1.407   .     A
C508   Br532   1.931   .     S
C508   C660    1.391   .     S
C509   Br533   1.930   .     S
C509   C511    1.412   .     A
C509   C657    1.391   .     S
C510   Br534   1.930   .     S
C510   C512    1.412   .     A
C510   C808    1.391   1_545 S
C513   C535    1.530   .     S
C513   N520    1.394   .     A
C514   C542    1.530   .     S
C514   N519    1.394   .     A
C514   C966    1.432   .     S
C515   N519    1.370   .     A
C515   Br549   1.936   .     S
C515   C963    1.432   .     S
C516   N520    1.370   .     A
C516   Br550   1.936   .     S
Cu517  O525    1.977   .     S
Cu517  Cu518   2.717   .     S
Cu517  O524    1.972   .     S
Cu517  N519    2.042   .     S
Cu517  O528    1.978   .     S
Cu517  O521    1.975   .     S
Cu518  N520    2.042   .     S
Cu518  O526    1.977   .     S
Cu518  O523    1.972   .     S
Cu518  O522    1.975   .     S
Cu518  O527    1.978   .     S
Br529  C555    1.935   .     S
C535   C536    1.536   .     S
C535   H541    1.111   .     S
C535   H540    1.080   .     S
C536   H538    1.104   .     S
C536   H537    1.110   .     S
C536   H539    1.111   .     S
C542   H548    1.080   .     S
C542   H547    1.111   .     S
C542   C543    1.536   .     S
C543   H544    1.104   .     S
C543   H545    1.110   .     S
C543   H546    1.111   .     S
C551   O571    1.306   .     A
C551   O573    1.314   .     A
C551   C562    1.474   .     S
C552   O572    1.306   .     A
C552   C561    1.474   .     S
C552   O574    1.314   .     A
C553   O577    1.308   .     A
C553   O575    1.293   .     A
C553   C555    1.439   .     S
C554   O576    1.293   .     A
C554   C556    1.439   .     S
C554   O578    1.308   .     A
C556   C455    1.359   1_655 S
C556   Br480   1.936   1_655 S
C557   C562    1.407   .     A
C557   Br581   1.931   .     S
C557   C859    1.391   1_545 S
C558   C561    1.407   .     A
C558   Br582   1.931   .     S
C558   C710    1.391   .     S
C559   Br583   1.930   .     S
C559   C561    1.412   .     A
C559   C707    1.391   .     S
C560   Br584   1.930   .     S
C560   C562    1.412   .     A
C560   C858    1.391   1_545 S
C563   C585    1.530   .     S
C563   N570    1.394   .     A
C564   C592    1.530   .     S
C564   N569    1.394   .     A
C564   C1016   1.432   .     S
C565   N569    1.370   .     A
C565   Br599   1.936   .     S
C565   C1013   1.432   .     S
C566   N570    1.370   .     A
C566   Br600   1.936   .     S
Cu567  O575    1.977   .     S
Cu567  Cu568   2.717   .     S
Cu567  O574    1.972   .     S
Cu567  N569    2.042   .     S
Cu567  O578    1.978   .     S
Cu567  O571    1.975   .     S
Cu568  N570    2.042   .     S
Cu568  O576    1.977   .     S
Cu568  O573    1.972   .     S
Cu568  O572    1.975   .     S
Cu568  O577    1.978   .     S
Br579  C455    1.935   1_655 S
C585   C586    1.536   .     S
C585   H591    1.111   .     S
C585   H590    1.080   .     S
C586   H588    1.104   .     S
C586   H587    1.110   .     S
C586   H589    1.111   .     S
C592   H598    1.080   .     S
C592   H597    1.111   .     S
C592   C593    1.536   .     S
C593   H594    1.104   .     S
C593   H595    1.110   .     S
C593   H596    1.111   .     S
C601   O621    1.306   .     A
C601   O623    1.314   .     A
C601   C612    1.474   .     S
C602   O622    1.306   .     A
C602   C611    1.474   .     S
C602   O624    1.314   .     A
C603   O627    1.308   .     A
C603   O625    1.293   .     A
C603   C605    1.439   .     S
C604   O626    1.293   .     A
C604   C606    1.439   .     S
C604   O628    1.308   .     A
C605   C706    1.359   1_455 S
C605   Br729   1.935   1_455 S
C606   C655    1.359   .     S
C606   Br680   1.936   .     S
C607   C612    1.407   .     A
C607   Br631   1.931   .     S
C608   C611    1.407   .     A
C608   Br632   1.931   .     S
C608   C760    1.391   .     S
C609   Br633   1.930   .     S
C609   C611    1.412   .     A
C609   C757    1.391   .     S
C610   Br634   1.930   .     S
C610   C612    1.412   .     A
C613   C635    1.530   .     S
C613   N620    1.394   .     A
C614   C642    1.530   .     S
C614   N619    1.394   .     A
C614   C1066   1.432   .     S
C615   N619    1.370   .     A
C615   Br649   1.936   .     S
C615   C1063   1.432   .     S
C616   N620    1.370   .     A
C616   Br650   1.936   .     S
Cu617  O625    1.977   .     S
Cu617  Cu618   2.717   .     S
Cu617  O624    1.972   .     S
Cu617  N619    2.042   .     S
Cu617  O628    1.978   .     S
Cu617  O621    1.975   .     S
Cu618  N620    2.042   .     S
Cu618  O626    1.977   .     S
Cu618  O623    1.972   .     S
Cu618  O622    1.975   .     S
Cu618  O627    1.978   .     S
Br629  C655    1.935   .     S
Br630  C706    1.936   1_455 S
C635   C636    1.536   .     S
C635   H641    1.111   .     S
C635   H640    1.080   .     S
C636   H638    1.104   .     S
C636   H637    1.110   .     S
C636   H639    1.111   .     S
C642   H648    1.080   .     S
C642   H647    1.111   .     S
C642   C643    1.536   .     S
C643   H644    1.104   .     S
C643   H645    1.110   .     S
C643   H646    1.111   .     S
C651   O671    1.306   .     A
C651   O673    1.314   .     A
C651   C662    1.474   .     S
C652   O672    1.306   .     A
C652   C661    1.474   .     S
C652   O674    1.314   .     A
C653   O677    1.308   .     A
C653   O675    1.293   .     A
C653   C655    1.439   .     S
C654   O676    1.293   .     A
C654   C656    1.439   .     S
C654   O678    1.308   .     A
C656   C705    1.359   .     S
C656   Br730   1.936   .     S
C657   C662    1.407   .     A
C657   Br681   1.931   .     S
C658   C661    1.407   .     A
C658   Br682   1.931   .     S
C658   C810    1.391   .     S
C659   Br683   1.930   .     S
C659   C661    1.412   .     A
C659   C807    1.391   .     S
C660   Br684   1.930   .     S
C660   C662    1.412   .     A
C663   C685    1.530   .     S
C663   N670    1.394   .     A
C664   C692    1.530   .     S
C664   N669    1.394   .     A
C664   C1116   1.432   .     S
C665   N669    1.370   .     A
C665   Br699   1.936   .     S
C665   C1113   1.432   .     S
C666   N670    1.370   .     A
C666   Br700   1.936   .     S
Cu667  O675    1.977   .     S
Cu667  Cu668   2.717   .     S
Cu667  O674    1.972   .     S
Cu667  N669    2.042   .     S
Cu667  O678    1.978   .     S
Cu667  O671    1.975   .     S
Cu668  N670    2.042   .     S
Cu668  O676    1.977   .     S
Cu668  O673    1.972   .     S
Cu668  O672    1.975   .     S
Cu668  O677    1.978   .     S
Br679  C705    1.935   .     S
C685   C686    1.536   .     S
C685   H691    1.111   .     S
C685   H690    1.080   .     S
C686   H688    1.104   .     S
C686   H687    1.110   .     S
C686   H689    1.111   .     S
C692   H698    1.080   .     S
C692   H697    1.111   .     S
C692   C693    1.536   .     S
C693   H694    1.104   .     S
C693   H695    1.110   .     S
C693   H696    1.111   .     S
C701   O721    1.306   .     A
C701   O723    1.314   .     A
C701   C712    1.474   .     S
C702   O722    1.306   .     A
C702   C711    1.474   .     S
C702   O724    1.314   .     A
C703   O727    1.308   .     A
C703   O725    1.293   .     A
C703   C705    1.439   .     S
C704   O726    1.293   .     A
C704   C706    1.439   .     S
C704   O728    1.308   .     A
C706   C605    1.359   1_655 S
C706   Br630   1.936   1_655 S
C707   C712    1.407   .     A
C707   Br731   1.931   .     S
C708   C711    1.407   .     A
C708   Br732   1.931   .     S
C708   C860    1.391   .     S
C709   Br733   1.930   .     S
C709   C711    1.412   .     A
C709   C857    1.391   .     S
C710   Br734   1.930   .     S
C710   C712    1.412   .     A
C713   C735    1.530   .     S
C713   N720    1.394   .     A
C714   C742    1.530   .     S
C714   N719    1.394   .     A
C714   C1166   1.432   .     S
C715   N719    1.370   .     A
C715   Br749   1.936   .     S
C715   C1163   1.432   .     S
C716   N720    1.370   .     A
C716   Br750   1.936   .     S
Cu717  O725    1.977   .     S
Cu717  Cu718   2.717   .     S
Cu717  O724    1.972   .     S
Cu717  N719    2.042   .     S
Cu717  O728    1.978   .     S
Cu717  O721    1.975   .     S
Cu718  N720    2.042   .     S
Cu718  O726    1.977   .     S
Cu718  O723    1.972   .     S
Cu718  O722    1.975   .     S
Cu718  O727    1.978   .     S
Br729  C605    1.935   1_655 S
C735   C736    1.536   .     S
C735   H741    1.111   .     S
C735   H740    1.080   .     S
C736   H738    1.104   .     S
C736   H737    1.110   .     S
C736   H739    1.111   .     S
C742   H748    1.080   .     S
C742   H747    1.111   .     S
C742   C743    1.536   .     S
C743   H744    1.104   .     S
C743   H745    1.110   .     S
C743   H746    1.111   .     S
C751   O771    1.306   .     A
C751   O773    1.314   .     A
C751   C762    1.474   .     S
C752   O772    1.306   .     A
C752   C761    1.474   .     S
C752   O774    1.314   .     A
C753   O777    1.308   .     A
C753   O775    1.293   .     A
C753   C755    1.439   .     S
C754   O776    1.293   .     A
C754   C756    1.439   .     S
C754   O778    1.308   .     A
C755   C856    1.359   1_455 S
C755   Br879   1.935   1_455 S
C756   C805    1.359   .     S
C756   Br830   1.936   .     S
C757   C762    1.407   .     A
C757   Br781   1.931   .     S
C758   C761    1.407   .     A
C758   Br782   1.931   .     S
C758   C460    1.391   1_565 S
C759   Br783   1.930   .     S
C759   C761    1.412   .     A
C759   C457    1.391   1_565 S
C760   Br784   1.930   .     S
C760   C762    1.412   .     A
C763   C785    1.530   .     S
C763   N770    1.394   .     A
C764   C792    1.530   .     S
C764   N769    1.394   .     A
C764   C1216   1.432   .     S
C765   N769    1.370   .     A
C765   Br799   1.936   .     S
C765   C1213   1.432   .     S
C766   N770    1.370   .     A
C766   Br800   1.936   .     S
Cu767  O775    1.977   .     S
Cu767  Cu768   2.717   .     S
Cu767  O774    1.972   .     S
Cu767  N769    2.042   .     S
Cu767  O778    1.978   .     S
Cu767  O771    1.975   .     S
Cu768  N770    2.042   .     S
Cu768  O776    1.977   .     S
Cu768  O773    1.972   .     S
Cu768  O772    1.975   .     S
Cu768  O777    1.978   .     S
Br779  C805    1.935   .     S
Br780  C856    1.936   1_455 S
C785   C786    1.536   .     S
C785   H791    1.111   .     S
C785   H790    1.080   .     S
C786   H788    1.104   .     S
C786   H787    1.110   .     S
C786   H789    1.111   .     S
C792   H798    1.080   .     S
C792   H797    1.111   .     S
C792   C793    1.536   .     S
C793   H794    1.104   .     S
C793   H795    1.110   .     S
C793   H796    1.111   .     S
C801   O821    1.306   .     A
C801   O823    1.314   .     A
C801   C812    1.474   .     S
C802   O822    1.306   .     A
C802   C811    1.474   .     S
C802   O824    1.314   .     A
C803   O827    1.308   .     A
C803   O825    1.293   .     A
C803   C805    1.439   .     S
C804   O826    1.293   .     A
C804   C806    1.439   .     S
C804   O828    1.308   .     A
C806   C855    1.359   .     S
C806   Br880   1.936   .     S
C807   C812    1.407   .     A
C807   Br831   1.931   .     S
C808   C811    1.407   .     A
C808   Br832   1.931   .     S
C808   C510    1.391   1_565 S
C809   Br833   1.930   .     S
C809   C811    1.412   .     A
C809   C507    1.391   1_565 S
C810   Br834   1.930   .     S
C810   C812    1.412   .     A
C813   C835    1.530   .     S
C813   N820    1.394   .     A
C814   C842    1.530   .     S
C814   N819    1.394   .     A
C814   C1266   1.432   .     S
C815   N819    1.370   .     A
C815   Br849   1.936   .     S
C815   C1263   1.432   .     S
C816   N820    1.370   .     A
C816   Br850   1.936   .     S
Cu817  O825    1.977   .     S
Cu817  Cu818   2.717   .     S
Cu817  O824    1.972   .     S
Cu817  N819    2.042   .     S
Cu817  O828    1.978   .     S
Cu817  O821    1.975   .     S
Cu818  N820    2.042   .     S
Cu818  O826    1.977   .     S
Cu818  O823    1.972   .     S
Cu818  O822    1.975   .     S
Cu818  O827    1.978   .     S
Br829  C855    1.935   .     S
C835   C836    1.536   .     S
C835   H841    1.111   .     S
C835   H840    1.080   .     S
C836   H838    1.104   .     S
C836   H837    1.110   .     S
C836   H839    1.111   .     S
C842   H848    1.080   .     S
C842   H847    1.111   .     S
C842   C843    1.536   .     S
C843   H844    1.104   .     S
C843   H845    1.110   .     S
C843   H846    1.111   .     S
C851   O871    1.306   .     A
C851   O873    1.314   .     A
C851   C862    1.474   .     S
C852   O872    1.306   .     A
C852   C861    1.474   .     S
C852   O874    1.314   .     A
C853   O877    1.308   .     A
C853   O875    1.293   .     A
C853   C855    1.439   .     S
C854   O876    1.293   .     A
C854   C856    1.439   .     S
C854   O878    1.308   .     A
C856   C755    1.359   1_655 S
C856   Br780   1.936   1_655 S
C857   C862    1.407   .     A
C857   Br881   1.931   .     S
C858   C861    1.407   .     A
C858   Br882   1.931   .     S
C858   C560    1.391   1_565 S
C859   Br883   1.930   .     S
C859   C861    1.412   .     A
C859   C557    1.391   1_565 S
C860   Br884   1.930   .     S
C860   C862    1.412   .     A
C863   C885    1.530   .     S
C863   N870    1.394   .     A
C864   C892    1.530   .     S
C864   N869    1.394   .     A
C864   C1316   1.432   .     S
C865   N869    1.370   .     A
C865   Br899   1.936   .     S
C865   C1313   1.432   .     S
C866   N870    1.370   .     A
C866   Br900   1.936   .     S
Cu867  O875    1.977   .     S
Cu867  Cu868   2.717   .     S
Cu867  O874    1.972   .     S
Cu867  N869    2.042   .     S
Cu867  O878    1.978   .     S
Cu867  O871    1.975   .     S
Cu868  N870    2.042   .     S
Cu868  O876    1.977   .     S
Cu868  O873    1.972   .     S
Cu868  O872    1.975   .     S
Cu868  O877    1.978   .     S
Br879  C755    1.935   1_655 S
C885   C886    1.536   .     S
C885   H891    1.111   .     S
C885   H890    1.080   .     S
C886   H888    1.104   .     S
C886   H887    1.110   .     S
C886   H889    1.111   .     S
C892   H898    1.080   .     S
C892   H897    1.111   .     S
C892   C893    1.536   .     S
C893   H894    1.104   .     S
C893   H895    1.110   .     S
C893   H896    1.111   .     S
C901   O921    1.306   .     A
C901   O923    1.314   .     A
C901   C912    1.474   .     S
C902   O922    1.306   .     A
C902   C911    1.474   .     S
C902   O924    1.314   .     A
C903   O927    1.308   .     A
C903   O925    1.293   .     A
C903   C905    1.439   .     S
C904   O926    1.293   .     A
C904   C906    1.439   .     S
C904   O928    1.308   .     A
C905   C1006   1.359   1_455 S
C905   Br1029  1.935   1_455 S
C906   C955    1.359   .     S
C906   Br980   1.936   .     S
C907   C912    1.407   .     A
C907   Br931   1.931   .     S
C907   C1209   1.391   1_545 S
C908   C911    1.407   .     A
C908   Br932   1.931   .     S
C908   C1060   1.391   .     S
C909   Br933   1.930   .     S
C909   C911    1.412   .     A
C909   C1057   1.391   .     S
C910   Br934   1.930   .     S
C910   C912    1.412   .     A
C910   C1208   1.391   1_545 S
C913   C935    1.530   .     S
C913   N920    1.394   .     A
C914   C942    1.530   .     S
C914   N919    1.394   .     A
C914   C16     1.432   1_556 S
C915   N919    1.370   .     A
C915   Br949   1.936   .     S
C915   C13     1.432   1_556 S
C916   N920    1.370   .     A
C916   Br950   1.936   .     S
Cu917  O925    1.977   .     S
Cu917  Cu918   2.717   .     S
Cu917  O924    1.972   .     S
Cu917  N919    2.042   .     S
Cu917  O928    1.978   .     S
Cu917  O921    1.975   .     S
Cu918  N920    2.042   .     S
Cu918  O926    1.977   .     S
Cu918  O923    1.972   .     S
Cu918  O922    1.975   .     S
Cu918  O927    1.978   .     S
Br929  C955    1.935   .     S
Br930  C1006   1.936   1_455 S
C935   C936    1.536   .     S
C935   H941    1.111   .     S
C935   H940    1.080   .     S
C936   H938    1.104   .     S
C936   H937    1.110   .     S
C936   H939    1.111   .     S
C942   H948    1.080   .     S
C942   H947    1.111   .     S
C942   C943    1.536   .     S
C943   H944    1.104   .     S
C943   H945    1.110   .     S
C943   H946    1.111   .     S
C951   O971    1.306   .     A
C951   O973    1.314   .     A
C951   C962    1.474   .     S
C952   O972    1.306   .     A
C952   C961    1.474   .     S
C952   O974    1.314   .     A
C953   O977    1.308   .     A
C953   O975    1.293   .     A
C953   C955    1.439   .     S
C954   O976    1.293   .     A
C954   C956    1.439   .     S
C954   O978    1.308   .     A
C956   C1005   1.359   .     S
C956   Br1030  1.936   .     S
C957   C962    1.407   .     A
C957   Br981   1.931   .     S
C957   C1259   1.391   1_545 S
C958   C961    1.407   .     A
C958   Br982   1.931   .     S
C958   C1110   1.391   .     S
C959   Br983   1.930   .     S
C959   C961    1.412   .     A
C959   C1107   1.391   .     S
C960   Br984   1.930   .     S
C960   C962    1.412   .     A
C960   C1258   1.391   1_545 S
C963   C985    1.530   .     S
C963   N970    1.394   .     A
C964   C992    1.530   .     S
C964   N969    1.394   .     A
C964   C66     1.432   1_556 S
C965   N969    1.370   .     A
C965   Br999   1.936   .     S
C965   C63     1.432   1_556 S
C966   N970    1.370   .     A
C966   Br1000  1.936   .     S
Cu967  O975    1.977   .     S
Cu967  Cu968   2.717   .     S
Cu967  O974    1.972   .     S
Cu967  N969    2.042   .     S
Cu967  O978    1.978   .     S
Cu967  O971    1.975   .     S
Cu968  N970    2.042   .     S
Cu968  O976    1.977   .     S
Cu968  O973    1.972   .     S
Cu968  O972    1.975   .     S
Cu968  O977    1.978   .     S
Br979  C1005   1.935   .     S
C985   C986    1.536   .     S
C985   H991    1.111   .     S
C985   H990    1.080   .     S
C986   H988    1.104   .     S
C986   H987    1.110   .     S
C986   H989    1.111   .     S
C992   H998    1.080   .     S
C992   H997    1.111   .     S
C992   C993    1.536   .     S
C993   H994    1.104   .     S
C993   H995    1.110   .     S
C993   H996    1.111   .     S
C1001  O1021   1.306   .     A
C1001  O1023   1.314   .     A
C1001  C1012   1.474   .     S
C1002  O1022   1.306   .     A
C1002  C1011   1.474   .     S
C1002  O1024   1.314   .     A
C1003  O1027   1.308   .     A
C1003  O1025   1.293   .     A
C1003  C1005   1.439   .     S
C1004  O1026   1.293   .     A
C1004  C1006   1.439   .     S
C1004  O1028   1.308   .     A
C1006  C905    1.359   1_655 S
C1006  Br930   1.936   1_655 S
C1007  C1012   1.407   .     A
C1007  Br1031  1.931   .     S
C1007  C1309   1.391   1_545 S
C1008  C1011   1.407   .     A
C1008  Br1032  1.931   .     S
C1008  C1160   1.391   .     S
C1009  Br1033  1.930   .     S
C1009  C1011   1.412   .     A
C1009  C1157   1.391   .     S
C1010  Br1034  1.930   .     S
C1010  C1012   1.412   .     A
C1010  C1308   1.391   1_545 S
C1013  C1035   1.530   .     S
C1013  N1020   1.394   .     A
C1014  C1042   1.530   .     S
C1014  N1019   1.394   .     A
C1014  C116    1.432   1_556 S
C1015  N1019   1.370   .     A
C1015  Br1049  1.936   .     S
C1015  C113    1.432   1_556 S
C1016  N1020   1.370   .     A
C1016  Br1050  1.936   .     S
Cu1017 O1025   1.977   .     S
Cu1017 Cu1018  2.717   .     S
Cu1017 O1024   1.972   .     S
Cu1017 N1019   2.042   .     S
Cu1017 O1028   1.978   .     S
Cu1017 O1021   1.975   .     S
Cu1018 N1020   2.042   .     S
Cu1018 O1026   1.977   .     S
Cu1018 O1023   1.972   .     S
Cu1018 O1022   1.975   .     S
Cu1018 O1027   1.978   .     S
Br1029 C905    1.935   1_655 S
C1035  C1036   1.536   .     S
C1035  H1041   1.111   .     S
C1035  H1040   1.080   .     S
C1036  H1038   1.104   .     S
C1036  H1037   1.110   .     S
C1036  H1039   1.111   .     S
C1042  H1048   1.080   .     S
C1042  H1047   1.111   .     S
C1042  C1043   1.536   .     S
C1043  H1044   1.104   .     S
C1043  H1045   1.110   .     S
C1043  H1046   1.111   .     S
C1051  O1071   1.306   .     A
C1051  O1073   1.314   .     A
C1051  C1062   1.474   .     S
C1052  O1072   1.306   .     A
C1052  C1061   1.474   .     S
C1052  O1074   1.314   .     A
C1053  O1077   1.308   .     A
C1053  O1075   1.293   .     A
C1053  C1055   1.439   .     S
C1054  O1076   1.293   .     A
C1054  C1056   1.439   .     S
C1054  O1078   1.308   .     A
C1055  C1156   1.359   1_455 S
C1055  Br1179  1.935   1_455 S
C1056  C1105   1.359   .     S
C1056  Br1130  1.936   .     S
C1057  C1062   1.407   .     A
C1057  Br1081  1.931   .     S
C1058  C1061   1.407   .     A
C1058  Br1082  1.931   .     S
C1058  C1210   1.391   .     S
C1059  Br1083  1.930   .     S
C1059  C1061   1.412   .     A
C1059  C1207   1.391   .     S
C1060  Br1084  1.930   .     S
C1060  C1062   1.412   .     A
C1063  C1085   1.530   .     S
C1063  N1070   1.394   .     A
C1064  C1092   1.530   .     S
C1064  N1069   1.394   .     A
C1064  C166    1.432   1_556 S
C1065  N1069   1.370   .     A
C1065  Br1099  1.936   .     S
C1065  C163    1.432   1_556 S
C1066  N1070   1.370   .     A
C1066  Br1100  1.936   .     S
Cu1067 O1075   1.977   .     S
Cu1067 Cu1068  2.717   .     S
Cu1067 O1074   1.972   .     S
Cu1067 N1069   2.042   .     S
Cu1067 O1078   1.978   .     S
Cu1067 O1071   1.975   .     S
Cu1068 N1070   2.042   .     S
Cu1068 O1076   1.977   .     S
Cu1068 O1073   1.972   .     S
Cu1068 O1072   1.975   .     S
Cu1068 O1077   1.978   .     S
Br1079 C1105   1.935   .     S
Br1080 C1156   1.936   1_455 S
C1085  C1086   1.536   .     S
C1085  H1091   1.111   .     S
C1085  H1090   1.080   .     S
C1086  H1088   1.104   .     S
C1086  H1087   1.110   .     S
C1086  H1089   1.111   .     S
C1092  H1098   1.080   .     S
C1092  H1097   1.111   .     S
C1092  C1093   1.536   .     S
C1093  H1094   1.104   .     S
C1093  H1095   1.110   .     S
C1093  H1096   1.111   .     S
C1101  O1121   1.306   .     A
C1101  O1123   1.314   .     A
C1101  C1112   1.474   .     S
C1102  O1122   1.306   .     A
C1102  C1111   1.474   .     S
C1102  O1124   1.314   .     A
C1103  O1127   1.308   .     A
C1103  O1125   1.293   .     A
C1103  C1105   1.439   .     S
C1104  O1126   1.293   .     A
C1104  C1106   1.439   .     S
C1104  O1128   1.308   .     A
C1106  C1155   1.359   .     S
C1106  Br1180  1.936   .     S
C1107  C1112   1.407   .     A
C1107  Br1131  1.931   .     S
C1108  C1111   1.407   .     A
C1108  Br1132  1.931   .     S
C1108  C1260   1.391   .     S
C1109  Br1133  1.930   .     S
C1109  C1111   1.412   .     A
C1109  C1257   1.391   .     S
C1110  Br1134  1.930   .     S
C1110  C1112   1.412   .     A
C1113  C1135   1.530   .     S
C1113  N1120   1.394   .     A
C1114  C1142   1.530   .     S
C1114  N1119   1.394   .     A
C1114  C216    1.432   1_556 S
C1115  N1119   1.370   .     A
C1115  Br1149  1.936   .     S
C1115  C213    1.432   1_556 S
C1116  N1120   1.370   .     A
C1116  Br1150  1.936   .     S
Cu1117 O1125   1.977   .     S
Cu1117 Cu1118  2.717   .     S
Cu1117 O1124   1.972   .     S
Cu1117 N1119   2.042   .     S
Cu1117 O1128   1.978   .     S
Cu1117 O1121   1.975   .     S
Cu1118 N1120   2.042   .     S
Cu1118 O1126   1.977   .     S
Cu1118 O1123   1.972   .     S
Cu1118 O1122   1.975   .     S
Cu1118 O1127   1.978   .     S
Br1129 C1155   1.935   .     S
C1135  C1136   1.536   .     S
C1135  H1141   1.111   .     S
C1135  H1140   1.080   .     S
C1136  H1138   1.104   .     S
C1136  H1137   1.110   .     S
C1136  H1139   1.111   .     S
C1142  H1148   1.080   .     S
C1142  H1147   1.111   .     S
C1142  C1143   1.536   .     S
C1143  H1144   1.104   .     S
C1143  H1145   1.110   .     S
C1143  H1146   1.111   .     S
C1151  O1171   1.306   .     A
C1151  O1173   1.314   .     A
C1151  C1162   1.474   .     S
C1152  O1172   1.306   .     A
C1152  C1161   1.474   .     S
C1152  O1174   1.314   .     A
C1153  O1177   1.308   .     A
C1153  O1175   1.293   .     A
C1153  C1155   1.439   .     S
C1154  O1176   1.293   .     A
C1154  C1156   1.439   .     S
C1154  O1178   1.308   .     A
C1156  C1055   1.359   1_655 S
C1156  Br1080  1.936   1_655 S
C1157  C1162   1.407   .     A
C1157  Br1181  1.931   .     S
C1158  C1161   1.407   .     A
C1158  Br1182  1.931   .     S
C1158  C1310   1.391   .     S
C1159  Br1183  1.930   .     S
C1159  C1161   1.412   .     A
C1159  C1307   1.391   .     S
C1160  Br1184  1.930   .     S
C1160  C1162   1.412   .     A
C1163  C1185   1.530   .     S
C1163  N1170   1.394   .     A
C1164  C1192   1.530   .     S
C1164  N1169   1.394   .     A
C1164  C266    1.432   1_556 S
C1165  N1169   1.370   .     A
C1165  Br1199  1.936   .     S
C1165  C263    1.432   1_556 S
C1166  N1170   1.370   .     A
C1166  Br1200  1.936   .     S
Cu1167 O1175   1.977   .     S
Cu1167 Cu1168  2.717   .     S
Cu1167 O1174   1.972   .     S
Cu1167 N1169   2.042   .     S
Cu1167 O1178   1.978   .     S
Cu1167 O1171   1.975   .     S
Cu1168 N1170   2.042   .     S
Cu1168 O1176   1.977   .     S
Cu1168 O1173   1.972   .     S
Cu1168 O1172   1.975   .     S
Cu1168 O1177   1.978   .     S
Br1179 C1055   1.935   1_655 S
C1185  C1186   1.536   .     S
C1185  H1191   1.111   .     S
C1185  H1190   1.080   .     S
C1186  H1188   1.104   .     S
C1186  H1187   1.110   .     S
C1186  H1189   1.111   .     S
C1192  H1198   1.080   .     S
C1192  H1197   1.111   .     S
C1192  C1193   1.536   .     S
C1193  H1194   1.104   .     S
C1193  H1195   1.110   .     S
C1193  H1196   1.111   .     S
C1201  O1221   1.306   .     A
C1201  O1223   1.314   .     A
C1201  C1212   1.474   .     S
C1202  O1222   1.306   .     A
C1202  C1211   1.474   .     S
C1202  O1224   1.314   .     A
C1203  O1227   1.308   .     A
C1203  O1225   1.293   .     A
C1203  C1205   1.439   .     S
C1204  O1226   1.293   .     A
C1204  C1206   1.439   .     S
C1204  O1228   1.308   .     A
C1205  C1306   1.359   1_455 S
C1205  Br1329  1.935   1_455 S
C1206  C1255   1.359   .     S
C1206  Br1280  1.936   .     S
C1207  C1212   1.407   .     A
C1207  Br1231  1.931   .     S
C1208  C1211   1.407   .     A
C1208  Br1232  1.931   .     S
C1208  C910    1.391   1_565 S
C1209  Br1233  1.930   .     S
C1209  C1211   1.412   .     A
C1209  C907    1.391   1_565 S
C1210  Br1234  1.930   .     S
C1210  C1212   1.412   .     A
C1213  C1235   1.530   .     S
C1213  N1220   1.394   .     A
C1214  C1242   1.530   .     S
C1214  N1219   1.394   .     A
C1214  C316    1.432   1_556 S
C1215  N1219   1.370   .     A
C1215  Br1249  1.936   .     S
C1215  C313    1.432   1_556 S
C1216  N1220   1.370   .     A
C1216  Br1250  1.936   .     S
Cu1217 O1225   1.977   .     S
Cu1217 Cu1218  2.717   .     S
Cu1217 O1224   1.972   .     S
Cu1217 N1219   2.042   .     S
Cu1217 O1228   1.978   .     S
Cu1217 O1221   1.975   .     S
Cu1218 N1220   2.042   .     S
Cu1218 O1226   1.977   .     S
Cu1218 O1223   1.972   .     S
Cu1218 O1222   1.975   .     S
Cu1218 O1227   1.978   .     S
Br1229 C1255   1.935   .     S
Br1230 C1306   1.936   1_455 S
C1235  C1236   1.536   .     S
C1235  H1241   1.111   .     S
C1235  H1240   1.080   .     S
C1236  H1238   1.104   .     S
C1236  H1237   1.110   .     S
C1236  H1239   1.111   .     S
C1242  H1248   1.080   .     S
C1242  H1247   1.111   .     S
C1242  C1243   1.536   .     S
C1243  H1244   1.104   .     S
C1243  H1245   1.110   .     S
C1243  H1246   1.111   .     S
C1251  O1271   1.306   .     A
C1251  O1273   1.314   .     A
C1251  C1262   1.474   .     S
C1252  O1272   1.306   .     A
C1252  C1261   1.474   .     S
C1252  O1274   1.314   .     A
C1253  O1277   1.308   .     A
C1253  O1275   1.293   .     A
C1253  C1255   1.439   .     S
C1254  O1276   1.293   .     A
C1254  C1256   1.439   .     S
C1254  O1278   1.308   .     A
C1256  C1305   1.359   .     S
C1256  Br1330  1.936   .     S
C1257  C1262   1.407   .     A
C1257  Br1281  1.931   .     S
C1258  C1261   1.407   .     A
C1258  Br1282  1.931   .     S
C1258  C960    1.391   1_565 S
C1259  Br1283  1.930   .     S
C1259  C1261   1.412   .     A
C1259  C957    1.391   1_565 S
C1260  Br1284  1.930   .     S
C1260  C1262   1.412   .     A
C1263  C1285   1.530   .     S
C1263  N1270   1.394   .     A
C1264  C1292   1.530   .     S
C1264  N1269   1.394   .     A
C1264  C366    1.432   1_556 S
C1265  N1269   1.370   .     A
C1265  Br1299  1.936   .     S
C1265  C363    1.432   1_556 S
C1266  N1270   1.370   .     A
C1266  Br1300  1.936   .     S
Cu1267 O1275   1.977   .     S
Cu1267 Cu1268  2.717   .     S
Cu1267 O1274   1.972   .     S
Cu1267 N1269   2.042   .     S
Cu1267 O1278   1.978   .     S
Cu1267 O1271   1.975   .     S
Cu1268 N1270   2.042   .     S
Cu1268 O1276   1.977   .     S
Cu1268 O1273   1.972   .     S
Cu1268 O1272   1.975   .     S
Cu1268 O1277   1.978   .     S
Br1279 C1305   1.935   .     S
C1285  C1286   1.536   .     S
C1285  H1291   1.111   .     S
C1285  H1290   1.080   .     S
C1286  H1288   1.104   .     S
C1286  H1287   1.110   .     S
C1286  H1289   1.111   .     S
C1292  H1298   1.080   .     S
C1292  H1297   1.111   .     S
C1292  C1293   1.536   .     S
C1293  H1294   1.104   .     S
C1293  H1295   1.110   .     S
C1293  H1296   1.111   .     S
C1301  O1321   1.306   .     A
C1301  O1323   1.314   .     A
C1301  C1312   1.474   .     S
C1302  O1322   1.306   .     A
C1302  C1311   1.474   .     S
C1302  O1324   1.314   .     A
C1303  O1327   1.308   .     A
C1303  O1325   1.293   .     A
C1303  C1305   1.439   .     S
C1304  O1326   1.293   .     A
C1304  C1306   1.439   .     S
C1304  O1328   1.308   .     A
C1306  C1205   1.359   1_655 S
C1306  Br1230  1.936   1_655 S
C1307  C1312   1.407   .     A
C1307  Br1331  1.931   .     S
C1308  C1311   1.407   .     A
C1308  Br1332  1.931   .     S
C1308  C1010   1.391   1_565 S
C1309  Br1333  1.930   .     S
C1309  C1311   1.412   .     A
C1309  C1007   1.391   1_565 S
C1310  Br1334  1.930   .     S
C1310  C1312   1.412   .     A
C1313  C1335   1.530   .     S
C1313  N1320   1.394   .     A
C1314  C1342   1.530   .     S
C1314  N1319   1.394   .     A
C1314  C416    1.432   1_556 S
C1315  N1319   1.370   .     A
C1315  Br1349  1.936   .     S
C1315  C413    1.432   1_556 S
C1316  N1320   1.370   .     A
C1316  Br1350  1.936   .     S
Cu1317 O1325   1.977   .     S
Cu1317 Cu1318  2.717   .     S
Cu1317 O1324   1.972   .     S
Cu1317 N1319   2.042   .     S
Cu1317 O1328   1.978   .     S
Cu1317 O1321   1.975   .     S
Cu1318 N1320   2.042   .     S
Cu1318 O1326   1.977   .     S
Cu1318 O1323   1.972   .     S
Cu1318 O1322   1.975   .     S
Cu1318 O1327   1.978   .     S
Br1329 C1205   1.935   1_655 S
C1335  C1336   1.536   .     S
C1335  H1341   1.111   .     S
C1335  H1340   1.080   .     S
C1336  H1338   1.104   .     S
C1336  H1337   1.110   .     S
C1336  H1339   1.111   .     S
C1342  H1348   1.080   .     S
C1342  H1347   1.111   .     S
C1342  C1343   1.536   .     S
C1343  H1344   1.104   .     S
C1343  H1345   1.110   .     S
C1343  H1346   1.111   .     S
