data_str_m2_o1_o16_pcu_sym.160
_audit_creation_date              2020-01-03
_audit_creation_method            'Materials Studio'
_symmetry_space_group_name_H-M    'P1'
_symmetry_Int_Tables_number       1
_symmetry_cell_setting            triclinic
loop_
_symmetry_equiv_pos_as_xyz
  x,y,z
_cell_length_a                    28.5402
_cell_length_b                    32.4138
_cell_length_c                    26.8795
_cell_angle_alpha                 89.5834
_cell_angle_beta                  73.7396
_cell_angle_gamma                 89.9787
loop_
_atom_site_label
_atom_site_type_symbol
_atom_site_fract_x
_atom_site_fract_y
_atom_site_fract_z
_atom_site_U_iso_or_equiv
_atom_site_adp_type
_atom_site_occupancy
C1     C     0.16664   0.24591   0.25012   0.00000  Uiso   1.00
C2     C     0.14673   0.17729   0.48887   0.00000  Uiso   1.00
C3     C     0.15844   0.18458   0.43495   0.00000  Uiso   1.00
C4     C     0.18072   0.18871   0.01592   0.00000  Uiso   1.00
C5     C     0.22894   0.19938   0.48814   0.00000  Uiso   1.00
C6     C     0.23800   0.21268   0.43629   0.00000  Uiso   1.00
C7     C     0.20173   0.20670   0.41098   0.00000  Uiso   1.00
C8     C     0.16818   0.19028   0.07016   0.00000  Uiso   1.00
C9     C     0.25405   0.18434   0.06562   0.00000  Uiso   1.00
C10    C     0.12673   0.16932   0.40684   0.00000  Uiso   1.00
C11    C     0.21023   0.31112   0.22332   0.00000  Uiso   1.00
C12    C     0.14104   0.16856   0.34988   0.00000  Uiso   1.00
C13    C     0.21114   0.02074   0.21997   0.00000  Uiso   1.00
C14    C     0.16812   0.04269   0.24498   0.00000  Uiso   1.00
C15    C     0.12491   0.02147   0.26942   0.00000  Uiso   1.00
C16    C     0.12427   0.31218   0.27074   0.00000  Uiso   1.00
C17    C     0.16709   0.29041   0.24850   0.00000  Uiso   1.00
C18    C     0.31407   0.19893   0.22899   0.00000  Uiso   1.00
C19    C     0.03019   0.19904   0.22934   0.00000  Uiso   1.00
C20    C     0.01934   0.13426   0.27068   0.00000  Uiso   1.00
C21    C     0.30307   0.13430   0.27076   0.00000  Uiso   1.00
C22    C     0.16732   0.08741   0.24772   0.00000  Uiso   1.00
C23    C     0.19208   0.17071   0.15041   0.00000  Uiso   1.00
C24    C     0.26579   0.19669   0.01366   0.00000  Uiso   1.00
C25    C     0.20497   0.18097   0.09470   0.00000  Uiso   1.00
C26    C     0.08289   0.14971   0.43325   0.00000  Uiso   1.00
C27    C     0.07101   0.14284   0.48664   0.00000  Uiso   1.00
C28    C     0.10345   0.15558   0.01381   0.00000  Uiso   1.00
Cu29   Cu    0.11978   0.16666   0.25000   0.00000  Uiso   1.00
Cu30   Cu    0.21355   0.16667   0.25000   0.00000  Uiso   1.00
H31    H     0.28317   0.17966   0.08364   0.00000  Uiso   1.00
H32    H     0.09172   0.03790   0.28843   0.00000  Uiso   1.00
H33    H     0.09067   0.29625   0.29012   0.00000  Uiso   1.00
H34    H     0.30003   0.22475   0.21190   0.00000  Uiso   1.00
H35    H     0.05298   0.22512   0.21301   0.00000  Uiso   1.00
H36    H     0.03338   0.10848   0.28782   0.00000  Uiso   1.00
H37    H     0.27999   0.10854   0.28793   0.00000  Uiso   1.00
H38    H     0.30380   0.20171   0.49326   0.00000  Uiso   1.00
H39    H     0.05921   0.13751   0.41167   0.00000  Uiso   1.00
H40    H     0.09532   0.14716   0.05437   0.00000  Uiso   1.00
H41    H     0.20832   0.21916   0.37224   0.00000  Uiso   1.00
H42    H     0.24264   0.29358   0.20454   0.00000  Uiso   1.00
N43    N     0.04931   0.16666   0.24999   0.00000  Uiso   1.00
N44    N     0.28402   0.16669   0.25000   0.00000  Uiso   1.00
O45    O     0.12708   0.22678   0.25001   0.00000  Uiso   1.00
O46    O     0.20627   0.22679   0.25001   0.00000  Uiso   1.00
O47    O     0.10775   0.16665   0.32549   0.00000  Uiso   1.00
O48    O     0.18694   0.16666   0.32549   0.00000  Uiso   1.00
O49    O     0.12706   0.10654   0.25000   0.00000  Uiso   1.00
O50    O     0.20625   0.10655   0.25000   0.00000  Uiso   1.00
O51    O     0.14640   0.16667   0.17451   0.00000  Uiso   1.00
O52    O     0.22559   0.16668   0.17451   0.00000  Uiso   1.00
C53    C     0.25609   0.04142   0.18782   0.00000  Uiso   1.00
H54    H     0.25472   0.07246   0.17302   0.00000  Uiso   1.00
O55    O     0.29534   0.02359   0.17651   0.00000  Uiso   1.00
C56    C     0.28407   0.23561   0.40803   0.00000  Uiso   1.00
C57    C     0.32140   0.20634   0.37479   0.00000  Uiso   1.00
H58    H     0.33021   0.18132   0.39902   0.00000  Uiso   1.00
H59    H     0.30630   0.19261   0.34497   0.00000  Uiso   1.00
H60    H     0.02200   0.22346   0.35523   0.00000  Uiso   1.00
H61    H     0.27537   0.26004   0.38274   0.00000  Uiso   1.00
H62    H     0.30023   0.25188   0.43551   0.00000  Uiso   1.00
C63    C     0.12108   0.21282   0.09801   0.00000  Uiso   1.00
C64    C     0.13186   0.25366   0.12079   0.00000  Uiso   1.00
H65    H     0.09713   0.26979   0.13945   0.00000  Uiso   1.00
H66    H     0.15185   0.24864   0.15010   0.00000  Uiso   1.00
H67    H     0.15425   0.27384   0.08952   0.00000  Uiso   1.00
H68    H     0.09989   0.22142   0.07061   0.00000  Uiso   1.00
H69    H     0.09616   0.19315   0.12764   0.00000  Uiso   1.00
C70    C     0.02589   0.12056   0.01433   0.00000  Uiso   1.00
H71    H     0.01759   0.11517   0.05579   0.00000  Uiso   1.00
O72    O     0.33073   0.10806   0.49136   0.00000  Uiso   1.00
C73    C     0.49998   0.24591   0.25012   0.00000  Uiso   1.00
C74    C     0.48006   0.17729   0.48887   0.00000  Uiso   1.00
C75    C     0.49178   0.18458   0.43495   0.00000  Uiso   1.00
C76    C     0.51405   0.18871   0.01592   0.00000  Uiso   1.00
C77    C     0.56227   0.19938   0.48814   0.00000  Uiso   1.00
C78    C     0.57133   0.21268   0.43629   0.00000  Uiso   1.00
C79    C     0.53506   0.20670   0.41098   0.00000  Uiso   1.00
C80    C     0.50151   0.19028   0.07016   0.00000  Uiso   1.00
C81    C     0.58738   0.18434   0.06562   0.00000  Uiso   1.00
C82    C     0.46006   0.16932   0.40684   0.00000  Uiso   1.00
C83    C     0.54357   0.31112   0.22332   0.00000  Uiso   1.00
C84    C     0.47438   0.16856   0.34988   0.00000  Uiso   1.00
C85    C     0.54448   0.02074   0.21997   0.00000  Uiso   1.00
C86    C     0.50145   0.04269   0.24498   0.00000  Uiso   1.00
C87    C     0.45824   0.02147   0.26942   0.00000  Uiso   1.00
C88    C     0.45761   0.31218   0.27074   0.00000  Uiso   1.00
C89    C     0.50042   0.29041   0.24850   0.00000  Uiso   1.00
C90    C     0.64740   0.19893   0.22899   0.00000  Uiso   1.00
C91    C     0.36352   0.19904   0.22934   0.00000  Uiso   1.00
C92    C     0.35268   0.13426   0.27068   0.00000  Uiso   1.00
C93    C     0.63640   0.13430   0.27076   0.00000  Uiso   1.00
C94    C     0.50065   0.08741   0.24772   0.00000  Uiso   1.00
C95    C     0.52541   0.17071   0.15041   0.00000  Uiso   1.00
C96    C     0.59912   0.19669   0.01366   0.00000  Uiso   1.00
C97    C     0.53830   0.18097   0.09470   0.00000  Uiso   1.00
C98    C     0.41622   0.14971   0.43325   0.00000  Uiso   1.00
C99    C     0.40434   0.14284   0.48664   0.00000  Uiso   1.00
C100   C     0.43679   0.15558   0.01381   0.00000  Uiso   1.00
Cu101  Cu    0.45311   0.16666   0.25000   0.00000  Uiso   1.00
Cu102  Cu    0.54689   0.16667   0.25000   0.00000  Uiso   1.00
H103   H     0.61651   0.17966   0.08364   0.00000  Uiso   1.00
H104   H     0.42505   0.03790   0.28843   0.00000  Uiso   1.00
H105   H     0.42400   0.29625   0.29012   0.00000  Uiso   1.00
H106   H     0.63336   0.22475   0.21190   0.00000  Uiso   1.00
H107   H     0.38632   0.22512   0.21301   0.00000  Uiso   1.00
H108   H     0.36671   0.10848   0.28782   0.00000  Uiso   1.00
H109   H     0.61332   0.10854   0.28793   0.00000  Uiso   1.00
H110   H     0.63713   0.20171   0.49326   0.00000  Uiso   1.00
H111   H     0.39254   0.13751   0.41167   0.00000  Uiso   1.00
H112   H     0.42866   0.14716   0.05437   0.00000  Uiso   1.00
H113   H     0.54165   0.21916   0.37224   0.00000  Uiso   1.00
H114   H     0.57598   0.29358   0.20454   0.00000  Uiso   1.00
N115   N     0.38265   0.16666   0.24999   0.00000  Uiso   1.00
N116   N     0.61735   0.16669   0.25000   0.00000  Uiso   1.00
O117   O     0.46042   0.22678   0.25001   0.00000  Uiso   1.00
O118   O     0.53961   0.22679   0.25001   0.00000  Uiso   1.00
O119   O     0.44108   0.16665   0.32549   0.00000  Uiso   1.00
O120   O     0.52027   0.16666   0.32549   0.00000  Uiso   1.00
O121   O     0.46039   0.10654   0.25000   0.00000  Uiso   1.00
O122   O     0.53958   0.10655   0.25000   0.00000  Uiso   1.00
O123   O     0.47973   0.16667   0.17451   0.00000  Uiso   1.00
O124   O     0.55892   0.16668   0.17451   0.00000  Uiso   1.00
C125   C     0.58943   0.04142   0.18782   0.00000  Uiso   1.00
H126   H     0.58806   0.07246   0.17302   0.00000  Uiso   1.00
O127   O     0.62867   0.02359   0.17651   0.00000  Uiso   1.00
C128   C     0.61741   0.23561   0.40803   0.00000  Uiso   1.00
C129   C     0.65473   0.20634   0.37479   0.00000  Uiso   1.00
H130   H     0.66354   0.18132   0.39902   0.00000  Uiso   1.00
H131   H     0.63963   0.19261   0.34497   0.00000  Uiso   1.00
H132   H     0.35533   0.22346   0.35523   0.00000  Uiso   1.00
H133   H     0.60870   0.26004   0.38274   0.00000  Uiso   1.00
H134   H     0.63357   0.25188   0.43551   0.00000  Uiso   1.00
C135   C     0.45442   0.21282   0.09801   0.00000  Uiso   1.00
C136   C     0.46519   0.25366   0.12079   0.00000  Uiso   1.00
H137   H     0.43047   0.26979   0.13945   0.00000  Uiso   1.00
H138   H     0.48519   0.24864   0.15010   0.00000  Uiso   1.00
H139   H     0.48758   0.27384   0.08952   0.00000  Uiso   1.00
H140   H     0.43322   0.22142   0.07061   0.00000  Uiso   1.00
H141   H     0.42949   0.19315   0.12764   0.00000  Uiso   1.00
C142   C     0.35922   0.12056   0.01433   0.00000  Uiso   1.00
H143   H     0.35092   0.11517   0.05579   0.00000  Uiso   1.00
O144   O     0.66406   0.10806   0.49136   0.00000  Uiso   1.00
C145   C     0.83331   0.24591   0.25012   0.00000  Uiso   1.00
C146   C     0.81340   0.17729   0.48887   0.00000  Uiso   1.00
C147   C     0.82511   0.18458   0.43495   0.00000  Uiso   1.00
C148   C     0.84738   0.18871   0.01592   0.00000  Uiso   1.00
C149   C     0.89561   0.19938   0.48814   0.00000  Uiso   1.00
C150   C     0.90466   0.21268   0.43629   0.00000  Uiso   1.00
C151   C     0.86839   0.20670   0.41098   0.00000  Uiso   1.00
C152   C     0.83485   0.19028   0.07016   0.00000  Uiso   1.00
C153   C     0.92072   0.18434   0.06562   0.00000  Uiso   1.00
C154   C     0.79340   0.16932   0.40684   0.00000  Uiso   1.00
C155   C     0.87690   0.31112   0.22332   0.00000  Uiso   1.00
C156   C     0.80771   0.16856   0.34988   0.00000  Uiso   1.00
C157   C     0.87781   0.02074   0.21997   0.00000  Uiso   1.00
C158   C     0.83479   0.04269   0.24498   0.00000  Uiso   1.00
C159   C     0.79158   0.02147   0.26942   0.00000  Uiso   1.00
C160   C     0.79094   0.31218   0.27074   0.00000  Uiso   1.00
C161   C     0.83376   0.29041   0.24850   0.00000  Uiso   1.00
C162   C     0.98074   0.19893   0.22899   0.00000  Uiso   1.00
C163   C     0.69685   0.19904   0.22934   0.00000  Uiso   1.00
C164   C     0.68601   0.13426   0.27068   0.00000  Uiso   1.00
C165   C     0.96973   0.13430   0.27076   0.00000  Uiso   1.00
C166   C     0.83399   0.08741   0.24772   0.00000  Uiso   1.00
C167   C     0.85874   0.17071   0.15041   0.00000  Uiso   1.00
C168   C     0.93246   0.19669   0.01366   0.00000  Uiso   1.00
C169   C     0.87164   0.18097   0.09470   0.00000  Uiso   1.00
C170   C     0.74955   0.14971   0.43325   0.00000  Uiso   1.00
C171   C     0.73767   0.14284   0.48664   0.00000  Uiso   1.00
C172   C     0.77012   0.15558   0.01381   0.00000  Uiso   1.00
Cu173  Cu    0.78645   0.16666   0.25000   0.00000  Uiso   1.00
Cu174  Cu    0.88022   0.16667   0.25000   0.00000  Uiso   1.00
H175   H     0.94984   0.17966   0.08364   0.00000  Uiso   1.00
H176   H     0.75839   0.03790   0.28843   0.00000  Uiso   1.00
H177   H     0.75733   0.29625   0.29012   0.00000  Uiso   1.00
H178   H     0.96670   0.22475   0.21190   0.00000  Uiso   1.00
H179   H     0.71965   0.22512   0.21301   0.00000  Uiso   1.00
H180   H     0.70004   0.10848   0.28782   0.00000  Uiso   1.00
H181   H     0.94665   0.10854   0.28793   0.00000  Uiso   1.00
H182   H     0.97047   0.20171   0.49326   0.00000  Uiso   1.00
H183   H     0.72587   0.13751   0.41167   0.00000  Uiso   1.00
H184   H     0.76199   0.14716   0.05437   0.00000  Uiso   1.00
H185   H     0.87498   0.21916   0.37224   0.00000  Uiso   1.00
H186   H     0.90931   0.29358   0.20454   0.00000  Uiso   1.00
N187   N     0.71598   0.16666   0.24999   0.00000  Uiso   1.00
N188   N     0.95069   0.16669   0.25000   0.00000  Uiso   1.00
O189   O     0.79375   0.22678   0.25001   0.00000  Uiso   1.00
O190   O     0.87294   0.22679   0.25001   0.00000  Uiso   1.00
O191   O     0.77441   0.16665   0.32549   0.00000  Uiso   1.00
O192   O     0.85360   0.16666   0.32549   0.00000  Uiso   1.00
O193   O     0.79373   0.10654   0.25000   0.00000  Uiso   1.00
O194   O     0.87292   0.10655   0.25000   0.00000  Uiso   1.00
O195   O     0.81306   0.16667   0.17451   0.00000  Uiso   1.00
O196   O     0.89225   0.16668   0.17451   0.00000  Uiso   1.00
C197   C     0.92276   0.04142   0.18782   0.00000  Uiso   1.00
H198   H     0.92139   0.07246   0.17302   0.00000  Uiso   1.00
O199   O     0.96200   0.02359   0.17651   0.00000  Uiso   1.00
C200   C     0.95074   0.23561   0.40803   0.00000  Uiso   1.00
C201   C     0.98806   0.20634   0.37479   0.00000  Uiso   1.00
H202   H     0.99688   0.18132   0.39902   0.00000  Uiso   1.00
H203   H     0.97296   0.19261   0.34497   0.00000  Uiso   1.00
H204   H     0.68867   0.22346   0.35523   0.00000  Uiso   1.00
H205   H     0.94204   0.26004   0.38274   0.00000  Uiso   1.00
H206   H     0.96690   0.25188   0.43551   0.00000  Uiso   1.00
C207   C     0.78775   0.21282   0.09801   0.00000  Uiso   1.00
C208   C     0.79852   0.25366   0.12079   0.00000  Uiso   1.00
H209   H     0.76380   0.26979   0.13945   0.00000  Uiso   1.00
H210   H     0.81852   0.24864   0.15010   0.00000  Uiso   1.00
H211   H     0.82092   0.27384   0.08952   0.00000  Uiso   1.00
H212   H     0.76655   0.22142   0.07061   0.00000  Uiso   1.00
H213   H     0.76282   0.19315   0.12764   0.00000  Uiso   1.00
C214   C     0.69256   0.12056   0.01433   0.00000  Uiso   1.00
H215   H     0.68425   0.11517   0.05579   0.00000  Uiso   1.00
O216   O     0.99740   0.10806   0.49136   0.00000  Uiso   1.00
C217   C     0.16664   0.57925   0.25012   0.00000  Uiso   1.00
C218   C     0.14673   0.51062   0.48887   0.00000  Uiso   1.00
C219   C     0.15844   0.51791   0.43495   0.00000  Uiso   1.00
C220   C     0.18072   0.52204   0.01592   0.00000  Uiso   1.00
C221   C     0.22894   0.53271   0.48814   0.00000  Uiso   1.00
C222   C     0.23800   0.54601   0.43629   0.00000  Uiso   1.00
C223   C     0.20173   0.54003   0.41098   0.00000  Uiso   1.00
C224   C     0.16818   0.52362   0.07016   0.00000  Uiso   1.00
C225   C     0.25405   0.51767   0.06562   0.00000  Uiso   1.00
C226   C     0.12673   0.50266   0.40684   0.00000  Uiso   1.00
C227   C     0.21023   0.64445   0.22332   0.00000  Uiso   1.00
C228   C     0.14104   0.50189   0.34988   0.00000  Uiso   1.00
C229   C     0.21114   0.35407   0.21997   0.00000  Uiso   1.00
C230   C     0.16812   0.37603   0.24498   0.00000  Uiso   1.00
C231   C     0.12491   0.35480   0.26942   0.00000  Uiso   1.00
C232   C     0.12427   0.64552   0.27074   0.00000  Uiso   1.00
C233   C     0.16709   0.62375   0.24850   0.00000  Uiso   1.00
C234   C     0.31407   0.53227   0.22899   0.00000  Uiso   1.00
C235   C     0.03019   0.53238   0.22934   0.00000  Uiso   1.00
C236   C     0.01934   0.46759   0.27068   0.00000  Uiso   1.00
C237   C     0.30307   0.46764   0.27076   0.00000  Uiso   1.00
C238   C     0.16732   0.42075   0.24772   0.00000  Uiso   1.00
C239   C     0.19208   0.50404   0.15041   0.00000  Uiso   1.00
C240   C     0.26579   0.53002   0.01366   0.00000  Uiso   1.00
C241   C     0.20497   0.51431   0.09470   0.00000  Uiso   1.00
C242   C     0.08289   0.48305   0.43325   0.00000  Uiso   1.00
C243   C     0.07101   0.47618   0.48664   0.00000  Uiso   1.00
C244   C     0.10345   0.48892   0.01381   0.00000  Uiso   1.00
Cu245  Cu    0.11978   0.49999   0.25000   0.00000  Uiso   1.00
Cu246  Cu    0.21355   0.50001   0.25000   0.00000  Uiso   1.00
H247   H     0.28317   0.51299   0.08364   0.00000  Uiso   1.00
H248   H     0.09172   0.37123   0.28843   0.00000  Uiso   1.00
H249   H     0.09067   0.62959   0.29012   0.00000  Uiso   1.00
H250   H     0.30003   0.55808   0.21190   0.00000  Uiso   1.00
H251   H     0.05298   0.55846   0.21301   0.00000  Uiso   1.00
H252   H     0.03338   0.44181   0.28782   0.00000  Uiso   1.00
H253   H     0.27999   0.44187   0.28793   0.00000  Uiso   1.00
H254   H     0.30380   0.53504   0.49326   0.00000  Uiso   1.00
H255   H     0.05921   0.47084   0.41167   0.00000  Uiso   1.00
H256   H     0.09532   0.48049   0.05437   0.00000  Uiso   1.00
H257   H     0.20832   0.55249   0.37224   0.00000  Uiso   1.00
H258   H     0.24264   0.62692   0.20454   0.00000  Uiso   1.00
N259   N     0.04931   0.49999   0.24999   0.00000  Uiso   1.00
N260   N     0.28402   0.50002   0.25000   0.00000  Uiso   1.00
O261   O     0.12708   0.56011   0.25001   0.00000  Uiso   1.00
O262   O     0.20627   0.56012   0.25001   0.00000  Uiso   1.00
O263   O     0.10775   0.49998   0.32549   0.00000  Uiso   1.00
O264   O     0.18694   0.49999   0.32549   0.00000  Uiso   1.00
O265   O     0.12706   0.43988   0.25000   0.00000  Uiso   1.00
O266   O     0.20625   0.43989   0.25000   0.00000  Uiso   1.00
O267   O     0.14640   0.50001   0.17451   0.00000  Uiso   1.00
O268   O     0.22559   0.50002   0.17451   0.00000  Uiso   1.00
C269   C     0.25609   0.37475   0.18782   0.00000  Uiso   1.00
H270   H     0.25472   0.40579   0.17302   0.00000  Uiso   1.00
O271   O     0.29534   0.35693   0.17651   0.00000  Uiso   1.00
C272   C     0.28407   0.56895   0.40803   0.00000  Uiso   1.00
C273   C     0.32140   0.53967   0.37479   0.00000  Uiso   1.00
H274   H     0.33021   0.51465   0.39902   0.00000  Uiso   1.00
H275   H     0.30630   0.52595   0.34497   0.00000  Uiso   1.00
H276   H     0.02200   0.55679   0.35523   0.00000  Uiso   1.00
H277   H     0.27537   0.59337   0.38274   0.00000  Uiso   1.00
H278   H     0.30023   0.58521   0.43551   0.00000  Uiso   1.00
C279   C     0.12108   0.54615   0.09801   0.00000  Uiso   1.00
C280   C     0.13186   0.58699   0.12079   0.00000  Uiso   1.00
H281   H     0.09713   0.60313   0.13945   0.00000  Uiso   1.00
H282   H     0.15185   0.58197   0.15010   0.00000  Uiso   1.00
H283   H     0.15425   0.60717   0.08952   0.00000  Uiso   1.00
H284   H     0.09989   0.55476   0.07061   0.00000  Uiso   1.00
H285   H     0.09616   0.52648   0.12764   0.00000  Uiso   1.00
C286   C     0.02589   0.45390   0.01433   0.00000  Uiso   1.00
H287   H     0.01759   0.44850   0.05579   0.00000  Uiso   1.00
O288   O     0.33073   0.44139   0.49136   0.00000  Uiso   1.00
C289   C     0.49998   0.57925   0.25012   0.00000  Uiso   1.00
C290   C     0.48006   0.51062   0.48887   0.00000  Uiso   1.00
C291   C     0.49178   0.51791   0.43495   0.00000  Uiso   1.00
C292   C     0.51405   0.52204   0.01592   0.00000  Uiso   1.00
C293   C     0.56227   0.53271   0.48814   0.00000  Uiso   1.00
C294   C     0.57133   0.54601   0.43629   0.00000  Uiso   1.00
C295   C     0.53506   0.54003   0.41098   0.00000  Uiso   1.00
C296   C     0.50151   0.52362   0.07016   0.00000  Uiso   1.00
C297   C     0.58738   0.51767   0.06562   0.00000  Uiso   1.00
C298   C     0.46006   0.50266   0.40684   0.00000  Uiso   1.00
C299   C     0.54357   0.64445   0.22332   0.00000  Uiso   1.00
C300   C     0.47438   0.50189   0.34988   0.00000  Uiso   1.00
C301   C     0.54448   0.35407   0.21997   0.00000  Uiso   1.00
C302   C     0.50145   0.37603   0.24498   0.00000  Uiso   1.00
C303   C     0.45824   0.35480   0.26942   0.00000  Uiso   1.00
C304   C     0.45761   0.64552   0.27074   0.00000  Uiso   1.00
C305   C     0.50042   0.62375   0.24850   0.00000  Uiso   1.00
C306   C     0.64740   0.53227   0.22899   0.00000  Uiso   1.00
C307   C     0.36352   0.53238   0.22934   0.00000  Uiso   1.00
C308   C     0.35268   0.46759   0.27068   0.00000  Uiso   1.00
C309   C     0.63640   0.46764   0.27076   0.00000  Uiso   1.00
C310   C     0.50065   0.42075   0.24772   0.00000  Uiso   1.00
C311   C     0.52541   0.50404   0.15041   0.00000  Uiso   1.00
C312   C     0.59912   0.53002   0.01366   0.00000  Uiso   1.00
C313   C     0.53830   0.51431   0.09470   0.00000  Uiso   1.00
C314   C     0.41622   0.48305   0.43325   0.00000  Uiso   1.00
C315   C     0.40434   0.47618   0.48664   0.00000  Uiso   1.00
C316   C     0.43679   0.48892   0.01381   0.00000  Uiso   1.00
Cu317  Cu    0.45311   0.49999   0.25000   0.00000  Uiso   1.00
Cu318  Cu    0.54689   0.50001   0.25000   0.00000  Uiso   1.00
H319   H     0.61651   0.51299   0.08364   0.00000  Uiso   1.00
H320   H     0.42505   0.37123   0.28843   0.00000  Uiso   1.00
H321   H     0.42400   0.62959   0.29012   0.00000  Uiso   1.00
H322   H     0.63336   0.55808   0.21190   0.00000  Uiso   1.00
H323   H     0.38632   0.55846   0.21301   0.00000  Uiso   1.00
H324   H     0.36671   0.44181   0.28782   0.00000  Uiso   1.00
H325   H     0.61332   0.44187   0.28793   0.00000  Uiso   1.00
H326   H     0.63713   0.53504   0.49326   0.00000  Uiso   1.00
H327   H     0.39254   0.47084   0.41167   0.00000  Uiso   1.00
H328   H     0.42866   0.48049   0.05437   0.00000  Uiso   1.00
H329   H     0.54165   0.55249   0.37224   0.00000  Uiso   1.00
H330   H     0.57598   0.62692   0.20454   0.00000  Uiso   1.00
N331   N     0.38265   0.49999   0.24999   0.00000  Uiso   1.00
N332   N     0.61735   0.50002   0.25000   0.00000  Uiso   1.00
O333   O     0.46042   0.56011   0.25001   0.00000  Uiso   1.00
O334   O     0.53961   0.56012   0.25001   0.00000  Uiso   1.00
O335   O     0.44108   0.49998   0.32549   0.00000  Uiso   1.00
O336   O     0.52027   0.49999   0.32549   0.00000  Uiso   1.00
O337   O     0.46039   0.43988   0.25000   0.00000  Uiso   1.00
O338   O     0.53958   0.43989   0.25000   0.00000  Uiso   1.00
O339   O     0.47973   0.50001   0.17451   0.00000  Uiso   1.00
O340   O     0.55892   0.50002   0.17451   0.00000  Uiso   1.00
C341   C     0.58943   0.37475   0.18782   0.00000  Uiso   1.00
H342   H     0.58806   0.40579   0.17302   0.00000  Uiso   1.00
O343   O     0.62867   0.35693   0.17651   0.00000  Uiso   1.00
C344   C     0.61741   0.56895   0.40803   0.00000  Uiso   1.00
C345   C     0.65473   0.53967   0.37479   0.00000  Uiso   1.00
H346   H     0.66354   0.51465   0.39902   0.00000  Uiso   1.00
H347   H     0.63963   0.52595   0.34497   0.00000  Uiso   1.00
H348   H     0.35533   0.55679   0.35523   0.00000  Uiso   1.00
H349   H     0.60870   0.59337   0.38274   0.00000  Uiso   1.00
H350   H     0.63357   0.58521   0.43551   0.00000  Uiso   1.00
C351   C     0.45442   0.54615   0.09801   0.00000  Uiso   1.00
C352   C     0.46519   0.58699   0.12079   0.00000  Uiso   1.00
H353   H     0.43047   0.60313   0.13945   0.00000  Uiso   1.00
H354   H     0.48519   0.58197   0.15010   0.00000  Uiso   1.00
H355   H     0.48758   0.60717   0.08952   0.00000  Uiso   1.00
H356   H     0.43322   0.55476   0.07061   0.00000  Uiso   1.00
H357   H     0.42949   0.52648   0.12764   0.00000  Uiso   1.00
C358   C     0.35922   0.45390   0.01433   0.00000  Uiso   1.00
H359   H     0.35092   0.44850   0.05579   0.00000  Uiso   1.00
O360   O     0.66406   0.44139   0.49136   0.00000  Uiso   1.00
C361   C     0.83331   0.57925   0.25012   0.00000  Uiso   1.00
C362   C     0.81340   0.51062   0.48887   0.00000  Uiso   1.00
C363   C     0.82511   0.51791   0.43495   0.00000  Uiso   1.00
C364   C     0.84738   0.52204   0.01592   0.00000  Uiso   1.00
C365   C     0.89561   0.53271   0.48814   0.00000  Uiso   1.00
C366   C     0.90466   0.54601   0.43629   0.00000  Uiso   1.00
C367   C     0.86839   0.54003   0.41098   0.00000  Uiso   1.00
C368   C     0.83485   0.52362   0.07016   0.00000  Uiso   1.00
C369   C     0.92072   0.51767   0.06562   0.00000  Uiso   1.00
C370   C     0.79340   0.50266   0.40684   0.00000  Uiso   1.00
C371   C     0.87690   0.64445   0.22332   0.00000  Uiso   1.00
C372   C     0.80771   0.50189   0.34988   0.00000  Uiso   1.00
C373   C     0.87781   0.35407   0.21997   0.00000  Uiso   1.00
C374   C     0.83479   0.37603   0.24498   0.00000  Uiso   1.00
C375   C     0.79158   0.35480   0.26942   0.00000  Uiso   1.00
C376   C     0.79094   0.64552   0.27074   0.00000  Uiso   1.00
C377   C     0.83376   0.62375   0.24850   0.00000  Uiso   1.00
C378   C     0.98074   0.53227   0.22899   0.00000  Uiso   1.00
C379   C     0.69685   0.53238   0.22934   0.00000  Uiso   1.00
C380   C     0.68601   0.46759   0.27068   0.00000  Uiso   1.00
C381   C     0.96973   0.46764   0.27076   0.00000  Uiso   1.00
C382   C     0.83399   0.42075   0.24772   0.00000  Uiso   1.00
C383   C     0.85874   0.50404   0.15041   0.00000  Uiso   1.00
C384   C     0.93246   0.53002   0.01366   0.00000  Uiso   1.00
C385   C     0.87164   0.51431   0.09470   0.00000  Uiso   1.00
C386   C     0.74955   0.48305   0.43325   0.00000  Uiso   1.00
C387   C     0.73767   0.47618   0.48664   0.00000  Uiso   1.00
C388   C     0.77012   0.48892   0.01381   0.00000  Uiso   1.00
Cu389  Cu    0.78645   0.49999   0.25000   0.00000  Uiso   1.00
Cu390  Cu    0.88022   0.50001   0.25000   0.00000  Uiso   1.00
H391   H     0.94984   0.51299   0.08364   0.00000  Uiso   1.00
H392   H     0.75839   0.37123   0.28843   0.00000  Uiso   1.00
H393   H     0.75733   0.62959   0.29012   0.00000  Uiso   1.00
H394   H     0.96670   0.55808   0.21190   0.00000  Uiso   1.00
H395   H     0.71965   0.55846   0.21301   0.00000  Uiso   1.00
H396   H     0.70004   0.44181   0.28782   0.00000  Uiso   1.00
H397   H     0.94665   0.44187   0.28793   0.00000  Uiso   1.00
H398   H     0.97047   0.53504   0.49326   0.00000  Uiso   1.00
H399   H     0.72587   0.47084   0.41167   0.00000  Uiso   1.00
H400   H     0.76199   0.48049   0.05437   0.00000  Uiso   1.00
H401   H     0.87498   0.55249   0.37224   0.00000  Uiso   1.00
H402   H     0.90931   0.62692   0.20454   0.00000  Uiso   1.00
N403   N     0.71598   0.49999   0.24999   0.00000  Uiso   1.00
N404   N     0.95069   0.50002   0.25000   0.00000  Uiso   1.00
O405   O     0.79375   0.56011   0.25001   0.00000  Uiso   1.00
O406   O     0.87294   0.56012   0.25001   0.00000  Uiso   1.00
O407   O     0.77441   0.49998   0.32549   0.00000  Uiso   1.00
O408   O     0.85360   0.49999   0.32549   0.00000  Uiso   1.00
O409   O     0.79373   0.43988   0.25000   0.00000  Uiso   1.00
O410   O     0.87292   0.43989   0.25000   0.00000  Uiso   1.00
O411   O     0.81306   0.50001   0.17451   0.00000  Uiso   1.00
O412   O     0.89225   0.50002   0.17451   0.00000  Uiso   1.00
C413   C     0.92276   0.37475   0.18782   0.00000  Uiso   1.00
H414   H     0.92139   0.40579   0.17302   0.00000  Uiso   1.00
O415   O     0.96200   0.35693   0.17651   0.00000  Uiso   1.00
C416   C     0.95074   0.56895   0.40803   0.00000  Uiso   1.00
C417   C     0.98806   0.53967   0.37479   0.00000  Uiso   1.00
H418   H     0.99688   0.51465   0.39902   0.00000  Uiso   1.00
H419   H     0.97296   0.52595   0.34497   0.00000  Uiso   1.00
H420   H     0.68867   0.55679   0.35523   0.00000  Uiso   1.00
H421   H     0.94204   0.59337   0.38274   0.00000  Uiso   1.00
H422   H     0.96690   0.58521   0.43551   0.00000  Uiso   1.00
C423   C     0.78775   0.54615   0.09801   0.00000  Uiso   1.00
C424   C     0.79852   0.58699   0.12079   0.00000  Uiso   1.00
H425   H     0.76380   0.60313   0.13945   0.00000  Uiso   1.00
H426   H     0.81852   0.58197   0.15010   0.00000  Uiso   1.00
H427   H     0.82092   0.60717   0.08952   0.00000  Uiso   1.00
H428   H     0.76655   0.55476   0.07061   0.00000  Uiso   1.00
H429   H     0.76282   0.52648   0.12764   0.00000  Uiso   1.00
C430   C     0.69256   0.45390   0.01433   0.00000  Uiso   1.00
H431   H     0.68425   0.44850   0.05579   0.00000  Uiso   1.00
O432   O     0.99740   0.44139   0.49136   0.00000  Uiso   1.00
C433   C     0.16664   0.91258   0.25012   0.00000  Uiso   1.00
C434   C     0.14673   0.84395   0.48887   0.00000  Uiso   1.00
C435   C     0.15844   0.85124   0.43495   0.00000  Uiso   1.00
C436   C     0.18072   0.85538   0.01592   0.00000  Uiso   1.00
C437   C     0.22894   0.86604   0.48814   0.00000  Uiso   1.00
C438   C     0.23800   0.87934   0.43629   0.00000  Uiso   1.00
C439   C     0.20173   0.87336   0.41098   0.00000  Uiso   1.00
C440   C     0.16818   0.85695   0.07016   0.00000  Uiso   1.00
C441   C     0.25405   0.85101   0.06562   0.00000  Uiso   1.00
C442   C     0.12673   0.83599   0.40684   0.00000  Uiso   1.00
C443   C     0.21023   0.97779   0.22332   0.00000  Uiso   1.00
C444   C     0.14104   0.83523   0.34988   0.00000  Uiso   1.00
C445   C     0.21114   0.68740   0.21997   0.00000  Uiso   1.00
C446   C     0.16812   0.70936   0.24498   0.00000  Uiso   1.00
C447   C     0.12491   0.68814   0.26942   0.00000  Uiso   1.00
C448   C     0.12427   0.97885   0.27074   0.00000  Uiso   1.00
C449   C     0.16709   0.95708   0.24850   0.00000  Uiso   1.00
C450   C     0.31407   0.86560   0.22899   0.00000  Uiso   1.00
C451   C     0.03019   0.86571   0.22934   0.00000  Uiso   1.00
C452   C     0.01934   0.80093   0.27068   0.00000  Uiso   1.00
C453   C     0.30307   0.80097   0.27076   0.00000  Uiso   1.00
C454   C     0.16732   0.75408   0.24772   0.00000  Uiso   1.00
C455   C     0.19208   0.83738   0.15041   0.00000  Uiso   1.00
C456   C     0.26579   0.86335   0.01366   0.00000  Uiso   1.00
C457   C     0.20497   0.84764   0.09470   0.00000  Uiso   1.00
C458   C     0.08289   0.81638   0.43325   0.00000  Uiso   1.00
C459   C     0.07101   0.80951   0.48664   0.00000  Uiso   1.00
C460   C     0.10345   0.82225   0.01381   0.00000  Uiso   1.00
Cu461  Cu    0.11978   0.83333   0.25000   0.00000  Uiso   1.00
Cu462  Cu    0.21355   0.83334   0.25000   0.00000  Uiso   1.00
H463   H     0.28317   0.84632   0.08364   0.00000  Uiso   1.00
H464   H     0.09172   0.70457   0.28843   0.00000  Uiso   1.00
H465   H     0.09067   0.96292   0.29012   0.00000  Uiso   1.00
H466   H     0.30003   0.89142   0.21190   0.00000  Uiso   1.00
H467   H     0.05298   0.89179   0.21301   0.00000  Uiso   1.00
H468   H     0.03338   0.77514   0.28782   0.00000  Uiso   1.00
H469   H     0.27999   0.77520   0.28793   0.00000  Uiso   1.00
H470   H     0.30380   0.86837   0.49326   0.00000  Uiso   1.00
H471   H     0.05921   0.80417   0.41167   0.00000  Uiso   1.00
H472   H     0.09532   0.81383   0.05437   0.00000  Uiso   1.00
H473   H     0.20832   0.88582   0.37224   0.00000  Uiso   1.00
H474   H     0.24264   0.96025   0.20454   0.00000  Uiso   1.00
N475   N     0.04931   0.83332   0.24999   0.00000  Uiso   1.00
N476   N     0.28402   0.83335   0.25000   0.00000  Uiso   1.00
O477   O     0.12708   0.89345   0.25001   0.00000  Uiso   1.00
O478   O     0.20627   0.89346   0.25001   0.00000  Uiso   1.00
O479   O     0.10775   0.83332   0.32549   0.00000  Uiso   1.00
O480   O     0.18694   0.83333   0.32549   0.00000  Uiso   1.00
O481   O     0.12706   0.77321   0.25000   0.00000  Uiso   1.00
O482   O     0.20625   0.77322   0.25000   0.00000  Uiso   1.00
O483   O     0.14640   0.83334   0.17451   0.00000  Uiso   1.00
O484   O     0.22559   0.83335   0.17451   0.00000  Uiso   1.00
C485   C     0.25609   0.70808   0.18782   0.00000  Uiso   1.00
H486   H     0.25472   0.73912   0.17302   0.00000  Uiso   1.00
O487   O     0.29534   0.69026   0.17651   0.00000  Uiso   1.00
C488   C     0.28407   0.90228   0.40803   0.00000  Uiso   1.00
C489   C     0.32140   0.87300   0.37479   0.00000  Uiso   1.00
H490   H     0.33021   0.84799   0.39902   0.00000  Uiso   1.00
H491   H     0.30630   0.85928   0.34497   0.00000  Uiso   1.00
H492   H     0.02200   0.89013   0.35523   0.00000  Uiso   1.00
H493   H     0.27537   0.92670   0.38274   0.00000  Uiso   1.00
H494   H     0.30023   0.91855   0.43551   0.00000  Uiso   1.00
C495   C     0.12108   0.87948   0.09801   0.00000  Uiso   1.00
C496   C     0.13186   0.92032   0.12079   0.00000  Uiso   1.00
H497   H     0.09713   0.93646   0.13945   0.00000  Uiso   1.00
H498   H     0.15185   0.91531   0.15010   0.00000  Uiso   1.00
H499   H     0.15425   0.94051   0.08952   0.00000  Uiso   1.00
H500   H     0.09989   0.88809   0.07061   0.00000  Uiso   1.00
H501   H     0.09616   0.85981   0.12764   0.00000  Uiso   1.00
C502   C     0.02589   0.78723   0.01433   0.00000  Uiso   1.00
H503   H     0.01759   0.78184   0.05579   0.00000  Uiso   1.00
O504   O     0.33073   0.77473   0.49136   0.00000  Uiso   1.00
C505   C     0.49998   0.91258   0.25012   0.00000  Uiso   1.00
C506   C     0.48006   0.84395   0.48887   0.00000  Uiso   1.00
C507   C     0.49178   0.85124   0.43495   0.00000  Uiso   1.00
C508   C     0.51405   0.85538   0.01592   0.00000  Uiso   1.00
C509   C     0.56227   0.86604   0.48814   0.00000  Uiso   1.00
C510   C     0.57133   0.87934   0.43629   0.00000  Uiso   1.00
C511   C     0.53506   0.87336   0.41098   0.00000  Uiso   1.00
C512   C     0.50151   0.85695   0.07016   0.00000  Uiso   1.00
C513   C     0.58738   0.85101   0.06562   0.00000  Uiso   1.00
C514   C     0.46006   0.83599   0.40684   0.00000  Uiso   1.00
C515   C     0.54357   0.97779   0.22332   0.00000  Uiso   1.00
C516   C     0.47438   0.83523   0.34988   0.00000  Uiso   1.00
C517   C     0.54448   0.68740   0.21997   0.00000  Uiso   1.00
C518   C     0.50145   0.70936   0.24498   0.00000  Uiso   1.00
C519   C     0.45824   0.68814   0.26942   0.00000  Uiso   1.00
C520   C     0.45761   0.97885   0.27074   0.00000  Uiso   1.00
C521   C     0.50042   0.95708   0.24850   0.00000  Uiso   1.00
C522   C     0.64740   0.86560   0.22899   0.00000  Uiso   1.00
C523   C     0.36352   0.86571   0.22934   0.00000  Uiso   1.00
C524   C     0.35268   0.80093   0.27068   0.00000  Uiso   1.00
C525   C     0.63640   0.80097   0.27076   0.00000  Uiso   1.00
C526   C     0.50065   0.75408   0.24772   0.00000  Uiso   1.00
C527   C     0.52541   0.83738   0.15041   0.00000  Uiso   1.00
C528   C     0.59912   0.86335   0.01366   0.00000  Uiso   1.00
C529   C     0.53830   0.84764   0.09470   0.00000  Uiso   1.00
C530   C     0.41622   0.81638   0.43325   0.00000  Uiso   1.00
C531   C     0.40434   0.80951   0.48664   0.00000  Uiso   1.00
C532   C     0.43679   0.82225   0.01381   0.00000  Uiso   1.00
Cu533  Cu    0.45311   0.83333   0.25000   0.00000  Uiso   1.00
Cu534  Cu    0.54689   0.83334   0.25000   0.00000  Uiso   1.00
H535   H     0.61651   0.84632   0.08364   0.00000  Uiso   1.00
H536   H     0.42505   0.70457   0.28843   0.00000  Uiso   1.00
H537   H     0.42400   0.96292   0.29012   0.00000  Uiso   1.00
H538   H     0.63336   0.89142   0.21190   0.00000  Uiso   1.00
H539   H     0.38632   0.89179   0.21301   0.00000  Uiso   1.00
H540   H     0.36671   0.77514   0.28782   0.00000  Uiso   1.00
H541   H     0.61332   0.77520   0.28793   0.00000  Uiso   1.00
H542   H     0.63713   0.86837   0.49326   0.00000  Uiso   1.00
H543   H     0.39254   0.80417   0.41167   0.00000  Uiso   1.00
H544   H     0.42866   0.81383   0.05437   0.00000  Uiso   1.00
H545   H     0.54165   0.88582   0.37224   0.00000  Uiso   1.00
H546   H     0.57598   0.96025   0.20454   0.00000  Uiso   1.00
N547   N     0.38265   0.83332   0.24999   0.00000  Uiso   1.00
N548   N     0.61735   0.83335   0.25000   0.00000  Uiso   1.00
O549   O     0.46042   0.89345   0.25001   0.00000  Uiso   1.00
O550   O     0.53961   0.89346   0.25001   0.00000  Uiso   1.00
O551   O     0.44108   0.83332   0.32549   0.00000  Uiso   1.00
O552   O     0.52027   0.83333   0.32549   0.00000  Uiso   1.00
O553   O     0.46039   0.77321   0.25000   0.00000  Uiso   1.00
O554   O     0.53958   0.77322   0.25000   0.00000  Uiso   1.00
O555   O     0.47973   0.83334   0.17451   0.00000  Uiso   1.00
O556   O     0.55892   0.83335   0.17451   0.00000  Uiso   1.00
C557   C     0.58943   0.70808   0.18782   0.00000  Uiso   1.00
H558   H     0.58806   0.73912   0.17302   0.00000  Uiso   1.00
O559   O     0.62867   0.69026   0.17651   0.00000  Uiso   1.00
C560   C     0.61741   0.90228   0.40803   0.00000  Uiso   1.00
C561   C     0.65473   0.87300   0.37479   0.00000  Uiso   1.00
H562   H     0.66354   0.84799   0.39902   0.00000  Uiso   1.00
H563   H     0.63963   0.85928   0.34497   0.00000  Uiso   1.00
H564   H     0.35533   0.89013   0.35523   0.00000  Uiso   1.00
H565   H     0.60870   0.92670   0.38274   0.00000  Uiso   1.00
H566   H     0.63357   0.91855   0.43551   0.00000  Uiso   1.00
C567   C     0.45442   0.87948   0.09801   0.00000  Uiso   1.00
C568   C     0.46519   0.92032   0.12079   0.00000  Uiso   1.00
H569   H     0.43047   0.93646   0.13945   0.00000  Uiso   1.00
H570   H     0.48519   0.91531   0.15010   0.00000  Uiso   1.00
H571   H     0.48758   0.94051   0.08952   0.00000  Uiso   1.00
H572   H     0.43322   0.88809   0.07061   0.00000  Uiso   1.00
H573   H     0.42949   0.85981   0.12764   0.00000  Uiso   1.00
C574   C     0.35922   0.78723   0.01433   0.00000  Uiso   1.00
H575   H     0.35092   0.78184   0.05579   0.00000  Uiso   1.00
O576   O     0.66406   0.77473   0.49136   0.00000  Uiso   1.00
C577   C     0.83331   0.91258   0.25012   0.00000  Uiso   1.00
C578   C     0.81340   0.84395   0.48887   0.00000  Uiso   1.00
C579   C     0.82511   0.85124   0.43495   0.00000  Uiso   1.00
C580   C     0.84738   0.85538   0.01592   0.00000  Uiso   1.00
C581   C     0.89561   0.86604   0.48814   0.00000  Uiso   1.00
C582   C     0.90466   0.87934   0.43629   0.00000  Uiso   1.00
C583   C     0.86839   0.87336   0.41098   0.00000  Uiso   1.00
C584   C     0.83485   0.85695   0.07016   0.00000  Uiso   1.00
C585   C     0.92072   0.85101   0.06562   0.00000  Uiso   1.00
C586   C     0.79340   0.83599   0.40684   0.00000  Uiso   1.00
C587   C     0.87690   0.97779   0.22332   0.00000  Uiso   1.00
C588   C     0.80771   0.83523   0.34988   0.00000  Uiso   1.00
C589   C     0.87781   0.68740   0.21997   0.00000  Uiso   1.00
C590   C     0.83479   0.70936   0.24498   0.00000  Uiso   1.00
C591   C     0.79158   0.68814   0.26942   0.00000  Uiso   1.00
C592   C     0.79094   0.97885   0.27074   0.00000  Uiso   1.00
C593   C     0.83376   0.95708   0.24850   0.00000  Uiso   1.00
C594   C     0.98074   0.86560   0.22899   0.00000  Uiso   1.00
C595   C     0.69685   0.86571   0.22934   0.00000  Uiso   1.00
C596   C     0.68601   0.80093   0.27068   0.00000  Uiso   1.00
C597   C     0.96973   0.80097   0.27076   0.00000  Uiso   1.00
C598   C     0.83399   0.75408   0.24772   0.00000  Uiso   1.00
C599   C     0.85874   0.83738   0.15041   0.00000  Uiso   1.00
C600   C     0.93246   0.86335   0.01366   0.00000  Uiso   1.00
C601   C     0.87164   0.84764   0.09470   0.00000  Uiso   1.00
C602   C     0.74955   0.81638   0.43325   0.00000  Uiso   1.00
C603   C     0.73767   0.80951   0.48664   0.00000  Uiso   1.00
C604   C     0.77012   0.82225   0.01381   0.00000  Uiso   1.00
Cu605  Cu    0.78645   0.83333   0.25000   0.00000  Uiso   1.00
Cu606  Cu    0.88022   0.83334   0.25000   0.00000  Uiso   1.00
H607   H     0.94984   0.84632   0.08364   0.00000  Uiso   1.00
H608   H     0.75839   0.70457   0.28843   0.00000  Uiso   1.00
H609   H     0.75733   0.96292   0.29012   0.00000  Uiso   1.00
H610   H     0.96670   0.89142   0.21190   0.00000  Uiso   1.00
H611   H     0.71965   0.89179   0.21301   0.00000  Uiso   1.00
H612   H     0.70004   0.77514   0.28782   0.00000  Uiso   1.00
H613   H     0.94665   0.77520   0.28793   0.00000  Uiso   1.00
H614   H     0.97047   0.86837   0.49326   0.00000  Uiso   1.00
H615   H     0.72587   0.80417   0.41167   0.00000  Uiso   1.00
H616   H     0.76199   0.81383   0.05437   0.00000  Uiso   1.00
H617   H     0.87498   0.88582   0.37224   0.00000  Uiso   1.00
H618   H     0.90931   0.96025   0.20454   0.00000  Uiso   1.00
N619   N     0.71598   0.83332   0.24999   0.00000  Uiso   1.00
N620   N     0.95069   0.83335   0.25000   0.00000  Uiso   1.00
O621   O     0.79375   0.89345   0.25001   0.00000  Uiso   1.00
O622   O     0.87294   0.89346   0.25001   0.00000  Uiso   1.00
O623   O     0.77441   0.83332   0.32549   0.00000  Uiso   1.00
O624   O     0.85360   0.83333   0.32549   0.00000  Uiso   1.00
O625   O     0.79373   0.77321   0.25000   0.00000  Uiso   1.00
O626   O     0.87292   0.77322   0.25000   0.00000  Uiso   1.00
O627   O     0.81306   0.83334   0.17451   0.00000  Uiso   1.00
O628   O     0.89225   0.83335   0.17451   0.00000  Uiso   1.00
C629   C     0.92276   0.70808   0.18782   0.00000  Uiso   1.00
H630   H     0.92139   0.73912   0.17302   0.00000  Uiso   1.00
O631   O     0.96200   0.69026   0.17651   0.00000  Uiso   1.00
C632   C     0.95074   0.90228   0.40803   0.00000  Uiso   1.00
C633   C     0.98806   0.87300   0.37479   0.00000  Uiso   1.00
H634   H     0.99688   0.84799   0.39902   0.00000  Uiso   1.00
H635   H     0.97296   0.85928   0.34497   0.00000  Uiso   1.00
H636   H     0.68867   0.89013   0.35523   0.00000  Uiso   1.00
H637   H     0.94204   0.92670   0.38274   0.00000  Uiso   1.00
H638   H     0.96690   0.91855   0.43551   0.00000  Uiso   1.00
C639   C     0.78775   0.87948   0.09801   0.00000  Uiso   1.00
C640   C     0.79852   0.92032   0.12079   0.00000  Uiso   1.00
H641   H     0.76380   0.93646   0.13945   0.00000  Uiso   1.00
H642   H     0.81852   0.91531   0.15010   0.00000  Uiso   1.00
H643   H     0.82092   0.94051   0.08952   0.00000  Uiso   1.00
H644   H     0.76655   0.88809   0.07061   0.00000  Uiso   1.00
H645   H     0.76282   0.85981   0.12764   0.00000  Uiso   1.00
C646   C     0.69256   0.78723   0.01433   0.00000  Uiso   1.00
H647   H     0.68425   0.78184   0.05579   0.00000  Uiso   1.00
O648   O     0.99740   0.77473   0.49136   0.00000  Uiso   1.00
C649   C     0.16664   0.24591   0.75012   0.00000  Uiso   1.00
C650   C     0.14673   0.17729   0.98887   0.00000  Uiso   1.00
C651   C     0.15844   0.18458   0.93495   0.00000  Uiso   1.00
C652   C     0.18072   0.18871   0.51592   0.00000  Uiso   1.00
C653   C     0.22894   0.19938   0.98814   0.00000  Uiso   1.00
C654   C     0.23800   0.21268   0.93629   0.00000  Uiso   1.00
C655   C     0.20173   0.20670   0.91098   0.00000  Uiso   1.00
C656   C     0.16818   0.19028   0.57016   0.00000  Uiso   1.00
C657   C     0.25405   0.18434   0.56562   0.00000  Uiso   1.00
C658   C     0.12673   0.16932   0.90684   0.00000  Uiso   1.00
C659   C     0.21023   0.31112   0.72332   0.00000  Uiso   1.00
C660   C     0.14104   0.16856   0.84988   0.00000  Uiso   1.00
C661   C     0.21114   0.02074   0.71997   0.00000  Uiso   1.00
C662   C     0.16812   0.04269   0.74498   0.00000  Uiso   1.00
C663   C     0.12491   0.02147   0.76942   0.00000  Uiso   1.00
C664   C     0.12427   0.31218   0.77074   0.00000  Uiso   1.00
C665   C     0.16709   0.29041   0.74850   0.00000  Uiso   1.00
C666   C     0.31407   0.19893   0.72899   0.00000  Uiso   1.00
C667   C     0.03019   0.19904   0.72934   0.00000  Uiso   1.00
C668   C     0.01934   0.13426   0.77068   0.00000  Uiso   1.00
C669   C     0.30307   0.13430   0.77076   0.00000  Uiso   1.00
C670   C     0.16732   0.08741   0.74772   0.00000  Uiso   1.00
C671   C     0.19208   0.17071   0.65041   0.00000  Uiso   1.00
C672   C     0.26579   0.19669   0.51366   0.00000  Uiso   1.00
C673   C     0.20497   0.18097   0.59470   0.00000  Uiso   1.00
C674   C     0.08289   0.14971   0.93325   0.00000  Uiso   1.00
C675   C     0.07101   0.14284   0.98664   0.00000  Uiso   1.00
C676   C     0.10345   0.15558   0.51381   0.00000  Uiso   1.00
Cu677  Cu    0.11978   0.16666   0.75000   0.00000  Uiso   1.00
Cu678  Cu    0.21355   0.16667   0.75000   0.00000  Uiso   1.00
H679   H     0.28317   0.17966   0.58364   0.00000  Uiso   1.00
H680   H     0.09172   0.03790   0.78843   0.00000  Uiso   1.00
H681   H     0.09067   0.29625   0.79012   0.00000  Uiso   1.00
H682   H     0.30003   0.22475   0.71190   0.00000  Uiso   1.00
H683   H     0.05298   0.22512   0.71301   0.00000  Uiso   1.00
H684   H     0.03338   0.10848   0.78782   0.00000  Uiso   1.00
H685   H     0.27999   0.10854   0.78793   0.00000  Uiso   1.00
H686   H     0.30380   0.20171   0.99326   0.00000  Uiso   1.00
H687   H     0.05921   0.13751   0.91167   0.00000  Uiso   1.00
H688   H     0.09532   0.14716   0.55437   0.00000  Uiso   1.00
H689   H     0.20832   0.21916   0.87224   0.00000  Uiso   1.00
H690   H     0.24264   0.29358   0.70454   0.00000  Uiso   1.00
N691   N     0.04931   0.16666   0.74999   0.00000  Uiso   1.00
N692   N     0.28402   0.16669   0.75000   0.00000  Uiso   1.00
O693   O     0.12708   0.22678   0.75001   0.00000  Uiso   1.00
O694   O     0.20627   0.22679   0.75001   0.00000  Uiso   1.00
O695   O     0.10775   0.16665   0.82549   0.00000  Uiso   1.00
O696   O     0.18694   0.16666   0.82549   0.00000  Uiso   1.00
O697   O     0.12706   0.10654   0.75000   0.00000  Uiso   1.00
O698   O     0.20625   0.10655   0.75000   0.00000  Uiso   1.00
O699   O     0.14640   0.16667   0.67451   0.00000  Uiso   1.00
O700   O     0.22559   0.16668   0.67451   0.00000  Uiso   1.00
C701   C     0.25609   0.04142   0.68782   0.00000  Uiso   1.00
H702   H     0.25472   0.07246   0.67302   0.00000  Uiso   1.00
O703   O     0.29534   0.02359   0.67651   0.00000  Uiso   1.00
C704   C     0.28407   0.23561   0.90803   0.00000  Uiso   1.00
C705   C     0.32140   0.20634   0.87479   0.00000  Uiso   1.00
H706   H     0.33021   0.18132   0.89902   0.00000  Uiso   1.00
H707   H     0.30630   0.19261   0.84497   0.00000  Uiso   1.00
H708   H     0.02200   0.22346   0.85523   0.00000  Uiso   1.00
H709   H     0.27537   0.26004   0.88274   0.00000  Uiso   1.00
H710   H     0.30023   0.25188   0.93551   0.00000  Uiso   1.00
C711   C     0.12108   0.21282   0.59801   0.00000  Uiso   1.00
C712   C     0.13186   0.25366   0.62079   0.00000  Uiso   1.00
H713   H     0.09713   0.26979   0.63945   0.00000  Uiso   1.00
H714   H     0.15185   0.24864   0.65010   0.00000  Uiso   1.00
H715   H     0.15425   0.27384   0.58952   0.00000  Uiso   1.00
H716   H     0.09989   0.22142   0.57061   0.00000  Uiso   1.00
H717   H     0.09616   0.19315   0.62764   0.00000  Uiso   1.00
C718   C     0.02589   0.12056   0.51433   0.00000  Uiso   1.00
H719   H     0.01759   0.11517   0.55579   0.00000  Uiso   1.00
O720   O     0.33073   0.10806   0.99136   0.00000  Uiso   1.00
C721   C     0.49998   0.24591   0.75012   0.00000  Uiso   1.00
C722   C     0.48006   0.17729   0.98887   0.00000  Uiso   1.00
C723   C     0.49178   0.18458   0.93495   0.00000  Uiso   1.00
C724   C     0.51405   0.18871   0.51592   0.00000  Uiso   1.00
C725   C     0.56227   0.19938   0.98814   0.00000  Uiso   1.00
C726   C     0.57133   0.21268   0.93629   0.00000  Uiso   1.00
C727   C     0.53506   0.20670   0.91098   0.00000  Uiso   1.00
C728   C     0.50151   0.19028   0.57016   0.00000  Uiso   1.00
C729   C     0.58738   0.18434   0.56562   0.00000  Uiso   1.00
C730   C     0.46006   0.16932   0.90684   0.00000  Uiso   1.00
C731   C     0.54357   0.31112   0.72332   0.00000  Uiso   1.00
C732   C     0.47438   0.16856   0.84988   0.00000  Uiso   1.00
C733   C     0.54448   0.02074   0.71997   0.00000  Uiso   1.00
C734   C     0.50145   0.04269   0.74498   0.00000  Uiso   1.00
C735   C     0.45824   0.02147   0.76942   0.00000  Uiso   1.00
C736   C     0.45761   0.31218   0.77074   0.00000  Uiso   1.00
C737   C     0.50042   0.29041   0.74850   0.00000  Uiso   1.00
C738   C     0.64740   0.19893   0.72899   0.00000  Uiso   1.00
C739   C     0.36352   0.19904   0.72934   0.00000  Uiso   1.00
C740   C     0.35268   0.13426   0.77068   0.00000  Uiso   1.00
C741   C     0.63640   0.13430   0.77076   0.00000  Uiso   1.00
C742   C     0.50065   0.08741   0.74772   0.00000  Uiso   1.00
C743   C     0.52541   0.17071   0.65041   0.00000  Uiso   1.00
C744   C     0.59912   0.19669   0.51366   0.00000  Uiso   1.00
C745   C     0.53830   0.18097   0.59470   0.00000  Uiso   1.00
C746   C     0.41622   0.14971   0.93325   0.00000  Uiso   1.00
C747   C     0.40434   0.14284   0.98664   0.00000  Uiso   1.00
C748   C     0.43679   0.15558   0.51381   0.00000  Uiso   1.00
Cu749  Cu    0.45311   0.16666   0.75000   0.00000  Uiso   1.00
Cu750  Cu    0.54689   0.16667   0.75000   0.00000  Uiso   1.00
H751   H     0.61651   0.17966   0.58364   0.00000  Uiso   1.00
H752   H     0.42505   0.03790   0.78843   0.00000  Uiso   1.00
H753   H     0.42400   0.29625   0.79012   0.00000  Uiso   1.00
H754   H     0.63336   0.22475   0.71190   0.00000  Uiso   1.00
H755   H     0.38632   0.22512   0.71301   0.00000  Uiso   1.00
H756   H     0.36671   0.10848   0.78782   0.00000  Uiso   1.00
H757   H     0.61332   0.10854   0.78793   0.00000  Uiso   1.00
H758   H     0.63713   0.20171   0.99326   0.00000  Uiso   1.00
H759   H     0.39254   0.13751   0.91167   0.00000  Uiso   1.00
H760   H     0.42866   0.14716   0.55437   0.00000  Uiso   1.00
H761   H     0.54165   0.21916   0.87224   0.00000  Uiso   1.00
H762   H     0.57598   0.29358   0.70454   0.00000  Uiso   1.00
N763   N     0.38265   0.16666   0.74999   0.00000  Uiso   1.00
N764   N     0.61735   0.16669   0.75000   0.00000  Uiso   1.00
O765   O     0.46042   0.22678   0.75001   0.00000  Uiso   1.00
O766   O     0.53961   0.22679   0.75001   0.00000  Uiso   1.00
O767   O     0.44108   0.16665   0.82549   0.00000  Uiso   1.00
O768   O     0.52027   0.16666   0.82549   0.00000  Uiso   1.00
O769   O     0.46039   0.10654   0.75000   0.00000  Uiso   1.00
O770   O     0.53958   0.10655   0.75000   0.00000  Uiso   1.00
O771   O     0.47973   0.16667   0.67451   0.00000  Uiso   1.00
O772   O     0.55892   0.16668   0.67451   0.00000  Uiso   1.00
C773   C     0.58943   0.04142   0.68782   0.00000  Uiso   1.00
H774   H     0.58806   0.07246   0.67302   0.00000  Uiso   1.00
O775   O     0.62867   0.02359   0.67651   0.00000  Uiso   1.00
C776   C     0.61741   0.23561   0.90803   0.00000  Uiso   1.00
C777   C     0.65473   0.20634   0.87479   0.00000  Uiso   1.00
H778   H     0.66354   0.18132   0.89902   0.00000  Uiso   1.00
H779   H     0.63963   0.19261   0.84497   0.00000  Uiso   1.00
H780   H     0.35533   0.22346   0.85523   0.00000  Uiso   1.00
H781   H     0.60870   0.26004   0.88274   0.00000  Uiso   1.00
H782   H     0.63357   0.25188   0.93551   0.00000  Uiso   1.00
C783   C     0.45442   0.21282   0.59801   0.00000  Uiso   1.00
C784   C     0.46519   0.25366   0.62079   0.00000  Uiso   1.00
H785   H     0.43047   0.26979   0.63945   0.00000  Uiso   1.00
H786   H     0.48519   0.24864   0.65010   0.00000  Uiso   1.00
H787   H     0.48758   0.27384   0.58952   0.00000  Uiso   1.00
H788   H     0.43322   0.22142   0.57061   0.00000  Uiso   1.00
H789   H     0.42949   0.19315   0.62764   0.00000  Uiso   1.00
C790   C     0.35922   0.12056   0.51433   0.00000  Uiso   1.00
H791   H     0.35092   0.11517   0.55579   0.00000  Uiso   1.00
O792   O     0.66406   0.10806   0.99136   0.00000  Uiso   1.00
C793   C     0.83331   0.24591   0.75012   0.00000  Uiso   1.00
C794   C     0.81340   0.17729   0.98887   0.00000  Uiso   1.00
C795   C     0.82511   0.18458   0.93495   0.00000  Uiso   1.00
C796   C     0.84738   0.18871   0.51592   0.00000  Uiso   1.00
C797   C     0.89561   0.19938   0.98814   0.00000  Uiso   1.00
C798   C     0.90466   0.21268   0.93629   0.00000  Uiso   1.00
C799   C     0.86839   0.20670   0.91098   0.00000  Uiso   1.00
C800   C     0.83485   0.19028   0.57016   0.00000  Uiso   1.00
C801   C     0.92072   0.18434   0.56562   0.00000  Uiso   1.00
C802   C     0.79340   0.16932   0.90684   0.00000  Uiso   1.00
C803   C     0.87690   0.31112   0.72332   0.00000  Uiso   1.00
C804   C     0.80771   0.16856   0.84988   0.00000  Uiso   1.00
C805   C     0.87781   0.02074   0.71997   0.00000  Uiso   1.00
C806   C     0.83479   0.04269   0.74498   0.00000  Uiso   1.00
C807   C     0.79158   0.02147   0.76942   0.00000  Uiso   1.00
C808   C     0.79094   0.31218   0.77074   0.00000  Uiso   1.00
C809   C     0.83376   0.29041   0.74850   0.00000  Uiso   1.00
C810   C     0.98074   0.19893   0.72899   0.00000  Uiso   1.00
C811   C     0.69685   0.19904   0.72934   0.00000  Uiso   1.00
C812   C     0.68601   0.13426   0.77068   0.00000  Uiso   1.00
C813   C     0.96973   0.13430   0.77076   0.00000  Uiso   1.00
C814   C     0.83399   0.08741   0.74772   0.00000  Uiso   1.00
C815   C     0.85874   0.17071   0.65041   0.00000  Uiso   1.00
C816   C     0.93246   0.19669   0.51366   0.00000  Uiso   1.00
C817   C     0.87164   0.18097   0.59470   0.00000  Uiso   1.00
C818   C     0.74955   0.14971   0.93325   0.00000  Uiso   1.00
C819   C     0.73767   0.14284   0.98664   0.00000  Uiso   1.00
C820   C     0.77012   0.15558   0.51381   0.00000  Uiso   1.00
Cu821  Cu    0.78645   0.16666   0.75000   0.00000  Uiso   1.00
Cu822  Cu    0.88022   0.16667   0.75000   0.00000  Uiso   1.00
H823   H     0.94984   0.17966   0.58364   0.00000  Uiso   1.00
H824   H     0.75839   0.03790   0.78843   0.00000  Uiso   1.00
H825   H     0.75733   0.29625   0.79012   0.00000  Uiso   1.00
H826   H     0.96670   0.22475   0.71190   0.00000  Uiso   1.00
H827   H     0.71965   0.22512   0.71301   0.00000  Uiso   1.00
H828   H     0.70004   0.10848   0.78782   0.00000  Uiso   1.00
H829   H     0.94665   0.10854   0.78793   0.00000  Uiso   1.00
H830   H     0.97047   0.20171   0.99326   0.00000  Uiso   1.00
H831   H     0.72587   0.13751   0.91167   0.00000  Uiso   1.00
H832   H     0.76199   0.14716   0.55437   0.00000  Uiso   1.00
H833   H     0.87498   0.21916   0.87224   0.00000  Uiso   1.00
H834   H     0.90931   0.29358   0.70454   0.00000  Uiso   1.00
N835   N     0.71598   0.16666   0.74999   0.00000  Uiso   1.00
N836   N     0.95069   0.16669   0.75000   0.00000  Uiso   1.00
O837   O     0.79375   0.22678   0.75001   0.00000  Uiso   1.00
O838   O     0.87294   0.22679   0.75001   0.00000  Uiso   1.00
O839   O     0.77441   0.16665   0.82549   0.00000  Uiso   1.00
O840   O     0.85360   0.16666   0.82549   0.00000  Uiso   1.00
O841   O     0.79373   0.10654   0.75000   0.00000  Uiso   1.00
O842   O     0.87292   0.10655   0.75000   0.00000  Uiso   1.00
O843   O     0.81306   0.16667   0.67451   0.00000  Uiso   1.00
O844   O     0.89225   0.16668   0.67451   0.00000  Uiso   1.00
C845   C     0.92276   0.04142   0.68782   0.00000  Uiso   1.00
H846   H     0.92139   0.07246   0.67302   0.00000  Uiso   1.00
O847   O     0.96200   0.02359   0.67651   0.00000  Uiso   1.00
C848   C     0.95074   0.23561   0.90803   0.00000  Uiso   1.00
C849   C     0.98806   0.20634   0.87479   0.00000  Uiso   1.00
H850   H     0.99688   0.18132   0.89902   0.00000  Uiso   1.00
H851   H     0.97296   0.19261   0.84497   0.00000  Uiso   1.00
H852   H     0.68867   0.22346   0.85523   0.00000  Uiso   1.00
H853   H     0.94204   0.26004   0.88274   0.00000  Uiso   1.00
H854   H     0.96690   0.25188   0.93551   0.00000  Uiso   1.00
C855   C     0.78775   0.21282   0.59801   0.00000  Uiso   1.00
C856   C     0.79852   0.25366   0.62079   0.00000  Uiso   1.00
H857   H     0.76380   0.26979   0.63945   0.00000  Uiso   1.00
H858   H     0.81852   0.24864   0.65010   0.00000  Uiso   1.00
H859   H     0.82092   0.27384   0.58952   0.00000  Uiso   1.00
H860   H     0.76655   0.22142   0.57061   0.00000  Uiso   1.00
H861   H     0.76282   0.19315   0.62764   0.00000  Uiso   1.00
C862   C     0.69256   0.12056   0.51433   0.00000  Uiso   1.00
H863   H     0.68425   0.11517   0.55579   0.00000  Uiso   1.00
O864   O     0.99740   0.10806   0.99136   0.00000  Uiso   1.00
C865   C     0.16664   0.57925   0.75012   0.00000  Uiso   1.00
C866   C     0.14673   0.51062   0.98887   0.00000  Uiso   1.00
C867   C     0.15844   0.51791   0.93495   0.00000  Uiso   1.00
C868   C     0.18072   0.52204   0.51592   0.00000  Uiso   1.00
C869   C     0.22894   0.53271   0.98814   0.00000  Uiso   1.00
C870   C     0.23800   0.54601   0.93629   0.00000  Uiso   1.00
C871   C     0.20173   0.54003   0.91098   0.00000  Uiso   1.00
C872   C     0.16818   0.52362   0.57016   0.00000  Uiso   1.00
C873   C     0.25405   0.51767   0.56562   0.00000  Uiso   1.00
C874   C     0.12673   0.50266   0.90684   0.00000  Uiso   1.00
C875   C     0.21023   0.64445   0.72332   0.00000  Uiso   1.00
C876   C     0.14104   0.50189   0.84988   0.00000  Uiso   1.00
C877   C     0.21114   0.35407   0.71997   0.00000  Uiso   1.00
C878   C     0.16812   0.37603   0.74498   0.00000  Uiso   1.00
C879   C     0.12491   0.35480   0.76942   0.00000  Uiso   1.00
C880   C     0.12427   0.64552   0.77074   0.00000  Uiso   1.00
C881   C     0.16709   0.62375   0.74850   0.00000  Uiso   1.00
C882   C     0.31407   0.53227   0.72899   0.00000  Uiso   1.00
C883   C     0.03019   0.53238   0.72934   0.00000  Uiso   1.00
C884   C     0.01934   0.46759   0.77068   0.00000  Uiso   1.00
C885   C     0.30307   0.46764   0.77076   0.00000  Uiso   1.00
C886   C     0.16732   0.42075   0.74772   0.00000  Uiso   1.00
C887   C     0.19208   0.50404   0.65041   0.00000  Uiso   1.00
C888   C     0.26579   0.53002   0.51366   0.00000  Uiso   1.00
C889   C     0.20497   0.51431   0.59470   0.00000  Uiso   1.00
C890   C     0.08289   0.48305   0.93325   0.00000  Uiso   1.00
C891   C     0.07101   0.47618   0.98664   0.00000  Uiso   1.00
C892   C     0.10345   0.48892   0.51381   0.00000  Uiso   1.00
Cu893  Cu    0.11978   0.49999   0.75000   0.00000  Uiso   1.00
Cu894  Cu    0.21355   0.50001   0.75000   0.00000  Uiso   1.00
H895   H     0.28317   0.51299   0.58364   0.00000  Uiso   1.00
H896   H     0.09172   0.37123   0.78843   0.00000  Uiso   1.00
H897   H     0.09067   0.62959   0.79012   0.00000  Uiso   1.00
H898   H     0.30003   0.55808   0.71190   0.00000  Uiso   1.00
H899   H     0.05298   0.55846   0.71301   0.00000  Uiso   1.00
H900   H     0.03338   0.44181   0.78782   0.00000  Uiso   1.00
H901   H     0.27999   0.44187   0.78793   0.00000  Uiso   1.00
H902   H     0.30380   0.53504   0.99326   0.00000  Uiso   1.00
H903   H     0.05921   0.47084   0.91167   0.00000  Uiso   1.00
H904   H     0.09532   0.48049   0.55437   0.00000  Uiso   1.00
H905   H     0.20832   0.55249   0.87224   0.00000  Uiso   1.00
H906   H     0.24264   0.62692   0.70454   0.00000  Uiso   1.00
N907   N     0.04931   0.49999   0.74999   0.00000  Uiso   1.00
N908   N     0.28402   0.50002   0.75000   0.00000  Uiso   1.00
O909   O     0.12708   0.56011   0.75001   0.00000  Uiso   1.00
O910   O     0.20627   0.56012   0.75001   0.00000  Uiso   1.00
O911   O     0.10775   0.49998   0.82549   0.00000  Uiso   1.00
O912   O     0.18694   0.49999   0.82549   0.00000  Uiso   1.00
O913   O     0.12706   0.43988   0.75000   0.00000  Uiso   1.00
O914   O     0.20625   0.43989   0.75000   0.00000  Uiso   1.00
O915   O     0.14640   0.50001   0.67451   0.00000  Uiso   1.00
O916   O     0.22559   0.50002   0.67451   0.00000  Uiso   1.00
C917   C     0.25609   0.37475   0.68782   0.00000  Uiso   1.00
H918   H     0.25472   0.40579   0.67302   0.00000  Uiso   1.00
O919   O     0.29534   0.35693   0.67651   0.00000  Uiso   1.00
C920   C     0.28407   0.56895   0.90803   0.00000  Uiso   1.00
C921   C     0.32140   0.53967   0.87479   0.00000  Uiso   1.00
H922   H     0.33021   0.51465   0.89902   0.00000  Uiso   1.00
H923   H     0.30630   0.52595   0.84497   0.00000  Uiso   1.00
H924   H     0.02200   0.55679   0.85523   0.00000  Uiso   1.00
H925   H     0.27537   0.59337   0.88274   0.00000  Uiso   1.00
H926   H     0.30023   0.58521   0.93551   0.00000  Uiso   1.00
C927   C     0.12108   0.54615   0.59801   0.00000  Uiso   1.00
C928   C     0.13186   0.58699   0.62079   0.00000  Uiso   1.00
H929   H     0.09713   0.60313   0.63945   0.00000  Uiso   1.00
H930   H     0.15185   0.58197   0.65010   0.00000  Uiso   1.00
H931   H     0.15425   0.60717   0.58952   0.00000  Uiso   1.00
H932   H     0.09989   0.55476   0.57061   0.00000  Uiso   1.00
H933   H     0.09616   0.52648   0.62764   0.00000  Uiso   1.00
C934   C     0.02589   0.45390   0.51433   0.00000  Uiso   1.00
H935   H     0.01759   0.44850   0.55579   0.00000  Uiso   1.00
O936   O     0.33073   0.44139   0.99136   0.00000  Uiso   1.00
C937   C     0.49998   0.57925   0.75012   0.00000  Uiso   1.00
C938   C     0.48006   0.51062   0.98887   0.00000  Uiso   1.00
C939   C     0.49178   0.51791   0.93495   0.00000  Uiso   1.00
C940   C     0.51405   0.52204   0.51592   0.00000  Uiso   1.00
C941   C     0.56227   0.53271   0.98814   0.00000  Uiso   1.00
C942   C     0.57133   0.54601   0.93629   0.00000  Uiso   1.00
C943   C     0.53506   0.54003   0.91098   0.00000  Uiso   1.00
C944   C     0.50151   0.52362   0.57016   0.00000  Uiso   1.00
C945   C     0.58738   0.51767   0.56562   0.00000  Uiso   1.00
C946   C     0.46006   0.50266   0.90684   0.00000  Uiso   1.00
C947   C     0.54357   0.64445   0.72332   0.00000  Uiso   1.00
C948   C     0.47438   0.50189   0.84988   0.00000  Uiso   1.00
C949   C     0.54448   0.35407   0.71997   0.00000  Uiso   1.00
C950   C     0.50145   0.37603   0.74498   0.00000  Uiso   1.00
C951   C     0.45824   0.35480   0.76942   0.00000  Uiso   1.00
C952   C     0.45761   0.64552   0.77074   0.00000  Uiso   1.00
C953   C     0.50042   0.62375   0.74850   0.00000  Uiso   1.00
C954   C     0.64740   0.53227   0.72899   0.00000  Uiso   1.00
C955   C     0.36352   0.53238   0.72934   0.00000  Uiso   1.00
C956   C     0.35268   0.46759   0.77068   0.00000  Uiso   1.00
C957   C     0.63640   0.46764   0.77076   0.00000  Uiso   1.00
C958   C     0.50065   0.42075   0.74772   0.00000  Uiso   1.00
C959   C     0.52541   0.50404   0.65041   0.00000  Uiso   1.00
C960   C     0.59912   0.53002   0.51366   0.00000  Uiso   1.00
C961   C     0.53830   0.51431   0.59470   0.00000  Uiso   1.00
C962   C     0.41622   0.48305   0.93325   0.00000  Uiso   1.00
C963   C     0.40434   0.47618   0.98664   0.00000  Uiso   1.00
C964   C     0.43679   0.48892   0.51381   0.00000  Uiso   1.00
Cu965  Cu    0.45311   0.49999   0.75000   0.00000  Uiso   1.00
Cu966  Cu    0.54689   0.50001   0.75000   0.00000  Uiso   1.00
H967   H     0.61651   0.51299   0.58364   0.00000  Uiso   1.00
H968   H     0.42505   0.37123   0.78843   0.00000  Uiso   1.00
H969   H     0.42400   0.62959   0.79012   0.00000  Uiso   1.00
H970   H     0.63336   0.55808   0.71190   0.00000  Uiso   1.00
H971   H     0.38632   0.55846   0.71301   0.00000  Uiso   1.00
H972   H     0.36671   0.44181   0.78782   0.00000  Uiso   1.00
H973   H     0.61332   0.44187   0.78793   0.00000  Uiso   1.00
H974   H     0.63713   0.53504   0.99326   0.00000  Uiso   1.00
H975   H     0.39254   0.47084   0.91167   0.00000  Uiso   1.00
H976   H     0.42866   0.48049   0.55437   0.00000  Uiso   1.00
H977   H     0.54165   0.55249   0.87224   0.00000  Uiso   1.00
H978   H     0.57598   0.62692   0.70454   0.00000  Uiso   1.00
N979   N     0.38265   0.49999   0.74999   0.00000  Uiso   1.00
N980   N     0.61735   0.50002   0.75000   0.00000  Uiso   1.00
O981   O     0.46042   0.56011   0.75001   0.00000  Uiso   1.00
O982   O     0.53961   0.56012   0.75001   0.00000  Uiso   1.00
O983   O     0.44108   0.49998   0.82549   0.00000  Uiso   1.00
O984   O     0.52027   0.49999   0.82549   0.00000  Uiso   1.00
O985   O     0.46039   0.43988   0.75000   0.00000  Uiso   1.00
O986   O     0.53958   0.43989   0.75000   0.00000  Uiso   1.00
O987   O     0.47973   0.50001   0.67451   0.00000  Uiso   1.00
O988   O     0.55892   0.50002   0.67451   0.00000  Uiso   1.00
C989   C     0.58943   0.37475   0.68782   0.00000  Uiso   1.00
H990   H     0.58806   0.40579   0.67302   0.00000  Uiso   1.00
O991   O     0.62867   0.35693   0.67651   0.00000  Uiso   1.00
C992   C     0.61741   0.56895   0.90803   0.00000  Uiso   1.00
C993   C     0.65473   0.53967   0.87479   0.00000  Uiso   1.00
H994   H     0.66354   0.51465   0.89902   0.00000  Uiso   1.00
H995   H     0.63963   0.52595   0.84497   0.00000  Uiso   1.00
H996   H     0.35533   0.55679   0.85523   0.00000  Uiso   1.00
H997   H     0.60870   0.59337   0.88274   0.00000  Uiso   1.00
H998   H     0.63357   0.58521   0.93551   0.00000  Uiso   1.00
C999   C     0.45442   0.54615   0.59801   0.00000  Uiso   1.00
C1000  C     0.46519   0.58699   0.62079   0.00000  Uiso   1.00
H1001  H     0.43047   0.60313   0.63945   0.00000  Uiso   1.00
H1002  H     0.48519   0.58197   0.65010   0.00000  Uiso   1.00
H1003  H     0.48758   0.60717   0.58952   0.00000  Uiso   1.00
H1004  H     0.43322   0.55476   0.57061   0.00000  Uiso   1.00
H1005  H     0.42949   0.52648   0.62764   0.00000  Uiso   1.00
C1006  C     0.35922   0.45390   0.51433   0.00000  Uiso   1.00
H1007  H     0.35092   0.44850   0.55579   0.00000  Uiso   1.00
O1008  O     0.66406   0.44139   0.99136   0.00000  Uiso   1.00
C1009  C     0.83331   0.57925   0.75012   0.00000  Uiso   1.00
C1010  C     0.81340   0.51062   0.98887   0.00000  Uiso   1.00
C1011  C     0.82511   0.51791   0.93495   0.00000  Uiso   1.00
C1012  C     0.84738   0.52204   0.51592   0.00000  Uiso   1.00
C1013  C     0.89561   0.53271   0.98814   0.00000  Uiso   1.00
C1014  C     0.90466   0.54601   0.93629   0.00000  Uiso   1.00
C1015  C     0.86839   0.54003   0.91098   0.00000  Uiso   1.00
C1016  C     0.83485   0.52362   0.57016   0.00000  Uiso   1.00
C1017  C     0.92072   0.51767   0.56562   0.00000  Uiso   1.00
C1018  C     0.79340   0.50266   0.90684   0.00000  Uiso   1.00
C1019  C     0.87690   0.64445   0.72332   0.00000  Uiso   1.00
C1020  C     0.80771   0.50189   0.84988   0.00000  Uiso   1.00
C1021  C     0.87781   0.35407   0.71997   0.00000  Uiso   1.00
C1022  C     0.83479   0.37603   0.74498   0.00000  Uiso   1.00
C1023  C     0.79158   0.35480   0.76942   0.00000  Uiso   1.00
C1024  C     0.79094   0.64552   0.77074   0.00000  Uiso   1.00
C1025  C     0.83376   0.62375   0.74850   0.00000  Uiso   1.00
C1026  C     0.98074   0.53227   0.72899   0.00000  Uiso   1.00
C1027  C     0.69685   0.53238   0.72934   0.00000  Uiso   1.00
C1028  C     0.68601   0.46759   0.77068   0.00000  Uiso   1.00
C1029  C     0.96973   0.46764   0.77076   0.00000  Uiso   1.00
C1030  C     0.83399   0.42075   0.74772   0.00000  Uiso   1.00
C1031  C     0.85874   0.50404   0.65041   0.00000  Uiso   1.00
C1032  C     0.93246   0.53002   0.51366   0.00000  Uiso   1.00
C1033  C     0.87164   0.51431   0.59470   0.00000  Uiso   1.00
C1034  C     0.74955   0.48305   0.93325   0.00000  Uiso   1.00
C1035  C     0.73767   0.47618   0.98664   0.00000  Uiso   1.00
C1036  C     0.77012   0.48892   0.51381   0.00000  Uiso   1.00
Cu1037 Cu    0.78645   0.49999   0.75000   0.00000  Uiso   1.00
Cu1038 Cu    0.88022   0.50001   0.75000   0.00000  Uiso   1.00
H1039  H     0.94984   0.51299   0.58364   0.00000  Uiso   1.00
H1040  H     0.75839   0.37123   0.78843   0.00000  Uiso   1.00
H1041  H     0.75733   0.62959   0.79012   0.00000  Uiso   1.00
H1042  H     0.96670   0.55808   0.71190   0.00000  Uiso   1.00
H1043  H     0.71965   0.55846   0.71301   0.00000  Uiso   1.00
H1044  H     0.70004   0.44181   0.78782   0.00000  Uiso   1.00
H1045  H     0.94665   0.44187   0.78793   0.00000  Uiso   1.00
H1046  H     0.97047   0.53504   0.99326   0.00000  Uiso   1.00
H1047  H     0.72587   0.47084   0.91167   0.00000  Uiso   1.00
H1048  H     0.76199   0.48049   0.55437   0.00000  Uiso   1.00
H1049  H     0.87498   0.55249   0.87224   0.00000  Uiso   1.00
H1050  H     0.90931   0.62692   0.70454   0.00000  Uiso   1.00
N1051  N     0.71598   0.49999   0.74999   0.00000  Uiso   1.00
N1052  N     0.95069   0.50002   0.75000   0.00000  Uiso   1.00
O1053  O     0.79375   0.56011   0.75001   0.00000  Uiso   1.00
O1054  O     0.87294   0.56012   0.75001   0.00000  Uiso   1.00
O1055  O     0.77441   0.49998   0.82549   0.00000  Uiso   1.00
O1056  O     0.85360   0.49999   0.82549   0.00000  Uiso   1.00
O1057  O     0.79373   0.43988   0.75000   0.00000  Uiso   1.00
O1058  O     0.87292   0.43989   0.75000   0.00000  Uiso   1.00
O1059  O     0.81306   0.50001   0.67451   0.00000  Uiso   1.00
O1060  O     0.89225   0.50002   0.67451   0.00000  Uiso   1.00
C1061  C     0.92276   0.37475   0.68782   0.00000  Uiso   1.00
H1062  H     0.92139   0.40579   0.67302   0.00000  Uiso   1.00
O1063  O     0.96200   0.35693   0.67651   0.00000  Uiso   1.00
C1064  C     0.95074   0.56895   0.90803   0.00000  Uiso   1.00
C1065  C     0.98806   0.53967   0.87479   0.00000  Uiso   1.00
H1066  H     0.99688   0.51465   0.89902   0.00000  Uiso   1.00
H1067  H     0.97296   0.52595   0.84497   0.00000  Uiso   1.00
H1068  H     0.68867   0.55679   0.85523   0.00000  Uiso   1.00
H1069  H     0.94204   0.59337   0.88274   0.00000  Uiso   1.00
H1070  H     0.96690   0.58521   0.93551   0.00000  Uiso   1.00
C1071  C     0.78775   0.54615   0.59801   0.00000  Uiso   1.00
C1072  C     0.79852   0.58699   0.62079   0.00000  Uiso   1.00
H1073  H     0.76380   0.60313   0.63945   0.00000  Uiso   1.00
H1074  H     0.81852   0.58197   0.65010   0.00000  Uiso   1.00
H1075  H     0.82092   0.60717   0.58952   0.00000  Uiso   1.00
H1076  H     0.76655   0.55476   0.57061   0.00000  Uiso   1.00
H1077  H     0.76282   0.52648   0.62764   0.00000  Uiso   1.00
C1078  C     0.69256   0.45390   0.51433   0.00000  Uiso   1.00
H1079  H     0.68425   0.44850   0.55579   0.00000  Uiso   1.00
O1080  O     0.99740   0.44139   0.99136   0.00000  Uiso   1.00
C1081  C     0.16664   0.91258   0.75012   0.00000  Uiso   1.00
C1082  C     0.14673   0.84395   0.98887   0.00000  Uiso   1.00
C1083  C     0.15844   0.85124   0.93495   0.00000  Uiso   1.00
C1084  C     0.18072   0.85538   0.51592   0.00000  Uiso   1.00
C1085  C     0.22894   0.86604   0.98814   0.00000  Uiso   1.00
C1086  C     0.23800   0.87934   0.93629   0.00000  Uiso   1.00
C1087  C     0.20173   0.87336   0.91098   0.00000  Uiso   1.00
C1088  C     0.16818   0.85695   0.57016   0.00000  Uiso   1.00
C1089  C     0.25405   0.85101   0.56562   0.00000  Uiso   1.00
C1090  C     0.12673   0.83599   0.90684   0.00000  Uiso   1.00
C1091  C     0.21023   0.97779   0.72332   0.00000  Uiso   1.00
C1092  C     0.14104   0.83523   0.84988   0.00000  Uiso   1.00
C1093  C     0.21114   0.68740   0.71997   0.00000  Uiso   1.00
C1094  C     0.16812   0.70936   0.74498   0.00000  Uiso   1.00
C1095  C     0.12491   0.68814   0.76942   0.00000  Uiso   1.00
C1096  C     0.12427   0.97885   0.77074   0.00000  Uiso   1.00
C1097  C     0.16709   0.95708   0.74850   0.00000  Uiso   1.00
C1098  C     0.31407   0.86560   0.72899   0.00000  Uiso   1.00
C1099  C     0.03019   0.86571   0.72934   0.00000  Uiso   1.00
C1100  C     0.01934   0.80093   0.77068   0.00000  Uiso   1.00
C1101  C     0.30307   0.80097   0.77076   0.00000  Uiso   1.00
C1102  C     0.16732   0.75408   0.74772   0.00000  Uiso   1.00
C1103  C     0.19208   0.83738   0.65041   0.00000  Uiso   1.00
C1104  C     0.26579   0.86335   0.51366   0.00000  Uiso   1.00
C1105  C     0.20497   0.84764   0.59470   0.00000  Uiso   1.00
C1106  C     0.08289   0.81638   0.93325   0.00000  Uiso   1.00
C1107  C     0.07101   0.80951   0.98664   0.00000  Uiso   1.00
C1108  C     0.10345   0.82225   0.51381   0.00000  Uiso   1.00
Cu1109 Cu    0.11978   0.83333   0.75000   0.00000  Uiso   1.00
Cu1110 Cu    0.21355   0.83334   0.75000   0.00000  Uiso   1.00
H1111  H     0.28317   0.84632   0.58364   0.00000  Uiso   1.00
H1112  H     0.09172   0.70457   0.78843   0.00000  Uiso   1.00
H1113  H     0.09067   0.96292   0.79012   0.00000  Uiso   1.00
H1114  H     0.30003   0.89142   0.71190   0.00000  Uiso   1.00
H1115  H     0.05298   0.89179   0.71301   0.00000  Uiso   1.00
H1116  H     0.03338   0.77514   0.78782   0.00000  Uiso   1.00
H1117  H     0.27999   0.77520   0.78793   0.00000  Uiso   1.00
H1118  H     0.30380   0.86837   0.99326   0.00000  Uiso   1.00
H1119  H     0.05921   0.80417   0.91167   0.00000  Uiso   1.00
H1120  H     0.09532   0.81383   0.55437   0.00000  Uiso   1.00
H1121  H     0.20832   0.88582   0.87224   0.00000  Uiso   1.00
H1122  H     0.24264   0.96025   0.70454   0.00000  Uiso   1.00
N1123  N     0.04931   0.83332   0.74999   0.00000  Uiso   1.00
N1124  N     0.28402   0.83335   0.75000   0.00000  Uiso   1.00
O1125  O     0.12708   0.89345   0.75001   0.00000  Uiso   1.00
O1126  O     0.20627   0.89346   0.75001   0.00000  Uiso   1.00
O1127  O     0.10775   0.83332   0.82549   0.00000  Uiso   1.00
O1128  O     0.18694   0.83333   0.82549   0.00000  Uiso   1.00
O1129  O     0.12706   0.77321   0.75000   0.00000  Uiso   1.00
O1130  O     0.20625   0.77322   0.75000   0.00000  Uiso   1.00
O1131  O     0.14640   0.83334   0.67451   0.00000  Uiso   1.00
O1132  O     0.22559   0.83335   0.67451   0.00000  Uiso   1.00
C1133  C     0.25609   0.70808   0.68782   0.00000  Uiso   1.00
H1134  H     0.25472   0.73912   0.67302   0.00000  Uiso   1.00
O1135  O     0.29534   0.69026   0.67651   0.00000  Uiso   1.00
C1136  C     0.28407   0.90228   0.90803   0.00000  Uiso   1.00
C1137  C     0.32140   0.87300   0.87479   0.00000  Uiso   1.00
H1138  H     0.33021   0.84799   0.89902   0.00000  Uiso   1.00
H1139  H     0.30630   0.85928   0.84497   0.00000  Uiso   1.00
H1140  H     0.02200   0.89013   0.85523   0.00000  Uiso   1.00
H1141  H     0.27537   0.92670   0.88274   0.00000  Uiso   1.00
H1142  H     0.30023   0.91855   0.93551   0.00000  Uiso   1.00
C1143  C     0.12108   0.87948   0.59801   0.00000  Uiso   1.00
C1144  C     0.13186   0.92032   0.62079   0.00000  Uiso   1.00
H1145  H     0.09713   0.93646   0.63945   0.00000  Uiso   1.00
H1146  H     0.15185   0.91531   0.65010   0.00000  Uiso   1.00
H1147  H     0.15425   0.94051   0.58952   0.00000  Uiso   1.00
H1148  H     0.09989   0.88809   0.57061   0.00000  Uiso   1.00
H1149  H     0.09616   0.85981   0.62764   0.00000  Uiso   1.00
C1150  C     0.02589   0.78723   0.51433   0.00000  Uiso   1.00
H1151  H     0.01759   0.78184   0.55579   0.00000  Uiso   1.00
O1152  O     0.33073   0.77473   0.99136   0.00000  Uiso   1.00
C1153  C     0.49998   0.91258   0.75012   0.00000  Uiso   1.00
C1154  C     0.48006   0.84395   0.98887   0.00000  Uiso   1.00
C1155  C     0.49178   0.85124   0.93495   0.00000  Uiso   1.00
C1156  C     0.51405   0.85538   0.51592   0.00000  Uiso   1.00
C1157  C     0.56227   0.86604   0.98814   0.00000  Uiso   1.00
C1158  C     0.57133   0.87934   0.93629   0.00000  Uiso   1.00
C1159  C     0.53506   0.87336   0.91098   0.00000  Uiso   1.00
C1160  C     0.50151   0.85695   0.57016   0.00000  Uiso   1.00
C1161  C     0.58738   0.85101   0.56562   0.00000  Uiso   1.00
C1162  C     0.46006   0.83599   0.90684   0.00000  Uiso   1.00
C1163  C     0.54357   0.97779   0.72332   0.00000  Uiso   1.00
C1164  C     0.47438   0.83523   0.84988   0.00000  Uiso   1.00
C1165  C     0.54448   0.68740   0.71997   0.00000  Uiso   1.00
C1166  C     0.50145   0.70936   0.74498   0.00000  Uiso   1.00
C1167  C     0.45824   0.68814   0.76942   0.00000  Uiso   1.00
C1168  C     0.45761   0.97885   0.77074   0.00000  Uiso   1.00
C1169  C     0.50042   0.95708   0.74850   0.00000  Uiso   1.00
C1170  C     0.64740   0.86560   0.72899   0.00000  Uiso   1.00
C1171  C     0.36352   0.86571   0.72934   0.00000  Uiso   1.00
C1172  C     0.35268   0.80093   0.77068   0.00000  Uiso   1.00
C1173  C     0.63640   0.80097   0.77076   0.00000  Uiso   1.00
C1174  C     0.50065   0.75408   0.74772   0.00000  Uiso   1.00
C1175  C     0.52541   0.83738   0.65041   0.00000  Uiso   1.00
C1176  C     0.59912   0.86335   0.51366   0.00000  Uiso   1.00
C1177  C     0.53830   0.84764   0.59470   0.00000  Uiso   1.00
C1178  C     0.41622   0.81638   0.93325   0.00000  Uiso   1.00
C1179  C     0.40434   0.80951   0.98664   0.00000  Uiso   1.00
C1180  C     0.43679   0.82225   0.51381   0.00000  Uiso   1.00
Cu1181 Cu    0.45311   0.83333   0.75000   0.00000  Uiso   1.00
Cu1182 Cu    0.54689   0.83334   0.75000   0.00000  Uiso   1.00
H1183  H     0.61651   0.84632   0.58364   0.00000  Uiso   1.00
H1184  H     0.42505   0.70457   0.78843   0.00000  Uiso   1.00
H1185  H     0.42400   0.96292   0.79012   0.00000  Uiso   1.00
H1186  H     0.63336   0.89142   0.71190   0.00000  Uiso   1.00
H1187  H     0.38632   0.89179   0.71301   0.00000  Uiso   1.00
H1188  H     0.36671   0.77514   0.78782   0.00000  Uiso   1.00
H1189  H     0.61332   0.77520   0.78793   0.00000  Uiso   1.00
H1190  H     0.63713   0.86837   0.99326   0.00000  Uiso   1.00
H1191  H     0.39254   0.80417   0.91167   0.00000  Uiso   1.00
H1192  H     0.42866   0.81383   0.55437   0.00000  Uiso   1.00
H1193  H     0.54165   0.88582   0.87224   0.00000  Uiso   1.00
H1194  H     0.57598   0.96025   0.70454   0.00000  Uiso   1.00
N1195  N     0.38265   0.83332   0.74999   0.00000  Uiso   1.00
N1196  N     0.61735   0.83335   0.75000   0.00000  Uiso   1.00
O1197  O     0.46042   0.89345   0.75001   0.00000  Uiso   1.00
O1198  O     0.53961   0.89346   0.75001   0.00000  Uiso   1.00
O1199  O     0.44108   0.83332   0.82549   0.00000  Uiso   1.00
O1200  O     0.52027   0.83333   0.82549   0.00000  Uiso   1.00
O1201  O     0.46039   0.77321   0.75000   0.00000  Uiso   1.00
O1202  O     0.53958   0.77322   0.75000   0.00000  Uiso   1.00
O1203  O     0.47973   0.83334   0.67451   0.00000  Uiso   1.00
O1204  O     0.55892   0.83335   0.67451   0.00000  Uiso   1.00
C1205  C     0.58943   0.70808   0.68782   0.00000  Uiso   1.00
H1206  H     0.58806   0.73912   0.67302   0.00000  Uiso   1.00
O1207  O     0.62867   0.69026   0.67651   0.00000  Uiso   1.00
C1208  C     0.61741   0.90228   0.90803   0.00000  Uiso   1.00
C1209  C     0.65473   0.87300   0.87479   0.00000  Uiso   1.00
H1210  H     0.66354   0.84799   0.89902   0.00000  Uiso   1.00
H1211  H     0.63963   0.85928   0.84497   0.00000  Uiso   1.00
H1212  H     0.35533   0.89013   0.85523   0.00000  Uiso   1.00
H1213  H     0.60870   0.92670   0.88274   0.00000  Uiso   1.00
H1214  H     0.63357   0.91855   0.93551   0.00000  Uiso   1.00
C1215  C     0.45442   0.87948   0.59801   0.00000  Uiso   1.00
C1216  C     0.46519   0.92032   0.62079   0.00000  Uiso   1.00
H1217  H     0.43047   0.93646   0.63945   0.00000  Uiso   1.00
H1218  H     0.48519   0.91531   0.65010   0.00000  Uiso   1.00
H1219  H     0.48758   0.94051   0.58952   0.00000  Uiso   1.00
H1220  H     0.43322   0.88809   0.57061   0.00000  Uiso   1.00
H1221  H     0.42949   0.85981   0.62764   0.00000  Uiso   1.00
C1222  C     0.35922   0.78723   0.51433   0.00000  Uiso   1.00
H1223  H     0.35092   0.78184   0.55579   0.00000  Uiso   1.00
O1224  O     0.66406   0.77473   0.99136   0.00000  Uiso   1.00
C1225  C     0.83331   0.91258   0.75012   0.00000  Uiso   1.00
C1226  C     0.81340   0.84395   0.98887   0.00000  Uiso   1.00
C1227  C     0.82511   0.85124   0.93495   0.00000  Uiso   1.00
C1228  C     0.84738   0.85538   0.51592   0.00000  Uiso   1.00
C1229  C     0.89561   0.86604   0.98814   0.00000  Uiso   1.00
C1230  C     0.90466   0.87934   0.93629   0.00000  Uiso   1.00
C1231  C     0.86839   0.87336   0.91098   0.00000  Uiso   1.00
C1232  C     0.83485   0.85695   0.57016   0.00000  Uiso   1.00
C1233  C     0.92072   0.85101   0.56562   0.00000  Uiso   1.00
C1234  C     0.79340   0.83599   0.90684   0.00000  Uiso   1.00
C1235  C     0.87690   0.97779   0.72332   0.00000  Uiso   1.00
C1236  C     0.80771   0.83523   0.84988   0.00000  Uiso   1.00
C1237  C     0.87781   0.68740   0.71997   0.00000  Uiso   1.00
C1238  C     0.83479   0.70936   0.74498   0.00000  Uiso   1.00
C1239  C     0.79158   0.68814   0.76942   0.00000  Uiso   1.00
C1240  C     0.79094   0.97885   0.77074   0.00000  Uiso   1.00
C1241  C     0.83376   0.95708   0.74850   0.00000  Uiso   1.00
C1242  C     0.98074   0.86560   0.72899   0.00000  Uiso   1.00
C1243  C     0.69685   0.86571   0.72934   0.00000  Uiso   1.00
C1244  C     0.68601   0.80093   0.77068   0.00000  Uiso   1.00
C1245  C     0.96973   0.80097   0.77076   0.00000  Uiso   1.00
C1246  C     0.83399   0.75408   0.74772   0.00000  Uiso   1.00
C1247  C     0.85874   0.83738   0.65041   0.00000  Uiso   1.00
C1248  C     0.93246   0.86335   0.51366   0.00000  Uiso   1.00
C1249  C     0.87164   0.84764   0.59470   0.00000  Uiso   1.00
C1250  C     0.74955   0.81638   0.93325   0.00000  Uiso   1.00
C1251  C     0.73767   0.80951   0.98664   0.00000  Uiso   1.00
C1252  C     0.77012   0.82225   0.51381   0.00000  Uiso   1.00
Cu1253 Cu    0.78645   0.83333   0.75000   0.00000  Uiso   1.00
Cu1254 Cu    0.88022   0.83334   0.75000   0.00000  Uiso   1.00
H1255  H     0.94984   0.84632   0.58364   0.00000  Uiso   1.00
H1256  H     0.75839   0.70457   0.78843   0.00000  Uiso   1.00
H1257  H     0.75733   0.96292   0.79012   0.00000  Uiso   1.00
H1258  H     0.96670   0.89142   0.71190   0.00000  Uiso   1.00
H1259  H     0.71965   0.89179   0.71301   0.00000  Uiso   1.00
H1260  H     0.70004   0.77514   0.78782   0.00000  Uiso   1.00
H1261  H     0.94665   0.77520   0.78793   0.00000  Uiso   1.00
H1262  H     0.97047   0.86837   0.99326   0.00000  Uiso   1.00
H1263  H     0.72587   0.80417   0.91167   0.00000  Uiso   1.00
H1264  H     0.76199   0.81383   0.55437   0.00000  Uiso   1.00
H1265  H     0.87498   0.88582   0.87224   0.00000  Uiso   1.00
H1266  H     0.90931   0.96025   0.70454   0.00000  Uiso   1.00
N1267  N     0.71598   0.83332   0.74999   0.00000  Uiso   1.00
N1268  N     0.95069   0.83335   0.75000   0.00000  Uiso   1.00
O1269  O     0.79375   0.89345   0.75001   0.00000  Uiso   1.00
O1270  O     0.87294   0.89346   0.75001   0.00000  Uiso   1.00
O1271  O     0.77441   0.83332   0.82549   0.00000  Uiso   1.00
O1272  O     0.85360   0.83333   0.82549   0.00000  Uiso   1.00
O1273  O     0.79373   0.77321   0.75000   0.00000  Uiso   1.00
O1274  O     0.87292   0.77322   0.75000   0.00000  Uiso   1.00
O1275  O     0.81306   0.83334   0.67451   0.00000  Uiso   1.00
O1276  O     0.89225   0.83335   0.67451   0.00000  Uiso   1.00
C1277  C     0.92276   0.70808   0.68782   0.00000  Uiso   1.00
H1278  H     0.92139   0.73912   0.67302   0.00000  Uiso   1.00
O1279  O     0.96200   0.69026   0.67651   0.00000  Uiso   1.00
C1280  C     0.95074   0.90228   0.90803   0.00000  Uiso   1.00
C1281  C     0.98806   0.87300   0.87479   0.00000  Uiso   1.00
H1282  H     0.99688   0.84799   0.89902   0.00000  Uiso   1.00
H1283  H     0.97296   0.85928   0.84497   0.00000  Uiso   1.00
H1284  H     0.68867   0.89013   0.85523   0.00000  Uiso   1.00
H1285  H     0.94204   0.92670   0.88274   0.00000  Uiso   1.00
H1286  H     0.96690   0.91855   0.93551   0.00000  Uiso   1.00
C1287  C     0.78775   0.87948   0.59801   0.00000  Uiso   1.00
C1288  C     0.79852   0.92032   0.62079   0.00000  Uiso   1.00
H1289  H     0.76380   0.93646   0.63945   0.00000  Uiso   1.00
H1290  H     0.81852   0.91531   0.65010   0.00000  Uiso   1.00
H1291  H     0.82092   0.94051   0.58952   0.00000  Uiso   1.00
H1292  H     0.76655   0.88809   0.57061   0.00000  Uiso   1.00
H1293  H     0.76282   0.85981   0.62764   0.00000  Uiso   1.00
C1294  C     0.69256   0.78723   0.51433   0.00000  Uiso   1.00
H1295  H     0.68425   0.78184   0.55579   0.00000  Uiso   1.00
O1296  O     0.99740   0.77473   0.99136   0.00000  Uiso   1.00
loop_
_geom_bond_atom_site_label_1
_geom_bond_atom_site_label_2
_geom_bond_distance
_geom_bond_site_symmetry_2
_ccdc_geom_bond_type
C1     C17     1.443   .     S
C1     O45     1.289   .     A
C1     O46     1.289   .     A
C2     C3      1.411   .     A
C2     C652    1.416   .     S
C2     C676    1.414   .     S
C3     C10     1.422   .     A
C3     C7      1.415   .     A
C4     C8      1.402   .     A
C4     C650    1.416   1_554 S
C4     C653    1.411   1_554 S
C5     C6      1.409   .     A
C5     C652    1.411   .     S
C5     C672    1.410   .     S
C6     C7      1.403   .     A
C6     C56     1.514   .     S
C7     H41     1.080   .     S
C8     C25     1.419   .     A
C8     C63     1.531   .     S
C9     C24     1.398   .     A
C9     C25     1.404   .     A
C9     H31     1.083   .     S
C10    C12     1.470   .     S
C10    C26     1.404   .     A
C11    H42     1.084   .     S
C11    C17     1.397   .     A
C11    C229    1.394   .     S
C12    O48     1.292   .     A
C12    O47     1.298   .     A
C13    C53     1.488   .     S
C13    C14     1.418   .     A
C13    C443    1.394   1_545 S
C14    C22     1.452   .     S
C14    C15     1.402   .     A
C15    H32     1.084   .     S
C15    C448    1.382   1_545 S
C16    H33     1.084   .     S
C16    C17     1.395   .     A
C16    C231    1.382   .     S
C18    N44     1.367   .     A
C18    H34     1.081   .     S
C18    C91     1.414   .     S
C19    N43     1.367   .     A
C19    H35     1.080   .     S
C19    C162    1.414   1_455 S
C20    H36     1.081   .     S
C20    N43     1.367   .     A
C20    C165    1.415   1_455 S
C21    N44     1.367   .     A
C21    H37     1.081   .     S
C21    C92     1.415   .     S
C22    O50     1.289   .     A
C22    O49     1.292   .     A
C23    O52     1.303   .     A
C23    C25     1.474   .     S
C23    O51     1.289   .     A
C24    C653    1.410   1_554 S
C24    H686    1.082   1_554 S
C26    C27     1.395   .     A
C26    H39     1.083   .     S
C27    C676    1.395   .     S
C27    C718    1.480   .     S
C28    H40     1.082   .     S
C28    C675    1.395   1_554 S
C28    C650    1.414   1_554 S
Cu29   O49     1.960   .     S
Cu29   N43     2.011   .     S
Cu29   O47     1.961   .     S
Cu29   O45     1.960   .     S
Cu29   Cu30    2.676   .     S
Cu29   O51     1.957   .     S
Cu30   N44     2.011   .     S
Cu30   O52     1.961   .     S
Cu30   O48     1.957   .     S
Cu30   O50     1.960   .     S
Cu30   O46     1.960   .     S
H38    C672    1.082   .     S
C53    H54     1.084   .     S
C53    O55     1.221   .     D
C56    H61     1.112   .     S
C56    H62     1.110   .     S
C56    C57     1.521   .     S
C57    H58     1.109   .     S
C57    H59     1.107   .     S
C57    H132    1.111   .     S
H60    C201    1.111   1_455 S
C63    H69     1.106   .     S
C63    H68     1.110   .     S
C63    C64     1.529   .     S
C64    H65     1.110   .     S
C64    H67     1.111   .     S
C64    H66     1.106   .     S
C70    H71     1.086   .     S
C70    C675    1.480   1_554 S
C70    O864    1.221   1_454 S
O72    C790    1.221   .     S
C73    C89     1.443   .     S
C73    O117    1.289   .     A
C73    O118    1.289   .     A
C74    C75     1.411   .     A
C74    C724    1.416   .     S
C74    C748    1.414   .     S
C75    C82     1.422   .     A
C75    C79     1.415   .     A
C76    C80     1.402   .     A
C76    C722    1.416   1_554 S
C76    C725    1.411   1_554 S
C77    C78     1.409   .     A
C77    C724    1.411   .     S
C77    C744    1.410   .     S
C78    C79     1.403   .     A
C78    C128    1.514   .     S
C79    H113    1.080   .     S
C80    C97     1.419   .     A
C80    C135    1.531   .     S
C81    C96     1.398   .     A
C81    C97     1.404   .     A
C81    H103    1.083   .     S
C82    C84     1.470   .     S
C82    C98     1.404   .     A
C83    H114    1.084   .     S
C83    C89     1.397   .     A
C83    C301    1.394   .     S
C84    O120    1.292   .     A
C84    O119    1.298   .     A
C85    C125    1.488   .     S
C85    C86     1.418   .     A
C85    C515    1.394   1_545 S
C86    C94     1.452   .     S
C86    C87     1.402   .     A
C87    H104    1.084   .     S
C87    C520    1.382   1_545 S
C88    H105    1.084   .     S
C88    C89     1.395   .     A
C88    C303    1.382   .     S
C90    N116    1.367   .     A
C90    H106    1.081   .     S
C90    C163    1.414   .     S
C91    N115    1.367   .     A
C91    H107    1.080   .     S
C92    H108    1.081   .     S
C92    N115    1.367   .     A
C93    N116    1.367   .     A
C93    H109    1.081   .     S
C93    C164    1.415   .     S
C94    O122    1.289   .     A
C94    O121    1.292   .     A
C95    O124    1.303   .     A
C95    C97     1.474   .     S
C95    O123    1.289   .     A
C96    C725    1.410   1_554 S
C96    H758    1.082   1_554 S
C98    C99     1.395   .     A
C98    H111    1.083   .     S
C99    C748    1.395   .     S
C99    C790    1.480   .     S
C100   H112    1.082   .     S
C100   C747    1.395   1_554 S
C100   C722    1.414   1_554 S
Cu101  O121    1.960   .     S
Cu101  N115    2.011   .     S
Cu101  O119    1.961   .     S
Cu101  O117    1.960   .     S
Cu101  Cu102   2.676   .     S
Cu101  O123    1.957   .     S
Cu102  N116    2.011   .     S
Cu102  O124    1.961   .     S
Cu102  O120    1.957   .     S
Cu102  O122    1.960   .     S
Cu102  O118    1.960   .     S
H110   C744    1.082   .     S
C125   H126    1.084   .     S
C125   O127    1.221   .     D
C128   H133    1.112   .     S
C128   H134    1.110   .     S
C128   C129    1.521   .     S
C129   H130    1.109   .     S
C129   H131    1.107   .     S
C129   H204    1.111   .     S
C135   H141    1.106   .     S
C135   H140    1.110   .     S
C135   C136    1.529   .     S
C136   H137    1.110   .     S
C136   H139    1.111   .     S
C136   H138    1.106   .     S
C142   H143    1.086   .     S
C142   C747    1.480   1_554 S
C142   O720    1.221   1_554 S
O144   C862    1.221   .     S
C145   C161    1.443   .     S
C145   O189    1.289   .     A
C145   O190    1.289   .     A
C146   C147    1.411   .     A
C146   C796    1.416   .     S
C146   C820    1.414   .     S
C147   C154    1.422   .     A
C147   C151    1.415   .     A
C148   C152    1.402   .     A
C148   C794    1.416   1_554 S
C148   C797    1.411   1_554 S
C149   C150    1.409   .     A
C149   C796    1.411   .     S
C149   C816    1.410   .     S
C150   C151    1.403   .     A
C150   C200    1.514   .     S
C151   H185    1.080   .     S
C152   C169    1.419   .     A
C152   C207    1.531   .     S
C153   C168    1.398   .     A
C153   C169    1.404   .     A
C153   H175    1.083   .     S
C154   C156    1.470   .     S
C154   C170    1.404   .     A
C155   H186    1.084   .     S
C155   C161    1.397   .     A
C155   C373    1.394   .     S
C156   O192    1.292   .     A
C156   O191    1.298   .     A
C157   C197    1.488   .     S
C157   C158    1.418   .     A
C157   C587    1.394   1_545 S
C158   C166    1.452   .     S
C158   C159    1.402   .     A
C159   H176    1.084   .     S
C159   C592    1.382   1_545 S
C160   H177    1.084   .     S
C160   C161    1.395   .     A
C160   C375    1.382   .     S
C162   N188    1.367   .     A
C162   H178    1.081   .     S
C162   C19     1.414   1_655 S
C163   N187    1.367   .     A
C163   H179    1.080   .     S
C164   H180    1.081   .     S
C164   N187    1.367   .     A
C165   N188    1.367   .     A
C165   H181    1.081   .     S
C165   C20     1.415   1_655 S
C166   O194    1.289   .     A
C166   O193    1.292   .     A
C167   O196    1.303   .     A
C167   C169    1.474   .     S
C167   O195    1.289   .     A
C168   C797    1.410   1_554 S
C168   H830    1.082   1_554 S
C170   C171    1.395   .     A
C170   H183    1.083   .     S
C171   C820    1.395   .     S
C171   C862    1.480   .     S
C172   H184    1.082   .     S
C172   C819    1.395   1_554 S
C172   C794    1.414   1_554 S
Cu173  O193    1.960   .     S
Cu173  N187    2.011   .     S
Cu173  O191    1.961   .     S
Cu173  O189    1.960   .     S
Cu173  Cu174   2.676   .     S
Cu173  O195    1.957   .     S
Cu174  N188    2.011   .     S
Cu174  O196    1.961   .     S
Cu174  O192    1.957   .     S
Cu174  O194    1.960   .     S
Cu174  O190    1.960   .     S
H182   C816    1.082   .     S
C197   H198    1.084   .     S
C197   O199    1.221   .     D
C200   H205    1.112   .     S
C200   H206    1.110   .     S
C200   C201    1.521   .     S
C201   H202    1.109   .     S
C201   H203    1.107   .     S
C201   H60     1.111   1_655 S
C207   H213    1.106   .     S
C207   H212    1.110   .     S
C207   C208    1.529   .     S
C208   H209    1.110   .     S
C208   H211    1.111   .     S
C208   H210    1.106   .     S
C214   H215    1.086   .     S
C214   C819    1.480   1_554 S
C214   O792    1.221   1_554 S
O216   C718    1.221   1_655 S
C217   C233    1.443   .     S
C217   O261    1.289   .     A
C217   O262    1.289   .     A
C218   C219    1.411   .     A
C218   C868    1.416   .     S
C218   C892    1.414   .     S
C219   C226    1.422   .     A
C219   C223    1.415   .     A
C220   C224    1.402   .     A
C220   C866    1.416   1_554 S
C220   C869    1.411   1_554 S
C221   C222    1.409   .     A
C221   C868    1.411   .     S
C221   C888    1.410   .     S
C222   C223    1.403   .     A
C222   C272    1.514   .     S
C223   H257    1.080   .     S
C224   C241    1.419   .     A
C224   C279    1.531   .     S
C225   C240    1.398   .     A
C225   C241    1.404   .     A
C225   H247    1.083   .     S
C226   C228    1.470   .     S
C226   C242    1.404   .     A
C227   H258    1.084   .     S
C227   C233    1.397   .     A
C227   C445    1.394   .     S
C228   O264    1.292   .     A
C228   O263    1.298   .     A
C229   C269    1.488   .     S
C229   C230    1.418   .     A
C230   C238    1.452   .     S
C230   C231    1.402   .     A
C231   H248    1.084   .     S
C232   H249    1.084   .     S
C232   C233    1.395   .     A
C232   C447    1.382   .     S
C234   N260    1.367   .     A
C234   H250    1.081   .     S
C234   C307    1.414   .     S
C235   N259    1.367   .     A
C235   H251    1.080   .     S
C235   C378    1.414   1_455 S
C236   H252    1.081   .     S
C236   N259    1.367   .     A
C236   C381    1.415   1_455 S
C237   N260    1.367   .     A
C237   H253    1.081   .     S
C237   C308    1.415   .     S
C238   O266    1.289   .     A
C238   O265    1.292   .     A
C239   O268    1.303   .     A
C239   C241    1.474   .     S
C239   O267    1.289   .     A
C240   C869    1.410   1_554 S
C240   H902    1.082   1_554 S
C242   C243    1.395   .     A
C242   H255    1.083   .     S
C243   C892    1.395   .     S
C243   C934    1.480   .     S
C244   H256    1.082   .     S
C244   C891    1.395   1_554 S
C244   C866    1.414   1_554 S
Cu245  O265    1.960   .     S
Cu245  N259    2.011   .     S
Cu245  O263    1.961   .     S
Cu245  O261    1.960   .     S
Cu245  Cu246   2.676   .     S
Cu245  O267    1.957   .     S
Cu246  N260    2.011   .     S
Cu246  O268    1.961   .     S
Cu246  O264    1.957   .     S
Cu246  O266    1.960   .     S
Cu246  O262    1.960   .     S
H254   C888    1.082   .     S
C269   H270    1.084   .     S
C269   O271    1.221   .     D
C272   H277    1.112   .     S
C272   H278    1.110   .     S
C272   C273    1.521   .     S
C273   H274    1.109   .     S
C273   H275    1.107   .     S
C273   H348    1.111   .     S
H276   C417    1.111   1_455 S
C279   H285    1.106   .     S
C279   H284    1.110   .     S
C279   C280    1.529   .     S
C280   H281    1.110   .     S
C280   H283    1.111   .     S
C280   H282    1.106   .     S
C286   H287    1.086   .     S
C286   C891    1.480   1_554 S
C286   O1080   1.221   1_454 S
O288   C1006   1.221   .     S
C289   C305    1.443   .     S
C289   O333    1.289   .     A
C289   O334    1.289   .     A
C290   C291    1.411   .     A
C290   C940    1.416   .     S
C290   C964    1.414   .     S
C291   C298    1.422   .     A
C291   C295    1.415   .     A
C292   C296    1.402   .     A
C292   C938    1.416   1_554 S
C292   C941    1.411   1_554 S
C293   C294    1.409   .     A
C293   C940    1.411   .     S
C293   C960    1.410   .     S
C294   C295    1.403   .     A
C294   C344    1.514   .     S
C295   H329    1.080   .     S
C296   C313    1.419   .     A
C296   C351    1.531   .     S
C297   C312    1.398   .     A
C297   C313    1.404   .     A
C297   H319    1.083   .     S
C298   C300    1.470   .     S
C298   C314    1.404   .     A
C299   H330    1.084   .     S
C299   C305    1.397   .     A
C299   C517    1.394   .     S
C300   O336    1.292   .     A
C300   O335    1.298   .     A
C301   C341    1.488   .     S
C301   C302    1.418   .     A
C302   C310    1.452   .     S
C302   C303    1.402   .     A
C303   H320    1.084   .     S
C304   H321    1.084   .     S
C304   C305    1.395   .     A
C304   C519    1.382   .     S
C306   N332    1.367   .     A
C306   H322    1.081   .     S
C306   C379    1.414   .     S
C307   N331    1.367   .     A
C307   H323    1.080   .     S
C308   H324    1.081   .     S
C308   N331    1.367   .     A
C309   N332    1.367   .     A
C309   H325    1.081   .     S
C309   C380    1.415   .     S
C310   O338    1.289   .     A
C310   O337    1.292   .     A
C311   O340    1.303   .     A
C311   C313    1.474   .     S
C311   O339    1.289   .     A
C312   C941    1.410   1_554 S
C312   H974    1.082   1_554 S
C314   C315    1.395   .     A
C314   H327    1.083   .     S
C315   C964    1.395   .     S
C315   C1006   1.480   .     S
C316   H328    1.082   .     S
C316   C963    1.395   1_554 S
C316   C938    1.414   1_554 S
Cu317  O337    1.960   .     S
Cu317  N331    2.011   .     S
Cu317  O335    1.961   .     S
Cu317  O333    1.960   .     S
Cu317  Cu318   2.676   .     S
Cu317  O339    1.957   .     S
Cu318  N332    2.011   .     S
Cu318  O340    1.961   .     S
Cu318  O336    1.957   .     S
Cu318  O338    1.960   .     S
Cu318  O334    1.960   .     S
H326   C960    1.082   .     S
C341   H342    1.084   .     S
C341   O343    1.221   .     D
C344   H349    1.112   .     S
C344   H350    1.110   .     S
C344   C345    1.521   .     S
C345   H346    1.109   .     S
C345   H347    1.107   .     S
C345   H420    1.111   .     S
C351   H357    1.106   .     S
C351   H356    1.110   .     S
C351   C352    1.529   .     S
C352   H353    1.110   .     S
C352   H355    1.111   .     S
C352   H354    1.106   .     S
C358   H359    1.086   .     S
C358   C963    1.480   1_554 S
C358   O936    1.221   1_554 S
O360   C1078   1.221   .     S
C361   C377    1.443   .     S
C361   O405    1.289   .     A
C361   O406    1.289   .     A
C362   C363    1.411   .     A
C362   C1012   1.416   .     S
C362   C1036   1.414   .     S
C363   C370    1.422   .     A
C363   C367    1.415   .     A
C364   C368    1.402   .     A
C364   C1010   1.416   1_554 S
C364   C1013   1.411   1_554 S
C365   C366    1.409   .     A
C365   C1012   1.411   .     S
C365   C1032   1.410   .     S
C366   C367    1.403   .     A
C366   C416    1.514   .     S
C367   H401    1.080   .     S
C368   C385    1.419   .     A
C368   C423    1.531   .     S
C369   C384    1.398   .     A
C369   C385    1.404   .     A
C369   H391    1.083   .     S
C370   C372    1.470   .     S
C370   C386    1.404   .     A
C371   H402    1.084   .     S
C371   C377    1.397   .     A
C371   C589    1.394   .     S
C372   O408    1.292   .     A
C372   O407    1.298   .     A
C373   C413    1.488   .     S
C373   C374    1.418   .     A
C374   C382    1.452   .     S
C374   C375    1.402   .     A
C375   H392    1.084   .     S
C376   H393    1.084   .     S
C376   C377    1.395   .     A
C376   C591    1.382   .     S
C378   N404    1.367   .     A
C378   H394    1.081   .     S
C378   C235    1.414   1_655 S
C379   N403    1.367   .     A
C379   H395    1.080   .     S
C380   H396    1.081   .     S
C380   N403    1.367   .     A
C381   N404    1.367   .     A
C381   H397    1.081   .     S
C381   C236    1.415   1_655 S
C382   O410    1.289   .     A
C382   O409    1.292   .     A
C383   O412    1.303   .     A
C383   C385    1.474   .     S
C383   O411    1.289   .     A
C384   C1013   1.410   1_554 S
C384   H1046   1.082   1_554 S
C386   C387    1.395   .     A
C386   H399    1.083   .     S
C387   C1036   1.395   .     S
C387   C1078   1.480   .     S
C388   H400    1.082   .     S
C388   C1035   1.395   1_554 S
C388   C1010   1.414   1_554 S
Cu389  O409    1.960   .     S
Cu389  N403    2.011   .     S
Cu389  O407    1.961   .     S
Cu389  O405    1.960   .     S
Cu389  Cu390   2.676   .     S
Cu389  O411    1.957   .     S
Cu390  N404    2.011   .     S
Cu390  O412    1.961   .     S
Cu390  O408    1.957   .     S
Cu390  O410    1.960   .     S
Cu390  O406    1.960   .     S
H398   C1032   1.082   .     S
C413   H414    1.084   .     S
C413   O415    1.221   .     D
C416   H421    1.112   .     S
C416   H422    1.110   .     S
C416   C417    1.521   .     S
C417   H418    1.109   .     S
C417   H419    1.107   .     S
C417   H276    1.111   1_655 S
C423   H429    1.106   .     S
C423   H428    1.110   .     S
C423   C424    1.529   .     S
C424   H425    1.110   .     S
C424   H427    1.111   .     S
C424   H426    1.106   .     S
C430   H431    1.086   .     S
C430   C1035   1.480   1_554 S
C430   O1008   1.221   1_554 S
O432   C934    1.221   1_655 S
C433   C449    1.443   .     S
C433   O477    1.289   .     A
C433   O478    1.289   .     A
C434   C435    1.411   .     A
C434   C1084   1.416   .     S
C434   C1108   1.414   .     S
C435   C442    1.422   .     A
C435   C439    1.415   .     A
C436   C440    1.402   .     A
C436   C1082   1.416   1_554 S
C436   C1085   1.411   1_554 S
C437   C438    1.409   .     A
C437   C1084   1.411   .     S
C437   C1104   1.410   .     S
C438   C439    1.403   .     A
C438   C488    1.514   .     S
C439   H473    1.080   .     S
C440   C457    1.419   .     A
C440   C495    1.531   .     S
C441   C456    1.398   .     A
C441   C457    1.404   .     A
C441   H463    1.083   .     S
C442   C444    1.470   .     S
C442   C458    1.404   .     A
C443   H474    1.084   .     S
C443   C449    1.397   .     A
C443   C13     1.394   1_565 S
C444   O480    1.292   .     A
C444   O479    1.298   .     A
C445   C485    1.488   .     S
C445   C446    1.418   .     A
C446   C454    1.452   .     S
C446   C447    1.402   .     A
C447   H464    1.084   .     S
C448   H465    1.084   .     S
C448   C449    1.395   .     A
C448   C15     1.382   1_565 S
C450   N476    1.367   .     A
C450   H466    1.081   .     S
C450   C523    1.414   .     S
C451   N475    1.367   .     A
C451   H467    1.080   .     S
C451   C594    1.414   1_455 S
C452   H468    1.081   .     S
C452   N475    1.367   .     A
C452   C597    1.415   1_455 S
C453   N476    1.367   .     A
C453   H469    1.081   .     S
C453   C524    1.415   .     S
C454   O482    1.289   .     A
C454   O481    1.292   .     A
C455   O484    1.303   .     A
C455   C457    1.474   .     S
C455   O483    1.289   .     A
C456   C1085   1.410   1_554 S
C456   H1118   1.082   1_554 S
C458   C459    1.395   .     A
C458   H471    1.083   .     S
C459   C1108   1.395   .     S
C459   C1150   1.480   .     S
C460   H472    1.082   .     S
C460   C1107   1.395   1_554 S
C460   C1082   1.414   1_554 S
Cu461  O481    1.960   .     S
Cu461  N475    2.011   .     S
Cu461  O479    1.961   .     S
Cu461  O477    1.960   .     S
Cu461  Cu462   2.676   .     S
Cu461  O483    1.957   .     S
Cu462  N476    2.011   .     S
Cu462  O484    1.961   .     S
Cu462  O480    1.957   .     S
Cu462  O482    1.960   .     S
Cu462  O478    1.960   .     S
H470   C1104   1.082   .     S
C485   H486    1.084   .     S
C485   O487    1.221   .     D
C488   H493    1.112   .     S
C488   H494    1.110   .     S
C488   C489    1.521   .     S
C489   H490    1.109   .     S
C489   H491    1.107   .     S
C489   H564    1.111   .     S
H492   C633    1.111   1_455 S
C495   H501    1.106   .     S
C495   H500    1.110   .     S
C495   C496    1.529   .     S
C496   H497    1.110   .     S
C496   H499    1.111   .     S
C496   H498    1.106   .     S
C502   H503    1.086   .     S
C502   C1107   1.480   1_554 S
C502   O1296   1.221   1_454 S
O504   C1222   1.221   .     S
C505   C521    1.443   .     S
C505   O549    1.289   .     A
C505   O550    1.289   .     A
C506   C507    1.411   .     A
C506   C1156   1.416   .     S
C506   C1180   1.414   .     S
C507   C514    1.422   .     A
C507   C511    1.415   .     A
C508   C512    1.402   .     A
C508   C1154   1.416   1_554 S
C508   C1157   1.411   1_554 S
C509   C510    1.409   .     A
C509   C1156   1.411   .     S
C509   C1176   1.410   .     S
C510   C511    1.403   .     A
C510   C560    1.514   .     S
C511   H545    1.080   .     S
C512   C529    1.419   .     A
C512   C567    1.531   .     S
C513   C528    1.398   .     A
C513   C529    1.404   .     A
C513   H535    1.083   .     S
C514   C516    1.470   .     S
C514   C530    1.404   .     A
C515   H546    1.084   .     S
C515   C521    1.397   .     A
C515   C85     1.394   1_565 S
C516   O552    1.292   .     A
C516   O551    1.298   .     A
C517   C557    1.488   .     S
C517   C518    1.418   .     A
C518   C526    1.452   .     S
C518   C519    1.402   .     A
C519   H536    1.084   .     S
C520   H537    1.084   .     S
C520   C521    1.395   .     A
C520   C87     1.382   1_565 S
C522   N548    1.367   .     A
C522   H538    1.081   .     S
C522   C595    1.414   .     S
C523   N547    1.367   .     A
C523   H539    1.080   .     S
C524   H540    1.081   .     S
C524   N547    1.367   .     A
C525   N548    1.367   .     A
C525   H541    1.081   .     S
C525   C596    1.415   .     S
C526   O554    1.289   .     A
C526   O553    1.292   .     A
C527   O556    1.303   .     A
C527   C529    1.474   .     S
C527   O555    1.289   .     A
C528   C1157   1.410   1_554 S
C528   H1190   1.082   1_554 S
C530   C531    1.395   .     A
C530   H543    1.083   .     S
C531   C1180   1.395   .     S
C531   C1222   1.480   .     S
C532   H544    1.082   .     S
C532   C1179   1.395   1_554 S
C532   C1154   1.414   1_554 S
Cu533  O553    1.960   .     S
Cu533  N547    2.011   .     S
Cu533  O551    1.961   .     S
Cu533  O549    1.960   .     S
Cu533  Cu534   2.676   .     S
Cu533  O555    1.957   .     S
Cu534  N548    2.011   .     S
Cu534  O556    1.961   .     S
Cu534  O552    1.957   .     S
Cu534  O554    1.960   .     S
Cu534  O550    1.960   .     S
H542   C1176   1.082   .     S
C557   H558    1.084   .     S
C557   O559    1.221   .     D
C560   H565    1.112   .     S
C560   H566    1.110   .     S
C560   C561    1.521   .     S
C561   H562    1.109   .     S
C561   H563    1.107   .     S
C561   H636    1.111   .     S
C567   H573    1.106   .     S
C567   H572    1.110   .     S
C567   C568    1.529   .     S
C568   H569    1.110   .     S
C568   H571    1.111   .     S
C568   H570    1.106   .     S
C574   H575    1.086   .     S
C574   C1179   1.480   1_554 S
C574   O1152   1.221   1_554 S
O576   C1294   1.221   .     S
C577   C593    1.443   .     S
C577   O621    1.289   .     A
C577   O622    1.289   .     A
C578   C579    1.411   .     A
C578   C1228   1.416   .     S
C578   C1252   1.414   .     S
C579   C586    1.422   .     A
C579   C583    1.415   .     A
C580   C584    1.402   .     A
C580   C1226   1.416   1_554 S
C580   C1229   1.411   1_554 S
C581   C582    1.409   .     A
C581   C1228   1.411   .     S
C581   C1248   1.410   .     S
C582   C583    1.403   .     A
C582   C632    1.514   .     S
C583   H617    1.080   .     S
C584   C601    1.419   .     A
C584   C639    1.531   .     S
C585   C600    1.398   .     A
C585   C601    1.404   .     A
C585   H607    1.083   .     S
C586   C588    1.470   .     S
C586   C602    1.404   .     A
C587   H618    1.084   .     S
C587   C593    1.397   .     A
C587   C157    1.394   1_565 S
C588   O624    1.292   .     A
C588   O623    1.298   .     A
C589   C629    1.488   .     S
C589   C590    1.418   .     A
C590   C598    1.452   .     S
C590   C591    1.402   .     A
C591   H608    1.084   .     S
C592   H609    1.084   .     S
C592   C593    1.395   .     A
C592   C159    1.382   1_565 S
C594   N620    1.367   .     A
C594   H610    1.081   .     S
C594   C451    1.414   1_655 S
C595   N619    1.367   .     A
C595   H611    1.080   .     S
C596   H612    1.081   .     S
C596   N619    1.367   .     A
C597   N620    1.367   .     A
C597   H613    1.081   .     S
C597   C452    1.415   1_655 S
C598   O626    1.289   .     A
C598   O625    1.292   .     A
C599   O628    1.303   .     A
C599   C601    1.474   .     S
C599   O627    1.289   .     A
C600   C1229   1.410   1_554 S
C600   H1262   1.082   1_554 S
C602   C603    1.395   .     A
C602   H615    1.083   .     S
C603   C1252   1.395   .     S
C603   C1294   1.480   .     S
C604   H616    1.082   .     S
C604   C1251   1.395   1_554 S
C604   C1226   1.414   1_554 S
Cu605  O625    1.960   .     S
Cu605  N619    2.011   .     S
Cu605  O623    1.961   .     S
Cu605  O621    1.960   .     S
Cu605  Cu606   2.676   .     S
Cu605  O627    1.957   .     S
Cu606  N620    2.011   .     S
Cu606  O628    1.961   .     S
Cu606  O624    1.957   .     S
Cu606  O626    1.960   .     S
Cu606  O622    1.960   .     S
H614   C1248   1.082   .     S
C629   H630    1.084   .     S
C629   O631    1.221   .     D
C632   H637    1.112   .     S
C632   H638    1.110   .     S
C632   C633    1.521   .     S
C633   H634    1.109   .     S
C633   H635    1.107   .     S
C633   H492    1.111   1_655 S
C639   H645    1.106   .     S
C639   H644    1.110   .     S
C639   C640    1.529   .     S
C640   H641    1.110   .     S
C640   H643    1.111   .     S
C640   H642    1.106   .     S
C646   H647    1.086   .     S
C646   C1251   1.480   1_554 S
C646   O1224   1.221   1_554 S
O648   C1150   1.221   1_655 S
C649   C665    1.443   .     S
C649   O693    1.289   .     A
C649   O694    1.289   .     A
C650   C651    1.411   .     A
C650   C4      1.416   1_556 S
C650   C28     1.414   1_556 S
C651   C658    1.422   .     A
C651   C655    1.415   .     A
C652   C656    1.402   .     A
C653   C654    1.409   .     A
C653   C4      1.411   1_556 S
C653   C24     1.410   1_556 S
C654   C655    1.403   .     A
C654   C704    1.514   .     S
C655   H689    1.080   .     S
C656   C673    1.419   .     A
C656   C711    1.531   .     S
C657   C672    1.398   .     A
C657   C673    1.404   .     A
C657   H679    1.083   .     S
C658   C660    1.470   .     S
C658   C674    1.404   .     A
C659   H690    1.084   .     S
C659   C665    1.397   .     A
C659   C877    1.394   .     S
C660   O696    1.292   .     A
C660   O695    1.298   .     A
C661   C701    1.488   .     S
C661   C662    1.418   .     A
C661   C1091   1.394   1_545 S
C662   C670    1.452   .     S
C662   C663    1.402   .     A
C663   H680    1.084   .     S
C663   C1096   1.382   1_545 S
C664   H681    1.084   .     S
C664   C665    1.395   .     A
C664   C879    1.382   .     S
C666   N692    1.367   .     A
C666   H682    1.081   .     S
C666   C739    1.414   .     S
C667   N691    1.367   .     A
C667   H683    1.080   .     S
C667   C810    1.414   1_455 S
C668   H684    1.081   .     S
C668   N691    1.367   .     A
C668   C813    1.415   1_455 S
C669   N692    1.367   .     A
C669   H685    1.081   .     S
C669   C740    1.415   .     S
C670   O698    1.289   .     A
C670   O697    1.292   .     A
C671   O700    1.303   .     A
C671   C673    1.474   .     S
C671   O699    1.289   .     A
C674   C675    1.395   .     A
C674   H687    1.083   .     S
C675   C28     1.395   1_556 S
C675   C70     1.480   1_556 S
C676   H688    1.082   .     S
Cu677  O697    1.960   .     S
Cu677  N691    2.011   .     S
Cu677  O695    1.961   .     S
Cu677  O693    1.960   .     S
Cu677  Cu678   2.676   .     S
Cu677  O699    1.957   .     S
Cu678  N692    2.011   .     S
Cu678  O700    1.961   .     S
Cu678  O696    1.957   .     S
Cu678  O698    1.960   .     S
Cu678  O694    1.960   .     S
H686   C24     1.082   1_556 S
C701   H702    1.084   .     S
C701   O703    1.221   .     D
C704   H709    1.112   .     S
C704   H710    1.110   .     S
C704   C705    1.521   .     S
C705   H706    1.109   .     S
C705   H707    1.107   .     S
C705   H780    1.111   .     S
H708   C849    1.111   1_455 S
C711   H717    1.106   .     S
C711   H716    1.110   .     S
C711   C712    1.529   .     S
C712   H713    1.110   .     S
C712   H715    1.111   .     S
C712   H714    1.106   .     S
C718   H719    1.086   .     S
C718   O216    1.221   1_455 S
O720   C142    1.221   1_556 S
C721   C737    1.443   .     S
C721   O765    1.289   .     A
C721   O766    1.289   .     A
C722   C723    1.411   .     A
C722   C76     1.416   1_556 S
C722   C100    1.414   1_556 S
C723   C730    1.422   .     A
C723   C727    1.415   .     A
C724   C728    1.402   .     A
C725   C726    1.409   .     A
C725   C76     1.411   1_556 S
C725   C96     1.410   1_556 S
C726   C727    1.403   .     A
C726   C776    1.514   .     S
C727   H761    1.080   .     S
C728   C745    1.419   .     A
C728   C783    1.531   .     S
C729   C744    1.398   .     A
C729   C745    1.404   .     A
C729   H751    1.083   .     S
C730   C732    1.470   .     S
C730   C746    1.404   .     A
C731   H762    1.084   .     S
C731   C737    1.397   .     A
C731   C949    1.394   .     S
C732   O768    1.292   .     A
C732   O767    1.298   .     A
C733   C773    1.488   .     S
C733   C734    1.418   .     A
C733   C1163   1.394   1_545 S
C734   C742    1.452   .     S
C734   C735    1.402   .     A
C735   H752    1.084   .     S
C735   C1168   1.382   1_545 S
C736   H753    1.084   .     S
C736   C737    1.395   .     A
C736   C951    1.382   .     S
C738   N764    1.367   .     A
C738   H754    1.081   .     S
C738   C811    1.414   .     S
C739   N763    1.367   .     A
C739   H755    1.080   .     S
C740   H756    1.081   .     S
C740   N763    1.367   .     A
C741   N764    1.367   .     A
C741   H757    1.081   .     S
C741   C812    1.415   .     S
C742   O770    1.289   .     A
C742   O769    1.292   .     A
C743   O772    1.303   .     A
C743   C745    1.474   .     S
C743   O771    1.289   .     A
C746   C747    1.395   .     A
C746   H759    1.083   .     S
C747   C100    1.395   1_556 S
C747   C142    1.480   1_556 S
C748   H760    1.082   .     S
Cu749  O769    1.960   .     S
Cu749  N763    2.011   .     S
Cu749  O767    1.961   .     S
Cu749  O765    1.960   .     S
Cu749  Cu750   2.676   .     S
Cu749  O771    1.957   .     S
Cu750  N764    2.011   .     S
Cu750  O772    1.961   .     S
Cu750  O768    1.957   .     S
Cu750  O770    1.960   .     S
Cu750  O766    1.960   .     S
H758   C96     1.082   1_556 S
C773   H774    1.084   .     S
C773   O775    1.221   .     D
C776   H781    1.112   .     S
C776   H782    1.110   .     S
C776   C777    1.521   .     S
C777   H778    1.109   .     S
C777   H779    1.107   .     S
C777   H852    1.111   .     S
C783   H789    1.106   .     S
C783   H788    1.110   .     S
C783   C784    1.529   .     S
C784   H785    1.110   .     S
C784   H787    1.111   .     S
C784   H786    1.106   .     S
C790   H791    1.086   .     S
O792   C214    1.221   1_556 S
C793   C809    1.443   .     S
C793   O837    1.289   .     A
C793   O838    1.289   .     A
C794   C795    1.411   .     A
C794   C148    1.416   1_556 S
C794   C172    1.414   1_556 S
C795   C802    1.422   .     A
C795   C799    1.415   .     A
C796   C800    1.402   .     A
C797   C798    1.409   .     A
C797   C148    1.411   1_556 S
C797   C168    1.410   1_556 S
C798   C799    1.403   .     A
C798   C848    1.514   .     S
C799   H833    1.080   .     S
C800   C817    1.419   .     A
C800   C855    1.531   .     S
C801   C816    1.398   .     A
C801   C817    1.404   .     A
C801   H823    1.083   .     S
C802   C804    1.470   .     S
C802   C818    1.404   .     A
C803   H834    1.084   .     S
C803   C809    1.397   .     A
C803   C1021   1.394   .     S
C804   O840    1.292   .     A
C804   O839    1.298   .     A
C805   C845    1.488   .     S
C805   C806    1.418   .     A
C805   C1235   1.394   1_545 S
C806   C814    1.452   .     S
C806   C807    1.402   .     A
C807   H824    1.084   .     S
C807   C1240   1.382   1_545 S
C808   H825    1.084   .     S
C808   C809    1.395   .     A
C808   C1023   1.382   .     S
C810   N836    1.367   .     A
C810   H826    1.081   .     S
C810   C667    1.414   1_655 S
C811   N835    1.367   .     A
C811   H827    1.080   .     S
C812   H828    1.081   .     S
C812   N835    1.367   .     A
C813   N836    1.367   .     A
C813   H829    1.081   .     S
C813   C668    1.415   1_655 S
C814   O842    1.289   .     A
C814   O841    1.292   .     A
C815   O844    1.303   .     A
C815   C817    1.474   .     S
C815   O843    1.289   .     A
C818   C819    1.395   .     A
C818   H831    1.083   .     S
C819   C172    1.395   1_556 S
C819   C214    1.480   1_556 S
C820   H832    1.082   .     S
Cu821  O841    1.960   .     S
Cu821  N835    2.011   .     S
Cu821  O839    1.961   .     S
Cu821  O837    1.960   .     S
Cu821  Cu822   2.676   .     S
Cu821  O843    1.957   .     S
Cu822  N836    2.011   .     S
Cu822  O844    1.961   .     S
Cu822  O840    1.957   .     S
Cu822  O842    1.960   .     S
Cu822  O838    1.960   .     S
H830   C168    1.082   1_556 S
C845   H846    1.084   .     S
C845   O847    1.221   .     D
C848   H853    1.112   .     S
C848   H854    1.110   .     S
C848   C849    1.521   .     S
C849   H850    1.109   .     S
C849   H851    1.107   .     S
C849   H708    1.111   1_655 S
C855   H861    1.106   .     S
C855   H860    1.110   .     S
C855   C856    1.529   .     S
C856   H857    1.110   .     S
C856   H859    1.111   .     S
C856   H858    1.106   .     S
C862   H863    1.086   .     S
O864   C70     1.221   1_656 S
C865   C881    1.443   .     S
C865   O909    1.289   .     A
C865   O910    1.289   .     A
C866   C867    1.411   .     A
C866   C220    1.416   1_556 S
C866   C244    1.414   1_556 S
C867   C874    1.422   .     A
C867   C871    1.415   .     A
C868   C872    1.402   .     A
C869   C870    1.409   .     A
C869   C220    1.411   1_556 S
C869   C240    1.410   1_556 S
C870   C871    1.403   .     A
C870   C920    1.514   .     S
C871   H905    1.080   .     S
C872   C889    1.419   .     A
C872   C927    1.531   .     S
C873   C888    1.398   .     A
C873   C889    1.404   .     A
C873   H895    1.083   .     S
C874   C876    1.470   .     S
C874   C890    1.404   .     A
C875   H906    1.084   .     S
C875   C881    1.397   .     A
C875   C1093   1.394   .     S
C876   O912    1.292   .     A
C876   O911    1.298   .     A
C877   C917    1.488   .     S
C877   C878    1.418   .     A
C878   C886    1.452   .     S
C878   C879    1.402   .     A
C879   H896    1.084   .     S
C880   H897    1.084   .     S
C880   C881    1.395   .     A
C880   C1095   1.382   .     S
C882   N908    1.367   .     A
C882   H898    1.081   .     S
C882   C955    1.414   .     S
C883   N907    1.367   .     A
C883   H899    1.080   .     S
C883   C1026   1.414   1_455 S
C884   H900    1.081   .     S
C884   N907    1.367   .     A
C884   C1029   1.415   1_455 S
C885   N908    1.367   .     A
C885   H901    1.081   .     S
C885   C956    1.415   .     S
C886   O914    1.289   .     A
C886   O913    1.292   .     A
C887   O916    1.303   .     A
C887   C889    1.474   .     S
C887   O915    1.289   .     A
C890   C891    1.395   .     A
C890   H903    1.083   .     S
C891   C244    1.395   1_556 S
C891   C286    1.480   1_556 S
C892   H904    1.082   .     S
Cu893  O913    1.960   .     S
Cu893  N907    2.011   .     S
Cu893  O911    1.961   .     S
Cu893  O909    1.960   .     S
Cu893  Cu894   2.676   .     S
Cu893  O915    1.957   .     S
Cu894  N908    2.011   .     S
Cu894  O916    1.961   .     S
Cu894  O912    1.957   .     S
Cu894  O914    1.960   .     S
Cu894  O910    1.960   .     S
H902   C240    1.082   1_556 S
C917   H918    1.084   .     S
C917   O919    1.221   .     D
C920   H925    1.112   .     S
C920   H926    1.110   .     S
C920   C921    1.521   .     S
C921   H922    1.109   .     S
C921   H923    1.107   .     S
C921   H996    1.111   .     S
H924   C1065   1.111   1_455 S
C927   H933    1.106   .     S
C927   H932    1.110   .     S
C927   C928    1.529   .     S
C928   H929    1.110   .     S
C928   H931    1.111   .     S
C928   H930    1.106   .     S
C934   H935    1.086   .     S
C934   O432    1.221   1_455 S
O936   C358    1.221   1_556 S
C937   C953    1.443   .     S
C937   O981    1.289   .     A
C937   O982    1.289   .     A
C938   C939    1.411   .     A
C938   C292    1.416   1_556 S
C938   C316    1.414   1_556 S
C939   C946    1.422   .     A
C939   C943    1.415   .     A
C940   C944    1.402   .     A
C941   C942    1.409   .     A
C941   C292    1.411   1_556 S
C941   C312    1.410   1_556 S
C942   C943    1.403   .     A
C942   C992    1.514   .     S
C943   H977    1.080   .     S
C944   C961    1.419   .     A
C944   C999    1.531   .     S
C945   C960    1.398   .     A
C945   C961    1.404   .     A
C945   H967    1.083   .     S
C946   C948    1.470   .     S
C946   C962    1.404   .     A
C947   H978    1.084   .     S
C947   C953    1.397   .     A
C947   C1165   1.394   .     S
C948   O984    1.292   .     A
C948   O983    1.298   .     A
C949   C989    1.488   .     S
C949   C950    1.418   .     A
C950   C958    1.452   .     S
C950   C951    1.402   .     A
C951   H968    1.084   .     S
C952   H969    1.084   .     S
C952   C953    1.395   .     A
C952   C1167   1.382   .     S
C954   N980    1.367   .     A
C954   H970    1.081   .     S
C954   C1027   1.414   .     S
C955   N979    1.367   .     A
C955   H971    1.080   .     S
C956   H972    1.081   .     S
C956   N979    1.367   .     A
C957   N980    1.367   .     A
C957   H973    1.081   .     S
C957   C1028   1.415   .     S
C958   O986    1.289   .     A
C958   O985    1.292   .     A
C959   O988    1.303   .     A
C959   C961    1.474   .     S
C959   O987    1.289   .     A
C962   C963    1.395   .     A
C962   H975    1.083   .     S
C963   C316    1.395   1_556 S
C963   C358    1.480   1_556 S
C964   H976    1.082   .     S
Cu965  O985    1.960   .     S
Cu965  N979    2.011   .     S
Cu965  O983    1.961   .     S
Cu965  O981    1.960   .     S
Cu965  Cu966   2.676   .     S
Cu965  O987    1.957   .     S
Cu966  N980    2.011   .     S
Cu966  O988    1.961   .     S
Cu966  O984    1.957   .     S
Cu966  O986    1.960   .     S
Cu966  O982    1.960   .     S
H974   C312    1.082   1_556 S
C989   H990    1.084   .     S
C989   O991    1.221   .     D
C992   H997    1.112   .     S
C992   H998    1.110   .     S
C992   C993    1.521   .     S
C993   H994    1.109   .     S
C993   H995    1.107   .     S
C993   H1068   1.111   .     S
C999   H1005   1.106   .     S
C999   H1004   1.110   .     S
C999   C1000   1.529   .     S
C1000  H1001   1.110   .     S
C1000  H1003   1.111   .     S
C1000  H1002   1.106   .     S
C1006  H1007   1.086   .     S
O1008  C430    1.221   1_556 S
C1009  C1025   1.443   .     S
C1009  O1053   1.289   .     A
C1009  O1054   1.289   .     A
C1010  C1011   1.411   .     A
C1010  C364    1.416   1_556 S
C1010  C388    1.414   1_556 S
C1011  C1018   1.422   .     A
C1011  C1015   1.415   .     A
C1012  C1016   1.402   .     A
C1013  C1014   1.409   .     A
C1013  C364    1.411   1_556 S
C1013  C384    1.410   1_556 S
C1014  C1015   1.403   .     A
C1014  C1064   1.514   .     S
C1015  H1049   1.080   .     S
C1016  C1033   1.419   .     A
C1016  C1071   1.531   .     S
C1017  C1032   1.398   .     A
C1017  C1033   1.404   .     A
C1017  H1039   1.083   .     S
C1018  C1020   1.470   .     S
C1018  C1034   1.404   .     A
C1019  H1050   1.084   .     S
C1019  C1025   1.397   .     A
C1019  C1237   1.394   .     S
C1020  O1056   1.292   .     A
C1020  O1055   1.298   .     A
C1021  C1061   1.488   .     S
C1021  C1022   1.418   .     A
C1022  C1030   1.452   .     S
C1022  C1023   1.402   .     A
C1023  H1040   1.084   .     S
C1024  H1041   1.084   .     S
C1024  C1025   1.395   .     A
C1024  C1239   1.382   .     S
C1026  N1052   1.367   .     A
C1026  H1042   1.081   .     S
C1026  C883    1.414   1_655 S
C1027  N1051   1.367   .     A
C1027  H1043   1.080   .     S
C1028  H1044   1.081   .     S
C1028  N1051   1.367   .     A
C1029  N1052   1.367   .     A
C1029  H1045   1.081   .     S
C1029  C884    1.415   1_655 S
C1030  O1058   1.289   .     A
C1030  O1057   1.292   .     A
C1031  O1060   1.303   .     A
C1031  C1033   1.474   .     S
C1031  O1059   1.289   .     A
C1034  C1035   1.395   .     A
C1034  H1047   1.083   .     S
C1035  C388    1.395   1_556 S
C1035  C430    1.480   1_556 S
C1036  H1048   1.082   .     S
Cu1037 O1057   1.960   .     S
Cu1037 N1051   2.011   .     S
Cu1037 O1055   1.961   .     S
Cu1037 O1053   1.960   .     S
Cu1037 Cu1038  2.676   .     S
Cu1037 O1059   1.957   .     S
Cu1038 N1052   2.011   .     S
Cu1038 O1060   1.961   .     S
Cu1038 O1056   1.957   .     S
Cu1038 O1058   1.960   .     S
Cu1038 O1054   1.960   .     S
H1046  C384    1.082   1_556 S
C1061  H1062   1.084   .     S
C1061  O1063   1.221   .     D
C1064  H1069   1.112   .     S
C1064  H1070   1.110   .     S
C1064  C1065   1.521   .     S
C1065  H1066   1.109   .     S
C1065  H1067   1.107   .     S
C1065  H924    1.111   1_655 S
C1071  H1077   1.106   .     S
C1071  H1076   1.110   .     S
C1071  C1072   1.529   .     S
C1072  H1073   1.110   .     S
C1072  H1075   1.111   .     S
C1072  H1074   1.106   .     S
C1078  H1079   1.086   .     S
O1080  C286    1.221   1_656 S
C1081  C1097   1.443   .     S
C1081  O1125   1.289   .     A
C1081  O1126   1.289   .     A
C1082  C1083   1.411   .     A
C1082  C436    1.416   1_556 S
C1082  C460    1.414   1_556 S
C1083  C1090   1.422   .     A
C1083  C1087   1.415   .     A
C1084  C1088   1.402   .     A
C1085  C1086   1.409   .     A
C1085  C436    1.411   1_556 S
C1085  C456    1.410   1_556 S
C1086  C1087   1.403   .     A
C1086  C1136   1.514   .     S
C1087  H1121   1.080   .     S
C1088  C1105   1.419   .     A
C1088  C1143   1.531   .     S
C1089  C1104   1.398   .     A
C1089  C1105   1.404   .     A
C1089  H1111   1.083   .     S
C1090  C1092   1.470   .     S
C1090  C1106   1.404   .     A
C1091  H1122   1.084   .     S
C1091  C1097   1.397   .     A
C1091  C661    1.394   1_565 S
C1092  O1128   1.292   .     A
C1092  O1127   1.298   .     A
C1093  C1133   1.488   .     S
C1093  C1094   1.418   .     A
C1094  C1102   1.452   .     S
C1094  C1095   1.402   .     A
C1095  H1112   1.084   .     S
C1096  H1113   1.084   .     S
C1096  C1097   1.395   .     A
C1096  C663    1.382   1_565 S
C1098  N1124   1.367   .     A
C1098  H1114   1.081   .     S
C1098  C1171   1.414   .     S
C1099  N1123   1.367   .     A
C1099  H1115   1.080   .     S
C1099  C1242   1.414   1_455 S
C1100  H1116   1.081   .     S
C1100  N1123   1.367   .     A
C1100  C1245   1.415   1_455 S
C1101  N1124   1.367   .     A
C1101  H1117   1.081   .     S
C1101  C1172   1.415   .     S
C1102  O1130   1.289   .     A
C1102  O1129   1.292   .     A
C1103  O1132   1.303   .     A
C1103  C1105   1.474   .     S
C1103  O1131   1.289   .     A
C1106  C1107   1.395   .     A
C1106  H1119   1.083   .     S
C1107  C460    1.395   1_556 S
C1107  C502    1.480   1_556 S
C1108  H1120   1.082   .     S
Cu1109 O1129   1.960   .     S
Cu1109 N1123   2.011   .     S
Cu1109 O1127   1.961   .     S
Cu1109 O1125   1.960   .     S
Cu1109 Cu1110  2.676   .     S
Cu1109 O1131   1.957   .     S
Cu1110 N1124   2.011   .     S
Cu1110 O1132   1.961   .     S
Cu1110 O1128   1.957   .     S
Cu1110 O1130   1.960   .     S
Cu1110 O1126   1.960   .     S
H1118  C456    1.082   1_556 S
C1133  H1134   1.084   .     S
C1133  O1135   1.221   .     D
C1136  H1141   1.112   .     S
C1136  H1142   1.110   .     S
C1136  C1137   1.521   .     S
C1137  H1138   1.109   .     S
C1137  H1139   1.107   .     S
C1137  H1212   1.111   .     S
H1140  C1281   1.111   1_455 S
C1143  H1149   1.106   .     S
C1143  H1148   1.110   .     S
C1143  C1144   1.529   .     S
C1144  H1145   1.110   .     S
C1144  H1147   1.111   .     S
C1144  H1146   1.106   .     S
C1150  H1151   1.086   .     S
C1150  O648    1.221   1_455 S
O1152  C574    1.221   1_556 S
C1153  C1169   1.443   .     S
C1153  O1197   1.289   .     A
C1153  O1198   1.289   .     A
C1154  C1155   1.411   .     A
C1154  C508    1.416   1_556 S
C1154  C532    1.414   1_556 S
C1155  C1162   1.422   .     A
C1155  C1159   1.415   .     A
C1156  C1160   1.402   .     A
C1157  C1158   1.409   .     A
C1157  C508    1.411   1_556 S
C1157  C528    1.410   1_556 S
C1158  C1159   1.403   .     A
C1158  C1208   1.514   .     S
C1159  H1193   1.080   .     S
C1160  C1177   1.419   .     A
C1160  C1215   1.531   .     S
C1161  C1176   1.398   .     A
C1161  C1177   1.404   .     A
C1161  H1183   1.083   .     S
C1162  C1164   1.470   .     S
C1162  C1178   1.404   .     A
C1163  H1194   1.084   .     S
C1163  C1169   1.397   .     A
C1163  C733    1.394   1_565 S
C1164  O1200   1.292   .     A
C1164  O1199   1.298   .     A
C1165  C1205   1.488   .     S
C1165  C1166   1.418   .     A
C1166  C1174   1.452   .     S
C1166  C1167   1.402   .     A
C1167  H1184   1.084   .     S
C1168  H1185   1.084   .     S
C1168  C1169   1.395   .     A
C1168  C735    1.382   1_565 S
C1170  N1196   1.367   .     A
C1170  H1186   1.081   .     S
C1170  C1243   1.414   .     S
C1171  N1195   1.367   .     A
C1171  H1187   1.080   .     S
C1172  H1188   1.081   .     S
C1172  N1195   1.367   .     A
C1173  N1196   1.367   .     A
C1173  H1189   1.081   .     S
C1173  C1244   1.415   .     S
C1174  O1202   1.289   .     A
C1174  O1201   1.292   .     A
C1175  O1204   1.303   .     A
C1175  C1177   1.474   .     S
C1175  O1203   1.289   .     A
C1178  C1179   1.395   .     A
C1178  H1191   1.083   .     S
C1179  C532    1.395   1_556 S
C1179  C574    1.480   1_556 S
C1180  H1192   1.082   .     S
Cu1181 O1201   1.960   .     S
Cu1181 N1195   2.011   .     S
Cu1181 O1199   1.961   .     S
Cu1181 O1197   1.960   .     S
Cu1181 Cu1182  2.676   .     S
Cu1181 O1203   1.957   .     S
Cu1182 N1196   2.011   .     S
Cu1182 O1204   1.961   .     S
Cu1182 O1200   1.957   .     S
Cu1182 O1202   1.960   .     S
Cu1182 O1198   1.960   .     S
H1190  C528    1.082   1_556 S
C1205  H1206   1.084   .     S
C1205  O1207   1.221   .     D
C1208  H1213   1.112   .     S
C1208  H1214   1.110   .     S
C1208  C1209   1.521   .     S
C1209  H1210   1.109   .     S
C1209  H1211   1.107   .     S
C1209  H1284   1.111   .     S
C1215  H1221   1.106   .     S
C1215  H1220   1.110   .     S
C1215  C1216   1.529   .     S
C1216  H1217   1.110   .     S
C1216  H1219   1.111   .     S
C1216  H1218   1.106   .     S
C1222  H1223   1.086   .     S
O1224  C646    1.221   1_556 S
C1225  C1241   1.443   .     S
C1225  O1269   1.289   .     A
C1225  O1270   1.289   .     A
C1226  C1227   1.411   .     A
C1226  C580    1.416   1_556 S
C1226  C604    1.414   1_556 S
C1227  C1234   1.422   .     A
C1227  C1231   1.415   .     A
C1228  C1232   1.402   .     A
C1229  C1230   1.409   .     A
C1229  C580    1.411   1_556 S
C1229  C600    1.410   1_556 S
C1230  C1231   1.403   .     A
C1230  C1280   1.514   .     S
C1231  H1265   1.080   .     S
C1232  C1249   1.419   .     A
C1232  C1287   1.531   .     S
C1233  C1248   1.398   .     A
C1233  C1249   1.404   .     A
C1233  H1255   1.083   .     S
C1234  C1236   1.470   .     S
C1234  C1250   1.404   .     A
C1235  H1266   1.084   .     S
C1235  C1241   1.397   .     A
C1235  C805    1.394   1_565 S
C1236  O1272   1.292   .     A
C1236  O1271   1.298   .     A
C1237  C1277   1.488   .     S
C1237  C1238   1.418   .     A
C1238  C1246   1.452   .     S
C1238  C1239   1.402   .     A
C1239  H1256   1.084   .     S
C1240  H1257   1.084   .     S
C1240  C1241   1.395   .     A
C1240  C807    1.382   1_565 S
C1242  N1268   1.367   .     A
C1242  H1258   1.081   .     S
C1242  C1099   1.414   1_655 S
C1243  N1267   1.367   .     A
C1243  H1259   1.080   .     S
C1244  H1260   1.081   .     S
C1244  N1267   1.367   .     A
C1245  N1268   1.367   .     A
C1245  H1261   1.081   .     S
C1245  C1100   1.415   1_655 S
C1246  O1274   1.289   .     A
C1246  O1273   1.292   .     A
C1247  O1276   1.303   .     A
C1247  C1249   1.474   .     S
C1247  O1275   1.289   .     A
C1250  C1251   1.395   .     A
C1250  H1263   1.083   .     S
C1251  C604    1.395   1_556 S
C1251  C646    1.480   1_556 S
C1252  H1264   1.082   .     S
Cu1253 O1273   1.960   .     S
Cu1253 N1267   2.011   .     S
Cu1253 O1271   1.961   .     S
Cu1253 O1269   1.960   .     S
Cu1253 Cu1254  2.676   .     S
Cu1253 O1275   1.957   .     S
Cu1254 N1268   2.011   .     S
Cu1254 O1276   1.961   .     S
Cu1254 O1272   1.957   .     S
Cu1254 O1274   1.960   .     S
Cu1254 O1270   1.960   .     S
H1262  C600    1.082   1_556 S
C1277  H1278   1.084   .     S
C1277  O1279   1.221   .     D
C1280  H1285   1.112   .     S
C1280  H1286   1.110   .     S
C1280  C1281   1.521   .     S
C1281  H1282   1.109   .     S
C1281  H1283   1.107   .     S
C1281  H1140   1.111   1_655 S
C1287  H1293   1.106   .     S
C1287  H1292   1.110   .     S
C1287  C1288   1.529   .     S
C1288  H1289   1.110   .     S
C1288  H1291   1.111   .     S
C1288  H1290   1.106   .     S
C1294  H1295   1.086   .     S
O1296  C502    1.221   1_656 S
