data_str_m2_o1_o2_pcu_sym.7
_audit_creation_date              2020-01-03
_audit_creation_method            'Materials Studio'
_symmetry_space_group_name_H-M    'P1'
_symmetry_Int_Tables_number       1
_symmetry_cell_setting            triclinic
loop_
_symmetry_equiv_pos_as_xyz
  x,y,z
_cell_length_a                    32.5414
_cell_length_b                    28.5448
_cell_length_c                    30.5134
_cell_angle_alpha                 90.2745
_cell_angle_beta                  90.4433
_cell_angle_gamma                 90.6081
loop_
_atom_site_label
_atom_site_type_symbol
_atom_site_fract_x
_atom_site_fract_y
_atom_site_fract_z
_atom_site_U_iso_or_equiv
_atom_site_adp_type
_atom_site_occupancy
C1     C     0.08721   0.16656   0.25082   0.00000  Uiso   1.00
C2     C     0.31219   0.20542   0.23401   0.00000  Uiso   1.00
C3     C     0.31114   0.13115   0.27300   0.00000  Uiso   1.00
C4     C     0.02075   0.20851   0.24262   0.00000  Uiso   1.00
C5     C     0.17486   0.20558   0.04695   0.00000  Uiso   1.00
C6     C     0.17225   0.12334   0.45188   0.00000  Uiso   1.00
C7     C     0.15501   0.20522   0.45296   0.00000  Uiso   1.00
C8     C     0.15715   0.12347   0.04777   0.00000  Uiso   1.00
C9     C     0.17099   0.20790   0.09222   0.00000  Uiso   1.00
C10    C     0.16890   0.12284   0.40640   0.00000  Uiso   1.00
C11    C     0.16004   0.20769   0.40784   0.00000  Uiso   1.00
C12    C     0.24574   0.16697   0.25091   0.00000  Uiso   1.00
C13    C     0.16203   0.12293   0.09314   0.00000  Uiso   1.00
C14    C     0.16656   0.16589   0.11644   0.00000  Uiso   1.00
C15    C     0.16529   0.16588   0.38345   0.00000  Uiso   1.00
C16    C     0.16527   0.16428   0.02407   0.00000  Uiso   1.00
C17    C     0.16398   0.16410   0.47571   0.00000  Uiso   1.00
C18    C     0.29006   0.16786   0.25252   0.00000  Uiso   1.00
C19    C     0.04226   0.16701   0.25256   0.00000  Uiso   1.00
C20    C     0.13465   0.27137   0.11627   0.00000  Uiso   1.00
C21    C     0.11374   0.28361   0.07233   0.00000  Uiso   1.00
C22    C     0.07774   0.31663   0.07915   0.00000  Uiso   1.00
C23    C     0.16672   0.16653   0.16486   0.00000  Uiso   1.00
C24    C     0.13203   0.06161   0.37647   0.00000  Uiso   1.00
C25    C     0.11480   0.03408   0.41573   0.00000  Uiso   1.00
C26    C     0.07978   0.05970   0.43826   0.00000  Uiso   1.00
C27    C     0.19660   0.27255   0.38622   0.00000  Uiso   1.00
C28    C     0.21312   0.28898   0.43128   0.00000  Uiso   1.00
C29    C     0.24940   0.32281   0.42666   0.00000  Uiso   1.00
C30    C     0.20045   0.06152   0.11760   0.00000  Uiso   1.00
C31    C     0.21442   0.03897   0.07435   0.00000  Uiso   1.00
C32    C     0.25252   0.00913   0.08065   0.00000  Uiso   1.00
C33    C     0.03726   0.06056   0.22781   0.00000  Uiso   1.00
C34    C     0.16637   0.16662   0.33510   0.00000  Uiso   1.00
C35    C     0.32740   0.04873   0.20952   0.00000  Uiso   1.00
C36    C     0.32960   0.01298   0.17252   0.00000  Uiso   1.00
C37    C     0.27883   0.22558   0.17006   0.00000  Uiso   1.00
C38    C     0.31349   0.22189   0.13643   0.00000  Uiso   1.00
C39    C     0.29672   0.20612   0.09181   0.00000  Uiso   1.00
C40    C     0.27740   0.11357   0.33682   0.00000  Uiso   1.00
C41    C     0.31249   0.11623   0.37056   0.00000  Uiso   1.00
C42    C     0.29665   0.13051   0.41561   0.00000  Uiso   1.00
C43    C     0.04610   0.26998   0.28299   0.00000  Uiso   1.00
C44    C     0.00614   0.28804   0.30308   0.00000  Uiso   1.00
C45    C     0.13950   0.02434   0.22459   0.00000  Uiso   1.00
C46    C     0.01482   0.31928   0.34282   0.00000  Uiso   1.00
C47    C     0.19521   0.30896   0.27376   0.00000  Uiso   1.00
C48    C     0.19475   0.02522   0.27438   0.00000  Uiso   1.00
C49    C     0.13867   0.30812   0.22563   0.00000  Uiso   1.00
C50    C     0.01951   0.12678   0.26469   0.00000  Uiso   1.00
Cu51   Cu    0.16667   0.21355   0.25000   0.00000  Uiso   1.00
Cu52   Cu    0.16667   0.11978   0.25000   0.00000  Uiso   1.00
H53    H     0.11868   0.04265   0.20319   0.00000  Uiso   1.00
H54    H     0.11393   0.24824   0.13564   0.00000  Uiso   1.00
H55    H     0.13603   0.30042   0.04993   0.00000  Uiso   1.00
H56    H     0.10178   0.25111   0.05635   0.00000  Uiso   1.00
H57    H     0.05480   0.30035   0.10126   0.00000  Uiso   1.00
H58    H     0.06269   0.32387   0.04715   0.00000  Uiso   1.00
H59    H     0.08868   0.01703   0.09360   0.00000  Uiso   1.00
H60    H     0.13481   0.03674   0.34857   0.00000  Uiso   1.00
H61    H     0.11006   0.08871   0.36480   0.00000  Uiso   1.00
H62    H     0.10295   0.33276   0.40422   0.00000  Uiso   1.00
H63    H     0.13936   0.02746   0.44016   0.00000  Uiso   1.00
H64    H     0.21835   0.29063   0.29238   0.00000  Uiso   1.00
H65    H     0.09000   0.09486   0.44985   0.00000  Uiso   1.00
H66    H     0.06921   0.03913   0.46691   0.00000  Uiso   1.00
H67    H     0.05356   0.06366   0.41520   0.00000  Uiso   1.00
H68    H     0.19345   0.30390   0.36520   0.00000  Uiso   1.00
H69    H     0.21929   0.24920   0.37012   0.00000  Uiso   1.00
H70    H     0.18853   0.30649   0.44993   0.00000  Uiso   1.00
H71    H     0.22371   0.25835   0.45046   0.00000  Uiso   1.00
H72    H     0.27533   0.30472   0.41064   0.00000  Uiso   1.00
H73    H     0.25966   0.00170   0.45961   0.00000  Uiso   1.00
H74    H     0.24051   0.02046   0.40701   0.00000  Uiso   1.00
H75    H     0.21710   0.04417   0.29407   0.00000  Uiso   1.00
H76    H     0.19958   0.03412   0.14333   0.00000  Uiso   1.00
H77    H     0.22347   0.08830   0.12893   0.00000  Uiso   1.00
H78    H     0.18935   0.01669   0.06071   0.00000  Uiso   1.00
H79    H     0.22186   0.06660   0.05010   0.00000  Uiso   1.00
H80    H     0.27873   0.03144   0.09186   0.00000  Uiso   1.00
H81    H     0.26078   0.32581   0.04900   0.00000  Uiso   1.00
H82    H     0.24651   0.31442   0.10489   0.00000  Uiso   1.00
H83    H     0.05396   0.02734   0.23223   0.00000  Uiso   1.00
H84    H     0.05443   0.08149   0.20314   0.00000  Uiso   1.00
H85    H     0.30750   0.03462   0.23569   0.00000  Uiso   1.00
H86    H     0.11571   0.28912   0.20676   0.00000  Uiso   1.00
H87    H     0.31284   0.08085   0.19640   0.00000  Uiso   1.00
H88    H     0.01170   0.02859   0.14365   0.00000  Uiso   1.00
H89    H     0.29803   0.00169   0.16317   0.00000  Uiso   1.00
H90    H     0.01353   0.31511   0.18334   0.00000  Uiso   1.00
H91    H     0.25611   0.25136   0.15804   0.00000  Uiso   1.00
H92    H     0.26209   0.19148   0.17169   0.00000  Uiso   1.00
H93    H     0.32895   0.25636   0.13268   0.00000  Uiso   1.00
H94    H     0.00330   0.19617   0.14772   0.00000  Uiso   1.00
H95    H     0.28180   0.17105   0.09436   0.00000  Uiso   1.00
H96    H     0.32233   0.20390   0.06807   0.00000  Uiso   1.00
H97    H     0.18351   0.23727   0.02990   0.00000  Uiso   1.00
H98    H     0.27393   0.23160   0.07931   0.00000  Uiso   1.00
H99    H     0.25359   0.08894   0.34919   0.00000  Uiso   1.00
H100   H     0.26234   0.14831   0.33417   0.00000  Uiso   1.00
H101   H     0.32721   0.08152   0.37303   0.00000  Uiso   1.00
H102   H     0.00265   0.14224   0.35996   0.00000  Uiso   1.00
H103   H     0.28205   0.16549   0.41398   0.00000  Uiso   1.00
H104   H     0.32269   0.13230   0.43931   0.00000  Uiso   1.00
H105   H     0.27381   0.10441   0.42751   0.00000  Uiso   1.00
H106   H     0.06853   0.29938   0.28077   0.00000  Uiso   1.00
H107   H     0.06022   0.24404   0.30560   0.00000  Uiso   1.00
H108   H     0.18030   0.09115   0.46820   0.00000  Uiso   1.00
H109   H     0.32208   0.30804   0.27835   0.00000  Uiso   1.00
H110   H     0.31994   0.25797   0.31348   0.00000  Uiso   1.00
H111   H     0.02993   0.29890   0.36923   0.00000  Uiso   1.00
H112   H     0.31874   0.33319   0.35519   0.00000  Uiso   1.00
H113   H     0.03494   0.01598   0.33379   0.00000  Uiso   1.00
H114   H     0.14605   0.23670   0.47012   0.00000  Uiso   1.00
H115   H     0.14864   0.09107   0.03138   0.00000  Uiso   1.00
H116   H     0.13891   0.30443   0.13505   0.00000  Uiso   1.00
N117   N     0.16667   0.28402   0.25000   0.00000  Uiso   1.00
N118   N     0.16667   0.04931   0.25000   0.00000  Uiso   1.00
O119   O     0.10655   0.20625   0.25000   0.00000  Uiso   1.00
O120   O     0.17198   0.08008   0.38514   0.00000  Uiso   1.00
O121   O     0.15706   0.25117   0.38831   0.00000  Uiso   1.00
O122   O     0.16024   0.08005   0.11408   0.00000  Uiso   1.00
O123   O     0.03701   0.08327   0.26934   0.00000  Uiso   1.00
O124   O     0.29339   0.24165   0.21157   0.00000  Uiso   1.00
O125   O     0.29107   0.09598   0.29593   0.00000  Uiso   1.00
O126   O     0.03990   0.25186   0.23991   0.00000  Uiso   1.00
O127   O     0.22679   0.12709   0.25001   0.00000  Uiso   1.00
O128   O     0.22679   0.20625   0.25001   0.00000  Uiso   1.00
O129   O     0.10655   0.12709   0.25000   0.00000  Uiso   1.00
O130   O     0.16666   0.20626   0.18573   0.00000  Uiso   1.00
O131   O     0.16667   0.12707   0.31427   0.00000  Uiso   1.00
O132   O     0.16667   0.20626   0.31427   0.00000  Uiso   1.00
O133   O     0.16666   0.12707   0.18573   0.00000  Uiso   1.00
O134   O     0.17428   0.25158   0.11180   0.00000  Uiso   1.00
C135   C     0.42054   0.16656   0.25082   0.00000  Uiso   1.00
C136   C     0.64552   0.20542   0.23401   0.00000  Uiso   1.00
C137   C     0.64447   0.13115   0.27300   0.00000  Uiso   1.00
C138   C     0.35409   0.20851   0.24262   0.00000  Uiso   1.00
C139   C     0.50819   0.20558   0.04695   0.00000  Uiso   1.00
C140   C     0.50559   0.12334   0.45188   0.00000  Uiso   1.00
C141   C     0.48835   0.20522   0.45296   0.00000  Uiso   1.00
C142   C     0.49049   0.12347   0.04777   0.00000  Uiso   1.00
C143   C     0.50432   0.20790   0.09222   0.00000  Uiso   1.00
C144   C     0.50224   0.12284   0.40640   0.00000  Uiso   1.00
C145   C     0.49338   0.20769   0.40784   0.00000  Uiso   1.00
C146   C     0.57907   0.16697   0.25091   0.00000  Uiso   1.00
C147   C     0.49536   0.12293   0.09314   0.00000  Uiso   1.00
C148   C     0.49990   0.16589   0.11644   0.00000  Uiso   1.00
C149   C     0.49862   0.16588   0.38345   0.00000  Uiso   1.00
C150   C     0.49860   0.16428   0.02407   0.00000  Uiso   1.00
C151   C     0.49732   0.16410   0.47571   0.00000  Uiso   1.00
C152   C     0.62340   0.16786   0.25252   0.00000  Uiso   1.00
C153   C     0.37559   0.16701   0.25256   0.00000  Uiso   1.00
C154   C     0.46798   0.27137   0.11627   0.00000  Uiso   1.00
C155   C     0.44707   0.28361   0.07233   0.00000  Uiso   1.00
C156   C     0.41108   0.31663   0.07915   0.00000  Uiso   1.00
C157   C     0.50005   0.16653   0.16486   0.00000  Uiso   1.00
C158   C     0.46536   0.06161   0.37647   0.00000  Uiso   1.00
C159   C     0.44814   0.03408   0.41573   0.00000  Uiso   1.00
C160   C     0.41311   0.05970   0.43826   0.00000  Uiso   1.00
C161   C     0.52993   0.27255   0.38622   0.00000  Uiso   1.00
C162   C     0.54646   0.28898   0.43128   0.00000  Uiso   1.00
C163   C     0.58273   0.32281   0.42666   0.00000  Uiso   1.00
C164   C     0.53379   0.06152   0.11760   0.00000  Uiso   1.00
C165   C     0.54775   0.03897   0.07435   0.00000  Uiso   1.00
C166   C     0.58585   0.00913   0.08065   0.00000  Uiso   1.00
C167   C     0.37059   0.06056   0.22781   0.00000  Uiso   1.00
C168   C     0.49970   0.16662   0.33510   0.00000  Uiso   1.00
C169   C     0.66074   0.04873   0.20952   0.00000  Uiso   1.00
C170   C     0.66293   0.01298   0.17252   0.00000  Uiso   1.00
C171   C     0.61216   0.22558   0.17006   0.00000  Uiso   1.00
C172   C     0.64683   0.22189   0.13643   0.00000  Uiso   1.00
C173   C     0.63005   0.20612   0.09181   0.00000  Uiso   1.00
C174   C     0.61073   0.11357   0.33682   0.00000  Uiso   1.00
C175   C     0.64582   0.11623   0.37056   0.00000  Uiso   1.00
C176   C     0.62998   0.13051   0.41561   0.00000  Uiso   1.00
C177   C     0.37944   0.26998   0.28299   0.00000  Uiso   1.00
C178   C     0.33947   0.28804   0.30308   0.00000  Uiso   1.00
C179   C     0.47284   0.02434   0.22459   0.00000  Uiso   1.00
C180   C     0.34815   0.31928   0.34282   0.00000  Uiso   1.00
C181   C     0.52854   0.30896   0.27376   0.00000  Uiso   1.00
C182   C     0.52808   0.02522   0.27438   0.00000  Uiso   1.00
C183   C     0.47200   0.30812   0.22563   0.00000  Uiso   1.00
C184   C     0.35285   0.12678   0.26469   0.00000  Uiso   1.00
Cu185  Cu    0.50000   0.21355   0.25000   0.00000  Uiso   1.00
Cu186  Cu    0.50000   0.11978   0.25000   0.00000  Uiso   1.00
H187   H     0.45202   0.04265   0.20319   0.00000  Uiso   1.00
H188   H     0.44727   0.24824   0.13564   0.00000  Uiso   1.00
H189   H     0.46936   0.30042   0.04993   0.00000  Uiso   1.00
H190   H     0.43512   0.25111   0.05635   0.00000  Uiso   1.00
H191   H     0.38813   0.30035   0.10126   0.00000  Uiso   1.00
H192   H     0.39602   0.32387   0.04715   0.00000  Uiso   1.00
H193   H     0.42201   0.01703   0.09360   0.00000  Uiso   1.00
H194   H     0.46815   0.03674   0.34857   0.00000  Uiso   1.00
H195   H     0.44339   0.08871   0.36480   0.00000  Uiso   1.00
H196   H     0.43628   0.33276   0.40422   0.00000  Uiso   1.00
H197   H     0.47269   0.02746   0.44016   0.00000  Uiso   1.00
H198   H     0.55168   0.29063   0.29238   0.00000  Uiso   1.00
H199   H     0.42333   0.09486   0.44985   0.00000  Uiso   1.00
H200   H     0.40254   0.03913   0.46691   0.00000  Uiso   1.00
H201   H     0.38690   0.06366   0.41520   0.00000  Uiso   1.00
H202   H     0.52678   0.30390   0.36520   0.00000  Uiso   1.00
H203   H     0.55262   0.24920   0.37012   0.00000  Uiso   1.00
H204   H     0.52186   0.30649   0.44993   0.00000  Uiso   1.00
H205   H     0.55705   0.25835   0.45046   0.00000  Uiso   1.00
H206   H     0.60866   0.30472   0.41064   0.00000  Uiso   1.00
H207   H     0.59299   0.00170   0.45961   0.00000  Uiso   1.00
H208   H     0.57384   0.02046   0.40701   0.00000  Uiso   1.00
H209   H     0.55043   0.04417   0.29407   0.00000  Uiso   1.00
H210   H     0.53291   0.03412   0.14333   0.00000  Uiso   1.00
H211   H     0.55680   0.08830   0.12893   0.00000  Uiso   1.00
H212   H     0.52269   0.01669   0.06071   0.00000  Uiso   1.00
H213   H     0.55520   0.06660   0.05010   0.00000  Uiso   1.00
H214   H     0.61206   0.03144   0.09186   0.00000  Uiso   1.00
H215   H     0.59411   0.32581   0.04900   0.00000  Uiso   1.00
H216   H     0.57984   0.31442   0.10489   0.00000  Uiso   1.00
H217   H     0.38729   0.02734   0.23223   0.00000  Uiso   1.00
H218   H     0.38776   0.08149   0.20314   0.00000  Uiso   1.00
H219   H     0.64083   0.03462   0.23569   0.00000  Uiso   1.00
H220   H     0.44904   0.28912   0.20676   0.00000  Uiso   1.00
H221   H     0.64617   0.08085   0.19640   0.00000  Uiso   1.00
H222   H     0.34503   0.02859   0.14365   0.00000  Uiso   1.00
H223   H     0.63136   0.00169   0.16317   0.00000  Uiso   1.00
H224   H     0.34686   0.31511   0.18334   0.00000  Uiso   1.00
H225   H     0.58944   0.25136   0.15804   0.00000  Uiso   1.00
H226   H     0.59543   0.19148   0.17169   0.00000  Uiso   1.00
H227   H     0.66228   0.25636   0.13268   0.00000  Uiso   1.00
H228   H     0.33663   0.19617   0.14772   0.00000  Uiso   1.00
H229   H     0.61513   0.17105   0.09436   0.00000  Uiso   1.00
H230   H     0.65566   0.20390   0.06807   0.00000  Uiso   1.00
H231   H     0.51684   0.23727   0.02990   0.00000  Uiso   1.00
H232   H     0.60726   0.23160   0.07931   0.00000  Uiso   1.00
H233   H     0.58693   0.08894   0.34919   0.00000  Uiso   1.00
H234   H     0.59568   0.14831   0.33417   0.00000  Uiso   1.00
H235   H     0.66055   0.08152   0.37303   0.00000  Uiso   1.00
H236   H     0.33599   0.14224   0.35996   0.00000  Uiso   1.00
H237   H     0.61539   0.16549   0.41398   0.00000  Uiso   1.00
H238   H     0.65603   0.13230   0.43931   0.00000  Uiso   1.00
H239   H     0.60714   0.10441   0.42751   0.00000  Uiso   1.00
H240   H     0.40186   0.29938   0.28077   0.00000  Uiso   1.00
H241   H     0.39356   0.24404   0.30560   0.00000  Uiso   1.00
H242   H     0.51364   0.09115   0.46820   0.00000  Uiso   1.00
H243   H     0.65541   0.30804   0.27835   0.00000  Uiso   1.00
H244   H     0.65328   0.25797   0.31348   0.00000  Uiso   1.00
H245   H     0.36326   0.29890   0.36923   0.00000  Uiso   1.00
H246   H     0.65208   0.33319   0.35519   0.00000  Uiso   1.00
H247   H     0.36827   0.01598   0.33379   0.00000  Uiso   1.00
H248   H     0.47939   0.23670   0.47012   0.00000  Uiso   1.00
H249   H     0.48197   0.09107   0.03138   0.00000  Uiso   1.00
H250   H     0.47225   0.30443   0.13505   0.00000  Uiso   1.00
N251   N     0.50000   0.28402   0.25000   0.00000  Uiso   1.00
N252   N     0.50000   0.04931   0.25000   0.00000  Uiso   1.00
O253   O     0.43988   0.20625   0.25000   0.00000  Uiso   1.00
O254   O     0.50532   0.08008   0.38514   0.00000  Uiso   1.00
O255   O     0.49040   0.25117   0.38831   0.00000  Uiso   1.00
O256   O     0.49357   0.08005   0.11408   0.00000  Uiso   1.00
O257   O     0.37034   0.08327   0.26934   0.00000  Uiso   1.00
O258   O     0.62672   0.24165   0.21157   0.00000  Uiso   1.00
O259   O     0.62440   0.09598   0.29593   0.00000  Uiso   1.00
O260   O     0.37324   0.25186   0.23991   0.00000  Uiso   1.00
O261   O     0.56012   0.12709   0.25001   0.00000  Uiso   1.00
O262   O     0.56012   0.20625   0.25001   0.00000  Uiso   1.00
O263   O     0.43988   0.12709   0.25000   0.00000  Uiso   1.00
O264   O     0.50000   0.20626   0.18573   0.00000  Uiso   1.00
O265   O     0.50000   0.12707   0.31427   0.00000  Uiso   1.00
O266   O     0.50000   0.20626   0.31427   0.00000  Uiso   1.00
O267   O     0.50000   0.12707   0.18573   0.00000  Uiso   1.00
O268   O     0.50761   0.25158   0.11180   0.00000  Uiso   1.00
C269   C     0.75387   0.16656   0.25082   0.00000  Uiso   1.00
C270   C     0.97885   0.20542   0.23401   0.00000  Uiso   1.00
C271   C     0.97780   0.13115   0.27300   0.00000  Uiso   1.00
C272   C     0.68742   0.20851   0.24262   0.00000  Uiso   1.00
C273   C     0.84152   0.20558   0.04695   0.00000  Uiso   1.00
C274   C     0.83892   0.12334   0.45188   0.00000  Uiso   1.00
C275   C     0.82168   0.20522   0.45296   0.00000  Uiso   1.00
C276   C     0.82382   0.12347   0.04777   0.00000  Uiso   1.00
C277   C     0.83766   0.20790   0.09222   0.00000  Uiso   1.00
C278   C     0.83557   0.12284   0.40640   0.00000  Uiso   1.00
C279   C     0.82671   0.20769   0.40784   0.00000  Uiso   1.00
C280   C     0.91241   0.16697   0.25091   0.00000  Uiso   1.00
C281   C     0.82869   0.12293   0.09314   0.00000  Uiso   1.00
C282   C     0.83323   0.16589   0.11644   0.00000  Uiso   1.00
C283   C     0.83196   0.16588   0.38345   0.00000  Uiso   1.00
C284   C     0.83194   0.16428   0.02407   0.00000  Uiso   1.00
C285   C     0.83065   0.16410   0.47571   0.00000  Uiso   1.00
C286   C     0.95673   0.16786   0.25252   0.00000  Uiso   1.00
C287   C     0.70892   0.16701   0.25256   0.00000  Uiso   1.00
C288   C     0.80132   0.27137   0.11627   0.00000  Uiso   1.00
C289   C     0.78040   0.28361   0.07233   0.00000  Uiso   1.00
C290   C     0.74441   0.31663   0.07915   0.00000  Uiso   1.00
C291   C     0.83339   0.16653   0.16486   0.00000  Uiso   1.00
C292   C     0.79869   0.06161   0.37647   0.00000  Uiso   1.00
C293   C     0.78147   0.03408   0.41573   0.00000  Uiso   1.00
C294   C     0.74645   0.05970   0.43826   0.00000  Uiso   1.00
C295   C     0.86327   0.27255   0.38622   0.00000  Uiso   1.00
C296   C     0.87979   0.28898   0.43128   0.00000  Uiso   1.00
C297   C     0.91607   0.32281   0.42666   0.00000  Uiso   1.00
C298   C     0.86712   0.06152   0.11760   0.00000  Uiso   1.00
C299   C     0.88108   0.03897   0.07435   0.00000  Uiso   1.00
C300   C     0.91918   0.00913   0.08065   0.00000  Uiso   1.00
C301   C     0.70392   0.06056   0.22781   0.00000  Uiso   1.00
C302   C     0.83303   0.16662   0.33510   0.00000  Uiso   1.00
C303   C     0.99407   0.04873   0.20952   0.00000  Uiso   1.00
C304   C     0.99627   0.01298   0.17252   0.00000  Uiso   1.00
C305   C     0.94549   0.22558   0.17006   0.00000  Uiso   1.00
C306   C     0.98016   0.22189   0.13643   0.00000  Uiso   1.00
C307   C     0.96339   0.20612   0.09181   0.00000  Uiso   1.00
C308   C     0.94406   0.11357   0.33682   0.00000  Uiso   1.00
C309   C     0.97915   0.11623   0.37056   0.00000  Uiso   1.00
C310   C     0.96332   0.13051   0.41561   0.00000  Uiso   1.00
C311   C     0.71277   0.26998   0.28299   0.00000  Uiso   1.00
C312   C     0.67280   0.28804   0.30308   0.00000  Uiso   1.00
C313   C     0.80617   0.02434   0.22459   0.00000  Uiso   1.00
C314   C     0.68148   0.31928   0.34282   0.00000  Uiso   1.00
C315   C     0.86187   0.30896   0.27376   0.00000  Uiso   1.00
C316   C     0.86141   0.02522   0.27438   0.00000  Uiso   1.00
C317   C     0.80533   0.30812   0.22563   0.00000  Uiso   1.00
C318   C     0.68618   0.12678   0.26469   0.00000  Uiso   1.00
Cu319  Cu    0.83333   0.21355   0.25000   0.00000  Uiso   1.00
Cu320  Cu    0.83333   0.11978   0.25000   0.00000  Uiso   1.00
H321   H     0.78535   0.04265   0.20319   0.00000  Uiso   1.00
H322   H     0.78060   0.24824   0.13564   0.00000  Uiso   1.00
H323   H     0.80269   0.30042   0.04993   0.00000  Uiso   1.00
H324   H     0.76845   0.25111   0.05635   0.00000  Uiso   1.00
H325   H     0.72147   0.30035   0.10126   0.00000  Uiso   1.00
H326   H     0.72935   0.32387   0.04715   0.00000  Uiso   1.00
H327   H     0.75535   0.01703   0.09360   0.00000  Uiso   1.00
H328   H     0.80148   0.03674   0.34857   0.00000  Uiso   1.00
H329   H     0.77673   0.08871   0.36480   0.00000  Uiso   1.00
H330   H     0.76962   0.33276   0.40422   0.00000  Uiso   1.00
H331   H     0.80603   0.02746   0.44016   0.00000  Uiso   1.00
H332   H     0.88501   0.29063   0.29238   0.00000  Uiso   1.00
H333   H     0.75666   0.09486   0.44985   0.00000  Uiso   1.00
H334   H     0.73588   0.03913   0.46691   0.00000  Uiso   1.00
H335   H     0.72023   0.06366   0.41520   0.00000  Uiso   1.00
H336   H     0.86011   0.30390   0.36520   0.00000  Uiso   1.00
H337   H     0.88595   0.24920   0.37012   0.00000  Uiso   1.00
H338   H     0.85520   0.30649   0.44993   0.00000  Uiso   1.00
H339   H     0.89038   0.25835   0.45046   0.00000  Uiso   1.00
H340   H     0.94199   0.30472   0.41064   0.00000  Uiso   1.00
H341   H     0.92633   0.00170   0.45961   0.00000  Uiso   1.00
H342   H     0.90717   0.02046   0.40701   0.00000  Uiso   1.00
H343   H     0.88376   0.04417   0.29407   0.00000  Uiso   1.00
H344   H     0.86624   0.03412   0.14333   0.00000  Uiso   1.00
H345   H     0.89014   0.08830   0.12893   0.00000  Uiso   1.00
H346   H     0.85602   0.01669   0.06071   0.00000  Uiso   1.00
H347   H     0.88853   0.06660   0.05010   0.00000  Uiso   1.00
H348   H     0.94539   0.03144   0.09186   0.00000  Uiso   1.00
H349   H     0.92745   0.32581   0.04900   0.00000  Uiso   1.00
H350   H     0.91317   0.31442   0.10489   0.00000  Uiso   1.00
H351   H     0.72063   0.02734   0.23223   0.00000  Uiso   1.00
H352   H     0.72110   0.08149   0.20314   0.00000  Uiso   1.00
H353   H     0.97417   0.03462   0.23569   0.00000  Uiso   1.00
H354   H     0.78237   0.28912   0.20676   0.00000  Uiso   1.00
H355   H     0.97950   0.08085   0.19640   0.00000  Uiso   1.00
H356   H     0.67837   0.02859   0.14365   0.00000  Uiso   1.00
H357   H     0.96469   0.00169   0.16317   0.00000  Uiso   1.00
H358   H     0.68020   0.31511   0.18334   0.00000  Uiso   1.00
H359   H     0.92278   0.25136   0.15804   0.00000  Uiso   1.00
H360   H     0.92876   0.19148   0.17169   0.00000  Uiso   1.00
H361   H     0.99562   0.25636   0.13268   0.00000  Uiso   1.00
H362   H     0.66996   0.19617   0.14772   0.00000  Uiso   1.00
H363   H     0.94846   0.17105   0.09436   0.00000  Uiso   1.00
H364   H     0.98899   0.20390   0.06807   0.00000  Uiso   1.00
H365   H     0.85017   0.23727   0.02990   0.00000  Uiso   1.00
H366   H     0.94059   0.23160   0.07931   0.00000  Uiso   1.00
H367   H     0.92026   0.08894   0.34919   0.00000  Uiso   1.00
H368   H     0.92901   0.14831   0.33417   0.00000  Uiso   1.00
H369   H     0.99388   0.08152   0.37303   0.00000  Uiso   1.00
H370   H     0.66932   0.14224   0.35996   0.00000  Uiso   1.00
H371   H     0.94872   0.16549   0.41398   0.00000  Uiso   1.00
H372   H     0.98936   0.13230   0.43931   0.00000  Uiso   1.00
H373   H     0.94047   0.10441   0.42751   0.00000  Uiso   1.00
H374   H     0.73520   0.29938   0.28077   0.00000  Uiso   1.00
H375   H     0.72689   0.24404   0.30560   0.00000  Uiso   1.00
H376   H     0.84697   0.09115   0.46820   0.00000  Uiso   1.00
H377   H     0.98875   0.30804   0.27835   0.00000  Uiso   1.00
H378   H     0.98661   0.25797   0.31348   0.00000  Uiso   1.00
H379   H     0.69659   0.29890   0.36923   0.00000  Uiso   1.00
H380   H     0.98541   0.33319   0.35519   0.00000  Uiso   1.00
H381   H     0.70161   0.01598   0.33379   0.00000  Uiso   1.00
H382   H     0.81272   0.23670   0.47012   0.00000  Uiso   1.00
H383   H     0.81530   0.09107   0.03138   0.00000  Uiso   1.00
H384   H     0.80558   0.30443   0.13505   0.00000  Uiso   1.00
N385   N     0.83333   0.28402   0.25000   0.00000  Uiso   1.00
N386   N     0.83333   0.04931   0.25000   0.00000  Uiso   1.00
O387   O     0.77321   0.20625   0.25000   0.00000  Uiso   1.00
O388   O     0.83865   0.08008   0.38514   0.00000  Uiso   1.00
O389   O     0.82373   0.25117   0.38831   0.00000  Uiso   1.00
O390   O     0.82690   0.08005   0.11408   0.00000  Uiso   1.00
O391   O     0.70368   0.08327   0.26934   0.00000  Uiso   1.00
O392   O     0.96006   0.24165   0.21157   0.00000  Uiso   1.00
O393   O     0.95773   0.09598   0.29593   0.00000  Uiso   1.00
O394   O     0.70657   0.25186   0.23991   0.00000  Uiso   1.00
O395   O     0.89345   0.12709   0.25001   0.00000  Uiso   1.00
O396   O     0.89345   0.20625   0.25001   0.00000  Uiso   1.00
O397   O     0.77321   0.12709   0.25000   0.00000  Uiso   1.00
O398   O     0.83333   0.20626   0.18573   0.00000  Uiso   1.00
O399   O     0.83334   0.12707   0.31427   0.00000  Uiso   1.00
O400   O     0.83334   0.20626   0.31427   0.00000  Uiso   1.00
O401   O     0.83333   0.12707   0.18573   0.00000  Uiso   1.00
O402   O     0.84094   0.25158   0.11180   0.00000  Uiso   1.00
C403   C     0.08721   0.49989   0.25082   0.00000  Uiso   1.00
C404   C     0.31219   0.53876   0.23401   0.00000  Uiso   1.00
C405   C     0.31114   0.46448   0.27300   0.00000  Uiso   1.00
C406   C     0.02075   0.54184   0.24262   0.00000  Uiso   1.00
C407   C     0.17486   0.53891   0.04695   0.00000  Uiso   1.00
C408   C     0.17225   0.45667   0.45188   0.00000  Uiso   1.00
C409   C     0.15501   0.53855   0.45296   0.00000  Uiso   1.00
C410   C     0.15715   0.45680   0.04777   0.00000  Uiso   1.00
C411   C     0.17099   0.54123   0.09222   0.00000  Uiso   1.00
C412   C     0.16890   0.45617   0.40640   0.00000  Uiso   1.00
C413   C     0.16004   0.54103   0.40784   0.00000  Uiso   1.00
C414   C     0.24574   0.50031   0.25091   0.00000  Uiso   1.00
C415   C     0.16203   0.45626   0.09314   0.00000  Uiso   1.00
C416   C     0.16656   0.49923   0.11644   0.00000  Uiso   1.00
C417   C     0.16529   0.49921   0.38345   0.00000  Uiso   1.00
C418   C     0.16527   0.49761   0.02407   0.00000  Uiso   1.00
C419   C     0.16398   0.49744   0.47571   0.00000  Uiso   1.00
C420   C     0.29006   0.50119   0.25252   0.00000  Uiso   1.00
C421   C     0.04226   0.50034   0.25256   0.00000  Uiso   1.00
C422   C     0.13465   0.60471   0.11627   0.00000  Uiso   1.00
C423   C     0.11374   0.61694   0.07233   0.00000  Uiso   1.00
C424   C     0.07774   0.64996   0.07915   0.00000  Uiso   1.00
C425   C     0.16672   0.49986   0.16486   0.00000  Uiso   1.00
C426   C     0.13203   0.39494   0.37647   0.00000  Uiso   1.00
C427   C     0.11480   0.36741   0.41573   0.00000  Uiso   1.00
C428   C     0.07978   0.39304   0.43826   0.00000  Uiso   1.00
C429   C     0.19660   0.60588   0.38622   0.00000  Uiso   1.00
C430   C     0.21312   0.62231   0.43128   0.00000  Uiso   1.00
C431   C     0.24940   0.65614   0.42666   0.00000  Uiso   1.00
C432   C     0.20045   0.39485   0.11760   0.00000  Uiso   1.00
C433   C     0.21442   0.37230   0.07435   0.00000  Uiso   1.00
C434   C     0.25252   0.34246   0.08065   0.00000  Uiso   1.00
C435   C     0.03726   0.39389   0.22781   0.00000  Uiso   1.00
C436   C     0.16637   0.49995   0.33510   0.00000  Uiso   1.00
C437   C     0.32740   0.38207   0.20952   0.00000  Uiso   1.00
C438   C     0.32960   0.34631   0.17252   0.00000  Uiso   1.00
C439   C     0.27883   0.55892   0.17006   0.00000  Uiso   1.00
C440   C     0.31349   0.55522   0.13643   0.00000  Uiso   1.00
C441   C     0.29672   0.53945   0.09181   0.00000  Uiso   1.00
C442   C     0.27740   0.44690   0.33682   0.00000  Uiso   1.00
C443   C     0.31249   0.44956   0.37056   0.00000  Uiso   1.00
C444   C     0.29665   0.46384   0.41561   0.00000  Uiso   1.00
C445   C     0.04610   0.60331   0.28299   0.00000  Uiso   1.00
C446   C     0.00614   0.62137   0.30308   0.00000  Uiso   1.00
C447   C     0.13950   0.35767   0.22459   0.00000  Uiso   1.00
C448   C     0.01482   0.65261   0.34282   0.00000  Uiso   1.00
C449   C     0.19521   0.64230   0.27376   0.00000  Uiso   1.00
C450   C     0.19475   0.35856   0.27438   0.00000  Uiso   1.00
C451   C     0.13867   0.64145   0.22563   0.00000  Uiso   1.00
C452   C     0.01951   0.46012   0.26469   0.00000  Uiso   1.00
Cu453  Cu    0.16667   0.54689   0.25000   0.00000  Uiso   1.00
Cu454  Cu    0.16667   0.45311   0.25000   0.00000  Uiso   1.00
H455   H     0.11868   0.37598   0.20319   0.00000  Uiso   1.00
H456   H     0.11393   0.58157   0.13564   0.00000  Uiso   1.00
H457   H     0.13603   0.63376   0.04993   0.00000  Uiso   1.00
H458   H     0.10178   0.58444   0.05635   0.00000  Uiso   1.00
H459   H     0.05480   0.63368   0.10126   0.00000  Uiso   1.00
H460   H     0.06269   0.65720   0.04715   0.00000  Uiso   1.00
H461   H     0.08868   0.35036   0.09360   0.00000  Uiso   1.00
H462   H     0.13481   0.37007   0.34857   0.00000  Uiso   1.00
H463   H     0.11006   0.42205   0.36480   0.00000  Uiso   1.00
H464   H     0.10295   0.66609   0.40422   0.00000  Uiso   1.00
H465   H     0.13936   0.36079   0.44016   0.00000  Uiso   1.00
H466   H     0.21835   0.62396   0.29238   0.00000  Uiso   1.00
H467   H     0.09000   0.42820   0.44985   0.00000  Uiso   1.00
H468   H     0.06921   0.37246   0.46691   0.00000  Uiso   1.00
H469   H     0.05356   0.39700   0.41520   0.00000  Uiso   1.00
H470   H     0.19345   0.63723   0.36520   0.00000  Uiso   1.00
H471   H     0.21929   0.58254   0.37012   0.00000  Uiso   1.00
H472   H     0.18853   0.63982   0.44993   0.00000  Uiso   1.00
H473   H     0.22371   0.59168   0.45046   0.00000  Uiso   1.00
H474   H     0.27533   0.63805   0.41064   0.00000  Uiso   1.00
H475   H     0.25966   0.33503   0.45961   0.00000  Uiso   1.00
H476   H     0.24051   0.35380   0.40701   0.00000  Uiso   1.00
H477   H     0.21710   0.37750   0.29407   0.00000  Uiso   1.00
H478   H     0.19958   0.36746   0.14333   0.00000  Uiso   1.00
H479   H     0.22347   0.42163   0.12893   0.00000  Uiso   1.00
H480   H     0.18935   0.35002   0.06071   0.00000  Uiso   1.00
H481   H     0.22186   0.39994   0.05010   0.00000  Uiso   1.00
H482   H     0.27873   0.36477   0.09186   0.00000  Uiso   1.00
H483   H     0.26078   0.65914   0.04900   0.00000  Uiso   1.00
H484   H     0.24651   0.64776   0.10489   0.00000  Uiso   1.00
H485   H     0.05396   0.36067   0.23223   0.00000  Uiso   1.00
H486   H     0.05443   0.41483   0.20314   0.00000  Uiso   1.00
H487   H     0.30750   0.36795   0.23569   0.00000  Uiso   1.00
H488   H     0.11571   0.62245   0.20676   0.00000  Uiso   1.00
H489   H     0.31284   0.41418   0.19640   0.00000  Uiso   1.00
H490   H     0.01170   0.36193   0.14365   0.00000  Uiso   1.00
H491   H     0.29803   0.33502   0.16317   0.00000  Uiso   1.00
H492   H     0.01353   0.64844   0.18334   0.00000  Uiso   1.00
H493   H     0.25611   0.58469   0.15804   0.00000  Uiso   1.00
H494   H     0.26209   0.52481   0.17169   0.00000  Uiso   1.00
H495   H     0.32895   0.58970   0.13268   0.00000  Uiso   1.00
H496   H     0.00330   0.52950   0.14772   0.00000  Uiso   1.00
H497   H     0.28180   0.50438   0.09436   0.00000  Uiso   1.00
H498   H     0.32233   0.53723   0.06807   0.00000  Uiso   1.00
H499   H     0.18351   0.57060   0.02990   0.00000  Uiso   1.00
H500   H     0.27393   0.56493   0.07931   0.00000  Uiso   1.00
H501   H     0.25359   0.42228   0.34919   0.00000  Uiso   1.00
H502   H     0.26234   0.48164   0.33417   0.00000  Uiso   1.00
H503   H     0.32721   0.41485   0.37303   0.00000  Uiso   1.00
H504   H     0.00265   0.47558   0.35996   0.00000  Uiso   1.00
H505   H     0.28205   0.49882   0.41398   0.00000  Uiso   1.00
H506   H     0.32269   0.46564   0.43931   0.00000  Uiso   1.00
H507   H     0.27381   0.43775   0.42751   0.00000  Uiso   1.00
H508   H     0.06853   0.63271   0.28077   0.00000  Uiso   1.00
H509   H     0.06022   0.57737   0.30560   0.00000  Uiso   1.00
H510   H     0.18030   0.42448   0.46820   0.00000  Uiso   1.00
H511   H     0.32208   0.64137   0.27835   0.00000  Uiso   1.00
H512   H     0.31994   0.59130   0.31348   0.00000  Uiso   1.00
H513   H     0.02993   0.63224   0.36923   0.00000  Uiso   1.00
H514   H     0.31874   0.66653   0.35519   0.00000  Uiso   1.00
H515   H     0.03494   0.34932   0.33379   0.00000  Uiso   1.00
H516   H     0.14605   0.57003   0.47012   0.00000  Uiso   1.00
H517   H     0.14864   0.42440   0.03138   0.00000  Uiso   1.00
H518   H     0.13891   0.63776   0.13505   0.00000  Uiso   1.00
N519   N     0.16667   0.61736   0.25000   0.00000  Uiso   1.00
N520   N     0.16667   0.38264   0.25000   0.00000  Uiso   1.00
O521   O     0.10655   0.53958   0.25000   0.00000  Uiso   1.00
O522   O     0.17198   0.41341   0.38514   0.00000  Uiso   1.00
O523   O     0.15706   0.58450   0.38831   0.00000  Uiso   1.00
O524   O     0.16024   0.41339   0.11408   0.00000  Uiso   1.00
O525   O     0.03701   0.41660   0.26934   0.00000  Uiso   1.00
O526   O     0.29339   0.57498   0.21157   0.00000  Uiso   1.00
O527   O     0.29107   0.42931   0.29593   0.00000  Uiso   1.00
O528   O     0.03990   0.58519   0.23991   0.00000  Uiso   1.00
O529   O     0.22679   0.46042   0.25001   0.00000  Uiso   1.00
O530   O     0.22679   0.53958   0.25001   0.00000  Uiso   1.00
O531   O     0.10655   0.46042   0.25000   0.00000  Uiso   1.00
O532   O     0.16666   0.53959   0.18573   0.00000  Uiso   1.00
O533   O     0.16667   0.46041   0.31427   0.00000  Uiso   1.00
O534   O     0.16667   0.53959   0.31427   0.00000  Uiso   1.00
O535   O     0.16666   0.46041   0.18573   0.00000  Uiso   1.00
O536   O     0.17428   0.58491   0.11180   0.00000  Uiso   1.00
C537   C     0.42054   0.49989   0.25082   0.00000  Uiso   1.00
C538   C     0.64552   0.53876   0.23401   0.00000  Uiso   1.00
C539   C     0.64447   0.46448   0.27300   0.00000  Uiso   1.00
C540   C     0.35409   0.54184   0.24262   0.00000  Uiso   1.00
C541   C     0.50819   0.53891   0.04695   0.00000  Uiso   1.00
C542   C     0.50559   0.45667   0.45188   0.00000  Uiso   1.00
C543   C     0.48835   0.53855   0.45296   0.00000  Uiso   1.00
C544   C     0.49049   0.45680   0.04777   0.00000  Uiso   1.00
C545   C     0.50432   0.54123   0.09222   0.00000  Uiso   1.00
C546   C     0.50224   0.45617   0.40640   0.00000  Uiso   1.00
C547   C     0.49338   0.54103   0.40784   0.00000  Uiso   1.00
C548   C     0.57907   0.50031   0.25091   0.00000  Uiso   1.00
C549   C     0.49536   0.45626   0.09314   0.00000  Uiso   1.00
C550   C     0.49990   0.49923   0.11644   0.00000  Uiso   1.00
C551   C     0.49862   0.49921   0.38345   0.00000  Uiso   1.00
C552   C     0.49860   0.49761   0.02407   0.00000  Uiso   1.00
C553   C     0.49732   0.49744   0.47571   0.00000  Uiso   1.00
C554   C     0.62340   0.50119   0.25252   0.00000  Uiso   1.00
C555   C     0.37559   0.50034   0.25256   0.00000  Uiso   1.00
C556   C     0.46798   0.60471   0.11627   0.00000  Uiso   1.00
C557   C     0.44707   0.61694   0.07233   0.00000  Uiso   1.00
C558   C     0.41108   0.64996   0.07915   0.00000  Uiso   1.00
C559   C     0.50005   0.49986   0.16486   0.00000  Uiso   1.00
C560   C     0.46536   0.39494   0.37647   0.00000  Uiso   1.00
C561   C     0.44814   0.36741   0.41573   0.00000  Uiso   1.00
C562   C     0.41311   0.39304   0.43826   0.00000  Uiso   1.00
C563   C     0.52993   0.60588   0.38622   0.00000  Uiso   1.00
C564   C     0.54646   0.62231   0.43128   0.00000  Uiso   1.00
C565   C     0.58273   0.65614   0.42666   0.00000  Uiso   1.00
C566   C     0.53379   0.39485   0.11760   0.00000  Uiso   1.00
C567   C     0.54775   0.37230   0.07435   0.00000  Uiso   1.00
C568   C     0.58585   0.34246   0.08065   0.00000  Uiso   1.00
C569   C     0.37059   0.39389   0.22781   0.00000  Uiso   1.00
C570   C     0.49970   0.49995   0.33510   0.00000  Uiso   1.00
C571   C     0.66074   0.38207   0.20952   0.00000  Uiso   1.00
C572   C     0.66293   0.34631   0.17252   0.00000  Uiso   1.00
C573   C     0.61216   0.55892   0.17006   0.00000  Uiso   1.00
C574   C     0.64683   0.55522   0.13643   0.00000  Uiso   1.00
C575   C     0.63005   0.53945   0.09181   0.00000  Uiso   1.00
C576   C     0.61073   0.44690   0.33682   0.00000  Uiso   1.00
C577   C     0.64582   0.44956   0.37056   0.00000  Uiso   1.00
C578   C     0.62998   0.46384   0.41561   0.00000  Uiso   1.00
C579   C     0.37944   0.60331   0.28299   0.00000  Uiso   1.00
C580   C     0.33947   0.62137   0.30308   0.00000  Uiso   1.00
C581   C     0.47284   0.35767   0.22459   0.00000  Uiso   1.00
C582   C     0.34815   0.65261   0.34282   0.00000  Uiso   1.00
C583   C     0.52854   0.64230   0.27376   0.00000  Uiso   1.00
C584   C     0.52808   0.35856   0.27438   0.00000  Uiso   1.00
C585   C     0.47200   0.64145   0.22563   0.00000  Uiso   1.00
C586   C     0.35285   0.46012   0.26469   0.00000  Uiso   1.00
Cu587  Cu    0.50000   0.54689   0.25000   0.00000  Uiso   1.00
Cu588  Cu    0.50000   0.45311   0.25000   0.00000  Uiso   1.00
H589   H     0.45202   0.37598   0.20319   0.00000  Uiso   1.00
H590   H     0.44727   0.58157   0.13564   0.00000  Uiso   1.00
H591   H     0.46936   0.63376   0.04993   0.00000  Uiso   1.00
H592   H     0.43512   0.58444   0.05635   0.00000  Uiso   1.00
H593   H     0.38813   0.63368   0.10126   0.00000  Uiso   1.00
H594   H     0.39602   0.65720   0.04715   0.00000  Uiso   1.00
H595   H     0.42201   0.35036   0.09360   0.00000  Uiso   1.00
H596   H     0.46815   0.37007   0.34857   0.00000  Uiso   1.00
H597   H     0.44339   0.42205   0.36480   0.00000  Uiso   1.00
H598   H     0.43628   0.66609   0.40422   0.00000  Uiso   1.00
H599   H     0.47269   0.36079   0.44016   0.00000  Uiso   1.00
H600   H     0.55168   0.62396   0.29238   0.00000  Uiso   1.00
H601   H     0.42333   0.42820   0.44985   0.00000  Uiso   1.00
H602   H     0.40254   0.37246   0.46691   0.00000  Uiso   1.00
H603   H     0.38690   0.39700   0.41520   0.00000  Uiso   1.00
H604   H     0.52678   0.63723   0.36520   0.00000  Uiso   1.00
H605   H     0.55262   0.58254   0.37012   0.00000  Uiso   1.00
H606   H     0.52186   0.63982   0.44993   0.00000  Uiso   1.00
H607   H     0.55705   0.59168   0.45046   0.00000  Uiso   1.00
H608   H     0.60866   0.63805   0.41064   0.00000  Uiso   1.00
H609   H     0.59299   0.33503   0.45961   0.00000  Uiso   1.00
H610   H     0.57384   0.35380   0.40701   0.00000  Uiso   1.00
H611   H     0.55043   0.37750   0.29407   0.00000  Uiso   1.00
H612   H     0.53291   0.36746   0.14333   0.00000  Uiso   1.00
H613   H     0.55680   0.42163   0.12893   0.00000  Uiso   1.00
H614   H     0.52269   0.35002   0.06071   0.00000  Uiso   1.00
H615   H     0.55520   0.39994   0.05010   0.00000  Uiso   1.00
H616   H     0.61206   0.36477   0.09186   0.00000  Uiso   1.00
H617   H     0.59411   0.65914   0.04900   0.00000  Uiso   1.00
H618   H     0.57984   0.64776   0.10489   0.00000  Uiso   1.00
H619   H     0.38729   0.36067   0.23223   0.00000  Uiso   1.00
H620   H     0.38776   0.41483   0.20314   0.00000  Uiso   1.00
H621   H     0.64083   0.36795   0.23569   0.00000  Uiso   1.00
H622   H     0.44904   0.62245   0.20676   0.00000  Uiso   1.00
H623   H     0.64617   0.41418   0.19640   0.00000  Uiso   1.00
H624   H     0.34503   0.36193   0.14365   0.00000  Uiso   1.00
H625   H     0.63136   0.33502   0.16317   0.00000  Uiso   1.00
H626   H     0.34686   0.64844   0.18334   0.00000  Uiso   1.00
H627   H     0.58944   0.58469   0.15804   0.00000  Uiso   1.00
H628   H     0.59543   0.52481   0.17169   0.00000  Uiso   1.00
H629   H     0.66228   0.58970   0.13268   0.00000  Uiso   1.00
H630   H     0.33663   0.52950   0.14772   0.00000  Uiso   1.00
H631   H     0.61513   0.50438   0.09436   0.00000  Uiso   1.00
H632   H     0.65566   0.53723   0.06807   0.00000  Uiso   1.00
H633   H     0.51684   0.57060   0.02990   0.00000  Uiso   1.00
H634   H     0.60726   0.56493   0.07931   0.00000  Uiso   1.00
H635   H     0.58693   0.42228   0.34919   0.00000  Uiso   1.00
H636   H     0.59568   0.48164   0.33417   0.00000  Uiso   1.00
H637   H     0.66055   0.41485   0.37303   0.00000  Uiso   1.00
H638   H     0.33599   0.47558   0.35996   0.00000  Uiso   1.00
H639   H     0.61539   0.49882   0.41398   0.00000  Uiso   1.00
H640   H     0.65603   0.46564   0.43931   0.00000  Uiso   1.00
H641   H     0.60714   0.43775   0.42751   0.00000  Uiso   1.00
H642   H     0.40186   0.63271   0.28077   0.00000  Uiso   1.00
H643   H     0.39356   0.57737   0.30560   0.00000  Uiso   1.00
H644   H     0.51364   0.42448   0.46820   0.00000  Uiso   1.00
H645   H     0.65541   0.64137   0.27835   0.00000  Uiso   1.00
H646   H     0.65328   0.59130   0.31348   0.00000  Uiso   1.00
H647   H     0.36326   0.63224   0.36923   0.00000  Uiso   1.00
H648   H     0.65208   0.66653   0.35519   0.00000  Uiso   1.00
H649   H     0.36827   0.34932   0.33379   0.00000  Uiso   1.00
H650   H     0.47939   0.57003   0.47012   0.00000  Uiso   1.00
H651   H     0.48197   0.42440   0.03138   0.00000  Uiso   1.00
H652   H     0.47225   0.63776   0.13505   0.00000  Uiso   1.00
N653   N     0.50000   0.61736   0.25000   0.00000  Uiso   1.00
N654   N     0.50000   0.38264   0.25000   0.00000  Uiso   1.00
O655   O     0.43988   0.53958   0.25000   0.00000  Uiso   1.00
O656   O     0.50532   0.41341   0.38514   0.00000  Uiso   1.00
O657   O     0.49040   0.58450   0.38831   0.00000  Uiso   1.00
O658   O     0.49357   0.41339   0.11408   0.00000  Uiso   1.00
O659   O     0.37034   0.41660   0.26934   0.00000  Uiso   1.00
O660   O     0.62672   0.57498   0.21157   0.00000  Uiso   1.00
O661   O     0.62440   0.42931   0.29593   0.00000  Uiso   1.00
O662   O     0.37324   0.58519   0.23991   0.00000  Uiso   1.00
O663   O     0.56012   0.46042   0.25001   0.00000  Uiso   1.00
O664   O     0.56012   0.53958   0.25001   0.00000  Uiso   1.00
O665   O     0.43988   0.46042   0.25000   0.00000  Uiso   1.00
O666   O     0.50000   0.53959   0.18573   0.00000  Uiso   1.00
O667   O     0.50000   0.46041   0.31427   0.00000  Uiso   1.00
O668   O     0.50000   0.53959   0.31427   0.00000  Uiso   1.00
O669   O     0.50000   0.46041   0.18573   0.00000  Uiso   1.00
O670   O     0.50761   0.58491   0.11180   0.00000  Uiso   1.00
C671   C     0.75387   0.49989   0.25082   0.00000  Uiso   1.00
C672   C     0.97885   0.53876   0.23401   0.00000  Uiso   1.00
C673   C     0.97780   0.46448   0.27300   0.00000  Uiso   1.00
C674   C     0.68742   0.54184   0.24262   0.00000  Uiso   1.00
C675   C     0.84152   0.53891   0.04695   0.00000  Uiso   1.00
C676   C     0.83892   0.45667   0.45188   0.00000  Uiso   1.00
C677   C     0.82168   0.53855   0.45296   0.00000  Uiso   1.00
C678   C     0.82382   0.45680   0.04777   0.00000  Uiso   1.00
C679   C     0.83766   0.54123   0.09222   0.00000  Uiso   1.00
C680   C     0.83557   0.45617   0.40640   0.00000  Uiso   1.00
C681   C     0.82671   0.54103   0.40784   0.00000  Uiso   1.00
C682   C     0.91241   0.50031   0.25091   0.00000  Uiso   1.00
C683   C     0.82869   0.45626   0.09314   0.00000  Uiso   1.00
C684   C     0.83323   0.49923   0.11644   0.00000  Uiso   1.00
C685   C     0.83196   0.49921   0.38345   0.00000  Uiso   1.00
C686   C     0.83194   0.49761   0.02407   0.00000  Uiso   1.00
C687   C     0.83065   0.49744   0.47571   0.00000  Uiso   1.00
C688   C     0.95673   0.50119   0.25252   0.00000  Uiso   1.00
C689   C     0.70892   0.50034   0.25256   0.00000  Uiso   1.00
C690   C     0.80132   0.60471   0.11627   0.00000  Uiso   1.00
C691   C     0.78040   0.61694   0.07233   0.00000  Uiso   1.00
C692   C     0.74441   0.64996   0.07915   0.00000  Uiso   1.00
C693   C     0.83339   0.49986   0.16486   0.00000  Uiso   1.00
C694   C     0.79869   0.39494   0.37647   0.00000  Uiso   1.00
C695   C     0.78147   0.36741   0.41573   0.00000  Uiso   1.00
C696   C     0.74645   0.39304   0.43826   0.00000  Uiso   1.00
C697   C     0.86327   0.60588   0.38622   0.00000  Uiso   1.00
C698   C     0.87979   0.62231   0.43128   0.00000  Uiso   1.00
C699   C     0.91607   0.65614   0.42666   0.00000  Uiso   1.00
C700   C     0.86712   0.39485   0.11760   0.00000  Uiso   1.00
C701   C     0.88108   0.37230   0.07435   0.00000  Uiso   1.00
C702   C     0.91918   0.34246   0.08065   0.00000  Uiso   1.00
C703   C     0.70392   0.39389   0.22781   0.00000  Uiso   1.00
C704   C     0.83303   0.49995   0.33510   0.00000  Uiso   1.00
C705   C     0.99407   0.38207   0.20952   0.00000  Uiso   1.00
C706   C     0.99627   0.34631   0.17252   0.00000  Uiso   1.00
C707   C     0.94549   0.55892   0.17006   0.00000  Uiso   1.00
C708   C     0.98016   0.55522   0.13643   0.00000  Uiso   1.00
C709   C     0.96339   0.53945   0.09181   0.00000  Uiso   1.00
C710   C     0.94406   0.44690   0.33682   0.00000  Uiso   1.00
C711   C     0.97915   0.44956   0.37056   0.00000  Uiso   1.00
C712   C     0.96332   0.46384   0.41561   0.00000  Uiso   1.00
C713   C     0.71277   0.60331   0.28299   0.00000  Uiso   1.00
C714   C     0.67280   0.62137   0.30308   0.00000  Uiso   1.00
C715   C     0.80617   0.35767   0.22459   0.00000  Uiso   1.00
C716   C     0.68148   0.65261   0.34282   0.00000  Uiso   1.00
C717   C     0.86187   0.64230   0.27376   0.00000  Uiso   1.00
C718   C     0.86141   0.35856   0.27438   0.00000  Uiso   1.00
C719   C     0.80533   0.64145   0.22563   0.00000  Uiso   1.00
C720   C     0.68618   0.46012   0.26469   0.00000  Uiso   1.00
Cu721  Cu    0.83333   0.54689   0.25000   0.00000  Uiso   1.00
Cu722  Cu    0.83333   0.45311   0.25000   0.00000  Uiso   1.00
H723   H     0.78535   0.37598   0.20319   0.00000  Uiso   1.00
H724   H     0.78060   0.58157   0.13564   0.00000  Uiso   1.00
H725   H     0.80269   0.63376   0.04993   0.00000  Uiso   1.00
H726   H     0.76845   0.58444   0.05635   0.00000  Uiso   1.00
H727   H     0.72147   0.63368   0.10126   0.00000  Uiso   1.00
H728   H     0.72935   0.65720   0.04715   0.00000  Uiso   1.00
H729   H     0.75535   0.35036   0.09360   0.00000  Uiso   1.00
H730   H     0.80148   0.37007   0.34857   0.00000  Uiso   1.00
H731   H     0.77673   0.42205   0.36480   0.00000  Uiso   1.00
H732   H     0.76962   0.66609   0.40422   0.00000  Uiso   1.00
H733   H     0.80603   0.36079   0.44016   0.00000  Uiso   1.00
H734   H     0.88501   0.62396   0.29238   0.00000  Uiso   1.00
H735   H     0.75666   0.42820   0.44985   0.00000  Uiso   1.00
H736   H     0.73588   0.37246   0.46691   0.00000  Uiso   1.00
H737   H     0.72023   0.39700   0.41520   0.00000  Uiso   1.00
H738   H     0.86011   0.63723   0.36520   0.00000  Uiso   1.00
H739   H     0.88595   0.58254   0.37012   0.00000  Uiso   1.00
H740   H     0.85520   0.63982   0.44993   0.00000  Uiso   1.00
H741   H     0.89038   0.59168   0.45046   0.00000  Uiso   1.00
H742   H     0.94199   0.63805   0.41064   0.00000  Uiso   1.00
H743   H     0.92633   0.33503   0.45961   0.00000  Uiso   1.00
H744   H     0.90717   0.35380   0.40701   0.00000  Uiso   1.00
H745   H     0.88376   0.37750   0.29407   0.00000  Uiso   1.00
H746   H     0.86624   0.36746   0.14333   0.00000  Uiso   1.00
H747   H     0.89014   0.42163   0.12893   0.00000  Uiso   1.00
H748   H     0.85602   0.35002   0.06071   0.00000  Uiso   1.00
H749   H     0.88853   0.39994   0.05010   0.00000  Uiso   1.00
H750   H     0.94539   0.36477   0.09186   0.00000  Uiso   1.00
H751   H     0.92745   0.65914   0.04900   0.00000  Uiso   1.00
H752   H     0.91317   0.64776   0.10489   0.00000  Uiso   1.00
H753   H     0.72063   0.36067   0.23223   0.00000  Uiso   1.00
H754   H     0.72110   0.41483   0.20314   0.00000  Uiso   1.00
H755   H     0.97417   0.36795   0.23569   0.00000  Uiso   1.00
H756   H     0.78237   0.62245   0.20676   0.00000  Uiso   1.00
H757   H     0.97950   0.41418   0.19640   0.00000  Uiso   1.00
H758   H     0.67837   0.36193   0.14365   0.00000  Uiso   1.00
H759   H     0.96469   0.33502   0.16317   0.00000  Uiso   1.00
H760   H     0.68020   0.64844   0.18334   0.00000  Uiso   1.00
H761   H     0.92278   0.58469   0.15804   0.00000  Uiso   1.00
H762   H     0.92876   0.52481   0.17169   0.00000  Uiso   1.00
H763   H     0.99562   0.58970   0.13268   0.00000  Uiso   1.00
H764   H     0.66996   0.52950   0.14772   0.00000  Uiso   1.00
H765   H     0.94846   0.50438   0.09436   0.00000  Uiso   1.00
H766   H     0.98899   0.53723   0.06807   0.00000  Uiso   1.00
H767   H     0.85017   0.57060   0.02990   0.00000  Uiso   1.00
H768   H     0.94059   0.56493   0.07931   0.00000  Uiso   1.00
H769   H     0.92026   0.42228   0.34919   0.00000  Uiso   1.00
H770   H     0.92901   0.48164   0.33417   0.00000  Uiso   1.00
H771   H     0.99388   0.41485   0.37303   0.00000  Uiso   1.00
H772   H     0.66932   0.47558   0.35996   0.00000  Uiso   1.00
H773   H     0.94872   0.49882   0.41398   0.00000  Uiso   1.00
H774   H     0.98936   0.46564   0.43931   0.00000  Uiso   1.00
H775   H     0.94047   0.43775   0.42751   0.00000  Uiso   1.00
H776   H     0.73520   0.63271   0.28077   0.00000  Uiso   1.00
H777   H     0.72689   0.57737   0.30560   0.00000  Uiso   1.00
H778   H     0.84697   0.42448   0.46820   0.00000  Uiso   1.00
H779   H     0.98875   0.64137   0.27835   0.00000  Uiso   1.00
H780   H     0.98661   0.59130   0.31348   0.00000  Uiso   1.00
H781   H     0.69659   0.63224   0.36923   0.00000  Uiso   1.00
H782   H     0.98541   0.66653   0.35519   0.00000  Uiso   1.00
H783   H     0.70161   0.34932   0.33379   0.00000  Uiso   1.00
H784   H     0.81272   0.57003   0.47012   0.00000  Uiso   1.00
H785   H     0.81530   0.42440   0.03138   0.00000  Uiso   1.00
H786   H     0.80558   0.63776   0.13505   0.00000  Uiso   1.00
N787   N     0.83333   0.61736   0.25000   0.00000  Uiso   1.00
N788   N     0.83333   0.38264   0.25000   0.00000  Uiso   1.00
O789   O     0.77321   0.53958   0.25000   0.00000  Uiso   1.00
O790   O     0.83865   0.41341   0.38514   0.00000  Uiso   1.00
O791   O     0.82373   0.58450   0.38831   0.00000  Uiso   1.00
O792   O     0.82690   0.41339   0.11408   0.00000  Uiso   1.00
O793   O     0.70368   0.41660   0.26934   0.00000  Uiso   1.00
O794   O     0.96006   0.57498   0.21157   0.00000  Uiso   1.00
O795   O     0.95773   0.42931   0.29593   0.00000  Uiso   1.00
O796   O     0.70657   0.58519   0.23991   0.00000  Uiso   1.00
O797   O     0.89345   0.46042   0.25001   0.00000  Uiso   1.00
O798   O     0.89345   0.53958   0.25001   0.00000  Uiso   1.00
O799   O     0.77321   0.46042   0.25000   0.00000  Uiso   1.00
O800   O     0.83333   0.53959   0.18573   0.00000  Uiso   1.00
O801   O     0.83334   0.46041   0.31427   0.00000  Uiso   1.00
O802   O     0.83334   0.53959   0.31427   0.00000  Uiso   1.00
O803   O     0.83333   0.46041   0.18573   0.00000  Uiso   1.00
O804   O     0.84094   0.58491   0.11180   0.00000  Uiso   1.00
C805   C     0.08721   0.83323   0.25082   0.00000  Uiso   1.00
C806   C     0.31219   0.87209   0.23401   0.00000  Uiso   1.00
C807   C     0.31114   0.79782   0.27300   0.00000  Uiso   1.00
C808   C     0.02075   0.87517   0.24262   0.00000  Uiso   1.00
C809   C     0.17486   0.87224   0.04695   0.00000  Uiso   1.00
C810   C     0.17225   0.79001   0.45188   0.00000  Uiso   1.00
C811   C     0.15501   0.87189   0.45296   0.00000  Uiso   1.00
C812   C     0.15715   0.79014   0.04777   0.00000  Uiso   1.00
C813   C     0.17099   0.87457   0.09222   0.00000  Uiso   1.00
C814   C     0.16890   0.78950   0.40640   0.00000  Uiso   1.00
C815   C     0.16004   0.87436   0.40784   0.00000  Uiso   1.00
C816   C     0.24574   0.83364   0.25091   0.00000  Uiso   1.00
C817   C     0.16203   0.78960   0.09314   0.00000  Uiso   1.00
C818   C     0.16656   0.83256   0.11644   0.00000  Uiso   1.00
C819   C     0.16529   0.83254   0.38345   0.00000  Uiso   1.00
C820   C     0.16527   0.83094   0.02407   0.00000  Uiso   1.00
C821   C     0.16398   0.83077   0.47571   0.00000  Uiso   1.00
C822   C     0.29006   0.83453   0.25252   0.00000  Uiso   1.00
C823   C     0.04226   0.83367   0.25256   0.00000  Uiso   1.00
C824   C     0.13465   0.93804   0.11627   0.00000  Uiso   1.00
C825   C     0.11374   0.95027   0.07233   0.00000  Uiso   1.00
C826   C     0.07774   0.98329   0.07915   0.00000  Uiso   1.00
C827   C     0.16672   0.83319   0.16486   0.00000  Uiso   1.00
C828   C     0.13203   0.72827   0.37647   0.00000  Uiso   1.00
C829   C     0.11480   0.70074   0.41573   0.00000  Uiso   1.00
C830   C     0.07978   0.72637   0.43826   0.00000  Uiso   1.00
C831   C     0.19660   0.93921   0.38622   0.00000  Uiso   1.00
C832   C     0.21312   0.95564   0.43128   0.00000  Uiso   1.00
C833   C     0.24940   0.98947   0.42666   0.00000  Uiso   1.00
C834   C     0.20045   0.72819   0.11760   0.00000  Uiso   1.00
C835   C     0.21442   0.70564   0.07435   0.00000  Uiso   1.00
C836   C     0.25252   0.67580   0.08065   0.00000  Uiso   1.00
C837   C     0.03726   0.72723   0.22781   0.00000  Uiso   1.00
C838   C     0.16637   0.83329   0.33510   0.00000  Uiso   1.00
C839   C     0.32740   0.71540   0.20952   0.00000  Uiso   1.00
C840   C     0.32960   0.67965   0.17252   0.00000  Uiso   1.00
C841   C     0.27883   0.89225   0.17006   0.00000  Uiso   1.00
C842   C     0.31349   0.88856   0.13643   0.00000  Uiso   1.00
C843   C     0.29672   0.87279   0.09181   0.00000  Uiso   1.00
C844   C     0.27740   0.78024   0.33682   0.00000  Uiso   1.00
C845   C     0.31249   0.78289   0.37056   0.00000  Uiso   1.00
C846   C     0.29665   0.79718   0.41561   0.00000  Uiso   1.00
C847   C     0.04610   0.93665   0.28299   0.00000  Uiso   1.00
C848   C     0.00614   0.95471   0.30308   0.00000  Uiso   1.00
C849   C     0.13950   0.69100   0.22459   0.00000  Uiso   1.00
C850   C     0.01482   0.98594   0.34282   0.00000  Uiso   1.00
C851   C     0.19521   0.97563   0.27376   0.00000  Uiso   1.00
C852   C     0.19475   0.69189   0.27438   0.00000  Uiso   1.00
C853   C     0.13867   0.97478   0.22563   0.00000  Uiso   1.00
C854   C     0.01951   0.79345   0.26469   0.00000  Uiso   1.00
Cu855  Cu    0.16667   0.88022   0.25000   0.00000  Uiso   1.00
Cu856  Cu    0.16667   0.78645   0.25000   0.00000  Uiso   1.00
H857   H     0.11868   0.70932   0.20319   0.00000  Uiso   1.00
H858   H     0.11393   0.91490   0.13564   0.00000  Uiso   1.00
H859   H     0.13603   0.96709   0.04993   0.00000  Uiso   1.00
H860   H     0.10178   0.91778   0.05635   0.00000  Uiso   1.00
H861   H     0.05480   0.96702   0.10126   0.00000  Uiso   1.00
H862   H     0.06269   0.99054   0.04715   0.00000  Uiso   1.00
H863   H     0.08868   0.68369   0.09360   0.00000  Uiso   1.00
H864   H     0.13481   0.70340   0.34857   0.00000  Uiso   1.00
H865   H     0.11006   0.75538   0.36480   0.00000  Uiso   1.00
H866   H     0.10295   0.99943   0.40422   0.00000  Uiso   1.00
H867   H     0.13936   0.69412   0.44016   0.00000  Uiso   1.00
H868   H     0.21835   0.95729   0.29238   0.00000  Uiso   1.00
H869   H     0.09000   0.76153   0.44985   0.00000  Uiso   1.00
H870   H     0.06921   0.70580   0.46691   0.00000  Uiso   1.00
H871   H     0.05356   0.73033   0.41520   0.00000  Uiso   1.00
H872   H     0.19345   0.97057   0.36520   0.00000  Uiso   1.00
H873   H     0.21929   0.91587   0.37012   0.00000  Uiso   1.00
H874   H     0.18853   0.97315   0.44993   0.00000  Uiso   1.00
H875   H     0.22371   0.92501   0.45046   0.00000  Uiso   1.00
H876   H     0.27533   0.97139   0.41064   0.00000  Uiso   1.00
H877   H     0.25966   0.66837   0.45961   0.00000  Uiso   1.00
H878   H     0.24051   0.68713   0.40701   0.00000  Uiso   1.00
H879   H     0.21710   0.71084   0.29407   0.00000  Uiso   1.00
H880   H     0.19958   0.70079   0.14333   0.00000  Uiso   1.00
H881   H     0.22347   0.75496   0.12893   0.00000  Uiso   1.00
H882   H     0.18935   0.68335   0.06071   0.00000  Uiso   1.00
H883   H     0.22186   0.73327   0.05010   0.00000  Uiso   1.00
H884   H     0.27873   0.69810   0.09186   0.00000  Uiso   1.00
H885   H     0.26078   0.99247   0.04900   0.00000  Uiso   1.00
H886   H     0.24651   0.98109   0.10489   0.00000  Uiso   1.00
H887   H     0.05396   0.69401   0.23223   0.00000  Uiso   1.00
H888   H     0.05443   0.74816   0.20314   0.00000  Uiso   1.00
H889   H     0.30750   0.70129   0.23569   0.00000  Uiso   1.00
H890   H     0.11571   0.95579   0.20676   0.00000  Uiso   1.00
H891   H     0.31284   0.74752   0.19640   0.00000  Uiso   1.00
H892   H     0.01170   0.69526   0.14365   0.00000  Uiso   1.00
H893   H     0.29803   0.66836   0.16317   0.00000  Uiso   1.00
H894   H     0.01353   0.98177   0.18334   0.00000  Uiso   1.00
H895   H     0.25611   0.91802   0.15804   0.00000  Uiso   1.00
H896   H     0.26209   0.85814   0.17169   0.00000  Uiso   1.00
H897   H     0.32895   0.92303   0.13268   0.00000  Uiso   1.00
H898   H     0.00330   0.86283   0.14772   0.00000  Uiso   1.00
H899   H     0.28180   0.83771   0.09436   0.00000  Uiso   1.00
H900   H     0.32233   0.87056   0.06807   0.00000  Uiso   1.00
H901   H     0.18351   0.90394   0.02990   0.00000  Uiso   1.00
H902   H     0.27393   0.89826   0.07931   0.00000  Uiso   1.00
H903   H     0.25359   0.75561   0.34919   0.00000  Uiso   1.00
H904   H     0.26234   0.81497   0.33417   0.00000  Uiso   1.00
H905   H     0.32721   0.74819   0.37303   0.00000  Uiso   1.00
H906   H     0.00265   0.80891   0.35996   0.00000  Uiso   1.00
H907   H     0.28205   0.83215   0.41398   0.00000  Uiso   1.00
H908   H     0.32269   0.79897   0.43931   0.00000  Uiso   1.00
H909   H     0.27381   0.77108   0.42751   0.00000  Uiso   1.00
H910   H     0.06853   0.96605   0.28077   0.00000  Uiso   1.00
H911   H     0.06022   0.91070   0.30560   0.00000  Uiso   1.00
H912   H     0.18030   0.75781   0.46820   0.00000  Uiso   1.00
H913   H     0.32208   0.97471   0.27835   0.00000  Uiso   1.00
H914   H     0.31994   0.92463   0.31348   0.00000  Uiso   1.00
H915   H     0.02993   0.96557   0.36923   0.00000  Uiso   1.00
H916   H     0.31874   0.99986   0.35519   0.00000  Uiso   1.00
H917   H     0.03494   0.68265   0.33379   0.00000  Uiso   1.00
H918   H     0.14605   0.90336   0.47012   0.00000  Uiso   1.00
H919   H     0.14864   0.75774   0.03138   0.00000  Uiso   1.00
H920   H     0.13891   0.97110   0.13505   0.00000  Uiso   1.00
N921   N     0.16667   0.95069   0.25000   0.00000  Uiso   1.00
N922   N     0.16667   0.71598   0.25000   0.00000  Uiso   1.00
O923   O     0.10655   0.87291   0.25000   0.00000  Uiso   1.00
O924   O     0.17198   0.74675   0.38514   0.00000  Uiso   1.00
O925   O     0.15706   0.91784   0.38831   0.00000  Uiso   1.00
O926   O     0.16024   0.74672   0.11408   0.00000  Uiso   1.00
O927   O     0.03701   0.74993   0.26934   0.00000  Uiso   1.00
O928   O     0.29339   0.90832   0.21157   0.00000  Uiso   1.00
O929   O     0.29107   0.76264   0.29593   0.00000  Uiso   1.00
O930   O     0.03990   0.91852   0.23991   0.00000  Uiso   1.00
O931   O     0.22679   0.79375   0.25001   0.00000  Uiso   1.00
O932   O     0.22679   0.87291   0.25001   0.00000  Uiso   1.00
O933   O     0.10655   0.79375   0.25000   0.00000  Uiso   1.00
O934   O     0.16666   0.87293   0.18573   0.00000  Uiso   1.00
O935   O     0.16667   0.79374   0.31427   0.00000  Uiso   1.00
O936   O     0.16667   0.87293   0.31427   0.00000  Uiso   1.00
O937   O     0.16666   0.79374   0.18573   0.00000  Uiso   1.00
O938   O     0.17428   0.91824   0.11180   0.00000  Uiso   1.00
C939   C     0.42054   0.83323   0.25082   0.00000  Uiso   1.00
C940   C     0.64552   0.87209   0.23401   0.00000  Uiso   1.00
C941   C     0.64447   0.79782   0.27300   0.00000  Uiso   1.00
C942   C     0.35409   0.87517   0.24262   0.00000  Uiso   1.00
C943   C     0.50819   0.87224   0.04695   0.00000  Uiso   1.00
C944   C     0.50559   0.79001   0.45188   0.00000  Uiso   1.00
C945   C     0.48835   0.87189   0.45296   0.00000  Uiso   1.00
C946   C     0.49049   0.79014   0.04777   0.00000  Uiso   1.00
C947   C     0.50432   0.87457   0.09222   0.00000  Uiso   1.00
C948   C     0.50224   0.78950   0.40640   0.00000  Uiso   1.00
C949   C     0.49338   0.87436   0.40784   0.00000  Uiso   1.00
C950   C     0.57907   0.83364   0.25091   0.00000  Uiso   1.00
C951   C     0.49536   0.78960   0.09314   0.00000  Uiso   1.00
C952   C     0.49990   0.83256   0.11644   0.00000  Uiso   1.00
C953   C     0.49862   0.83254   0.38345   0.00000  Uiso   1.00
C954   C     0.49860   0.83094   0.02407   0.00000  Uiso   1.00
C955   C     0.49732   0.83077   0.47571   0.00000  Uiso   1.00
C956   C     0.62340   0.83453   0.25252   0.00000  Uiso   1.00
C957   C     0.37559   0.83367   0.25256   0.00000  Uiso   1.00
C958   C     0.46798   0.93804   0.11627   0.00000  Uiso   1.00
C959   C     0.44707   0.95027   0.07233   0.00000  Uiso   1.00
C960   C     0.41108   0.98329   0.07915   0.00000  Uiso   1.00
C961   C     0.50005   0.83319   0.16486   0.00000  Uiso   1.00
C962   C     0.46536   0.72827   0.37647   0.00000  Uiso   1.00
C963   C     0.44814   0.70074   0.41573   0.00000  Uiso   1.00
C964   C     0.41311   0.72637   0.43826   0.00000  Uiso   1.00
C965   C     0.52993   0.93921   0.38622   0.00000  Uiso   1.00
C966   C     0.54646   0.95564   0.43128   0.00000  Uiso   1.00
C967   C     0.58273   0.98947   0.42666   0.00000  Uiso   1.00
C968   C     0.53379   0.72819   0.11760   0.00000  Uiso   1.00
C969   C     0.54775   0.70564   0.07435   0.00000  Uiso   1.00
C970   C     0.58585   0.67580   0.08065   0.00000  Uiso   1.00
C971   C     0.37059   0.72723   0.22781   0.00000  Uiso   1.00
C972   C     0.49970   0.83329   0.33510   0.00000  Uiso   1.00
C973   C     0.66074   0.71540   0.20952   0.00000  Uiso   1.00
C974   C     0.66293   0.67965   0.17252   0.00000  Uiso   1.00
C975   C     0.61216   0.89225   0.17006   0.00000  Uiso   1.00
C976   C     0.64683   0.88856   0.13643   0.00000  Uiso   1.00
C977   C     0.63005   0.87279   0.09181   0.00000  Uiso   1.00
C978   C     0.61073   0.78024   0.33682   0.00000  Uiso   1.00
C979   C     0.64582   0.78289   0.37056   0.00000  Uiso   1.00
C980   C     0.62998   0.79718   0.41561   0.00000  Uiso   1.00
C981   C     0.37944   0.93665   0.28299   0.00000  Uiso   1.00
C982   C     0.33947   0.95471   0.30308   0.00000  Uiso   1.00
C983   C     0.47284   0.69100   0.22459   0.00000  Uiso   1.00
C984   C     0.34815   0.98594   0.34282   0.00000  Uiso   1.00
C985   C     0.52854   0.97563   0.27376   0.00000  Uiso   1.00
C986   C     0.52808   0.69189   0.27438   0.00000  Uiso   1.00
C987   C     0.47200   0.97478   0.22563   0.00000  Uiso   1.00
C988   C     0.35285   0.79345   0.26469   0.00000  Uiso   1.00
Cu989  Cu    0.50000   0.88022   0.25000   0.00000  Uiso   1.00
Cu990  Cu    0.50000   0.78645   0.25000   0.00000  Uiso   1.00
H991   H     0.45202   0.70932   0.20319   0.00000  Uiso   1.00
H992   H     0.44727   0.91490   0.13564   0.00000  Uiso   1.00
H993   H     0.46936   0.96709   0.04993   0.00000  Uiso   1.00
H994   H     0.43512   0.91778   0.05635   0.00000  Uiso   1.00
H995   H     0.38813   0.96702   0.10126   0.00000  Uiso   1.00
H996   H     0.39602   0.99054   0.04715   0.00000  Uiso   1.00
H997   H     0.42201   0.68369   0.09360   0.00000  Uiso   1.00
H998   H     0.46815   0.70340   0.34857   0.00000  Uiso   1.00
H999   H     0.44339   0.75538   0.36480   0.00000  Uiso   1.00
H1000  H     0.43628   0.99943   0.40422   0.00000  Uiso   1.00
H1001  H     0.47269   0.69412   0.44016   0.00000  Uiso   1.00
H1002  H     0.55168   0.95729   0.29238   0.00000  Uiso   1.00
H1003  H     0.42333   0.76153   0.44985   0.00000  Uiso   1.00
H1004  H     0.40254   0.70580   0.46691   0.00000  Uiso   1.00
H1005  H     0.38690   0.73033   0.41520   0.00000  Uiso   1.00
H1006  H     0.52678   0.97057   0.36520   0.00000  Uiso   1.00
H1007  H     0.55262   0.91587   0.37012   0.00000  Uiso   1.00
H1008  H     0.52186   0.97315   0.44993   0.00000  Uiso   1.00
H1009  H     0.55705   0.92501   0.45046   0.00000  Uiso   1.00
H1010  H     0.60866   0.97139   0.41064   0.00000  Uiso   1.00
H1011  H     0.59299   0.66837   0.45961   0.00000  Uiso   1.00
H1012  H     0.57384   0.68713   0.40701   0.00000  Uiso   1.00
H1013  H     0.55043   0.71084   0.29407   0.00000  Uiso   1.00
H1014  H     0.53291   0.70079   0.14333   0.00000  Uiso   1.00
H1015  H     0.55680   0.75496   0.12893   0.00000  Uiso   1.00
H1016  H     0.52269   0.68335   0.06071   0.00000  Uiso   1.00
H1017  H     0.55520   0.73327   0.05010   0.00000  Uiso   1.00
H1018  H     0.61206   0.69810   0.09186   0.00000  Uiso   1.00
H1019  H     0.59411   0.99247   0.04900   0.00000  Uiso   1.00
H1020  H     0.57984   0.98109   0.10489   0.00000  Uiso   1.00
H1021  H     0.38729   0.69401   0.23223   0.00000  Uiso   1.00
H1022  H     0.38776   0.74816   0.20314   0.00000  Uiso   1.00
H1023  H     0.64083   0.70129   0.23569   0.00000  Uiso   1.00
H1024  H     0.44904   0.95579   0.20676   0.00000  Uiso   1.00
H1025  H     0.64617   0.74752   0.19640   0.00000  Uiso   1.00
H1026  H     0.34503   0.69526   0.14365   0.00000  Uiso   1.00
H1027  H     0.63136   0.66836   0.16317   0.00000  Uiso   1.00
H1028  H     0.34686   0.98177   0.18334   0.00000  Uiso   1.00
H1029  H     0.58944   0.91802   0.15804   0.00000  Uiso   1.00
H1030  H     0.59543   0.85814   0.17169   0.00000  Uiso   1.00
H1031  H     0.66228   0.92303   0.13268   0.00000  Uiso   1.00
H1032  H     0.33663   0.86283   0.14772   0.00000  Uiso   1.00
H1033  H     0.61513   0.83771   0.09436   0.00000  Uiso   1.00
H1034  H     0.65566   0.87056   0.06807   0.00000  Uiso   1.00
H1035  H     0.51684   0.90394   0.02990   0.00000  Uiso   1.00
H1036  H     0.60726   0.89826   0.07931   0.00000  Uiso   1.00
H1037  H     0.58693   0.75561   0.34919   0.00000  Uiso   1.00
H1038  H     0.59568   0.81497   0.33417   0.00000  Uiso   1.00
H1039  H     0.66055   0.74819   0.37303   0.00000  Uiso   1.00
H1040  H     0.33599   0.80891   0.35996   0.00000  Uiso   1.00
H1041  H     0.61539   0.83215   0.41398   0.00000  Uiso   1.00
H1042  H     0.65603   0.79897   0.43931   0.00000  Uiso   1.00
H1043  H     0.60714   0.77108   0.42751   0.00000  Uiso   1.00
H1044  H     0.40186   0.96605   0.28077   0.00000  Uiso   1.00
H1045  H     0.39356   0.91070   0.30560   0.00000  Uiso   1.00
H1046  H     0.51364   0.75781   0.46820   0.00000  Uiso   1.00
H1047  H     0.65541   0.97471   0.27835   0.00000  Uiso   1.00
H1048  H     0.65328   0.92463   0.31348   0.00000  Uiso   1.00
H1049  H     0.36326   0.96557   0.36923   0.00000  Uiso   1.00
H1050  H     0.65208   0.99986   0.35519   0.00000  Uiso   1.00
H1051  H     0.36827   0.68265   0.33379   0.00000  Uiso   1.00
H1052  H     0.47939   0.90336   0.47012   0.00000  Uiso   1.00
H1053  H     0.48197   0.75774   0.03138   0.00000  Uiso   1.00
H1054  H     0.47225   0.97110   0.13505   0.00000  Uiso   1.00
N1055  N     0.50000   0.95069   0.25000   0.00000  Uiso   1.00
N1056  N     0.50000   0.71598   0.25000   0.00000  Uiso   1.00
O1057  O     0.43988   0.87291   0.25000   0.00000  Uiso   1.00
O1058  O     0.50532   0.74675   0.38514   0.00000  Uiso   1.00
O1059  O     0.49040   0.91784   0.38831   0.00000  Uiso   1.00
O1060  O     0.49357   0.74672   0.11408   0.00000  Uiso   1.00
O1061  O     0.37034   0.74993   0.26934   0.00000  Uiso   1.00
O1062  O     0.62672   0.90832   0.21157   0.00000  Uiso   1.00
O1063  O     0.62440   0.76264   0.29593   0.00000  Uiso   1.00
O1064  O     0.37324   0.91852   0.23991   0.00000  Uiso   1.00
O1065  O     0.56012   0.79375   0.25001   0.00000  Uiso   1.00
O1066  O     0.56012   0.87291   0.25001   0.00000  Uiso   1.00
O1067  O     0.43988   0.79375   0.25000   0.00000  Uiso   1.00
O1068  O     0.50000   0.87293   0.18573   0.00000  Uiso   1.00
O1069  O     0.50000   0.79374   0.31427   0.00000  Uiso   1.00
O1070  O     0.50000   0.87293   0.31427   0.00000  Uiso   1.00
O1071  O     0.50000   0.79374   0.18573   0.00000  Uiso   1.00
O1072  O     0.50761   0.91824   0.11180   0.00000  Uiso   1.00
C1073  C     0.75387   0.83323   0.25082   0.00000  Uiso   1.00
C1074  C     0.97885   0.87209   0.23401   0.00000  Uiso   1.00
C1075  C     0.97780   0.79782   0.27300   0.00000  Uiso   1.00
C1076  C     0.68742   0.87517   0.24262   0.00000  Uiso   1.00
C1077  C     0.84152   0.87224   0.04695   0.00000  Uiso   1.00
C1078  C     0.83892   0.79001   0.45188   0.00000  Uiso   1.00
C1079  C     0.82168   0.87189   0.45296   0.00000  Uiso   1.00
C1080  C     0.82382   0.79014   0.04777   0.00000  Uiso   1.00
C1081  C     0.83766   0.87457   0.09222   0.00000  Uiso   1.00
C1082  C     0.83557   0.78950   0.40640   0.00000  Uiso   1.00
C1083  C     0.82671   0.87436   0.40784   0.00000  Uiso   1.00
C1084  C     0.91241   0.83364   0.25091   0.00000  Uiso   1.00
C1085  C     0.82869   0.78960   0.09314   0.00000  Uiso   1.00
C1086  C     0.83323   0.83256   0.11644   0.00000  Uiso   1.00
C1087  C     0.83196   0.83254   0.38345   0.00000  Uiso   1.00
C1088  C     0.83194   0.83094   0.02407   0.00000  Uiso   1.00
C1089  C     0.83065   0.83077   0.47571   0.00000  Uiso   1.00
C1090  C     0.95673   0.83453   0.25252   0.00000  Uiso   1.00
C1091  C     0.70892   0.83367   0.25256   0.00000  Uiso   1.00
C1092  C     0.80132   0.93804   0.11627   0.00000  Uiso   1.00
C1093  C     0.78040   0.95027   0.07233   0.00000  Uiso   1.00
C1094  C     0.74441   0.98329   0.07915   0.00000  Uiso   1.00
C1095  C     0.83339   0.83319   0.16486   0.00000  Uiso   1.00
C1096  C     0.79869   0.72827   0.37647   0.00000  Uiso   1.00
C1097  C     0.78147   0.70074   0.41573   0.00000  Uiso   1.00
C1098  C     0.74645   0.72637   0.43826   0.00000  Uiso   1.00
C1099  C     0.86327   0.93921   0.38622   0.00000  Uiso   1.00
C1100  C     0.87979   0.95564   0.43128   0.00000  Uiso   1.00
C1101  C     0.91607   0.98947   0.42666   0.00000  Uiso   1.00
C1102  C     0.86712   0.72819   0.11760   0.00000  Uiso   1.00
C1103  C     0.88108   0.70564   0.07435   0.00000  Uiso   1.00
C1104  C     0.91918   0.67580   0.08065   0.00000  Uiso   1.00
C1105  C     0.70392   0.72723   0.22781   0.00000  Uiso   1.00
C1106  C     0.83303   0.83329   0.33510   0.00000  Uiso   1.00
C1107  C     0.99407   0.71540   0.20952   0.00000  Uiso   1.00
C1108  C     0.99627   0.67965   0.17252   0.00000  Uiso   1.00
C1109  C     0.94549   0.89225   0.17006   0.00000  Uiso   1.00
C1110  C     0.98016   0.88856   0.13643   0.00000  Uiso   1.00
C1111  C     0.96339   0.87279   0.09181   0.00000  Uiso   1.00
C1112  C     0.94406   0.78024   0.33682   0.00000  Uiso   1.00
C1113  C     0.97915   0.78289   0.37056   0.00000  Uiso   1.00
C1114  C     0.96332   0.79718   0.41561   0.00000  Uiso   1.00
C1115  C     0.71277   0.93665   0.28299   0.00000  Uiso   1.00
C1116  C     0.67280   0.95471   0.30308   0.00000  Uiso   1.00
C1117  C     0.80617   0.69100   0.22459   0.00000  Uiso   1.00
C1118  C     0.68148   0.98594   0.34282   0.00000  Uiso   1.00
C1119  C     0.86187   0.97563   0.27376   0.00000  Uiso   1.00
C1120  C     0.86141   0.69189   0.27438   0.00000  Uiso   1.00
C1121  C     0.80533   0.97478   0.22563   0.00000  Uiso   1.00
C1122  C     0.68618   0.79345   0.26469   0.00000  Uiso   1.00
Cu1123 Cu    0.83333   0.88022   0.25000   0.00000  Uiso   1.00
Cu1124 Cu    0.83333   0.78645   0.25000   0.00000  Uiso   1.00
H1125  H     0.78535   0.70932   0.20319   0.00000  Uiso   1.00
H1126  H     0.78060   0.91490   0.13564   0.00000  Uiso   1.00
H1127  H     0.80269   0.96709   0.04993   0.00000  Uiso   1.00
H1128  H     0.76845   0.91778   0.05635   0.00000  Uiso   1.00
H1129  H     0.72147   0.96702   0.10126   0.00000  Uiso   1.00
H1130  H     0.72935   0.99054   0.04715   0.00000  Uiso   1.00
H1131  H     0.75535   0.68369   0.09360   0.00000  Uiso   1.00
H1132  H     0.80148   0.70340   0.34857   0.00000  Uiso   1.00
H1133  H     0.77673   0.75538   0.36480   0.00000  Uiso   1.00
H1134  H     0.76962   0.99943   0.40422   0.00000  Uiso   1.00
H1135  H     0.80603   0.69412   0.44016   0.00000  Uiso   1.00
H1136  H     0.88501   0.95729   0.29238   0.00000  Uiso   1.00
H1137  H     0.75666   0.76153   0.44985   0.00000  Uiso   1.00
H1138  H     0.73588   0.70580   0.46691   0.00000  Uiso   1.00
H1139  H     0.72023   0.73033   0.41520   0.00000  Uiso   1.00
H1140  H     0.86011   0.97057   0.36520   0.00000  Uiso   1.00
H1141  H     0.88595   0.91587   0.37012   0.00000  Uiso   1.00
H1142  H     0.85520   0.97315   0.44993   0.00000  Uiso   1.00
H1143  H     0.89038   0.92501   0.45046   0.00000  Uiso   1.00
H1144  H     0.94199   0.97139   0.41064   0.00000  Uiso   1.00
H1145  H     0.92633   0.66837   0.45961   0.00000  Uiso   1.00
H1146  H     0.90717   0.68713   0.40701   0.00000  Uiso   1.00
H1147  H     0.88376   0.71084   0.29407   0.00000  Uiso   1.00
H1148  H     0.86624   0.70079   0.14333   0.00000  Uiso   1.00
H1149  H     0.89014   0.75496   0.12893   0.00000  Uiso   1.00
H1150  H     0.85602   0.68335   0.06071   0.00000  Uiso   1.00
H1151  H     0.88853   0.73327   0.05010   0.00000  Uiso   1.00
H1152  H     0.94539   0.69810   0.09186   0.00000  Uiso   1.00
H1153  H     0.92745   0.99247   0.04900   0.00000  Uiso   1.00
H1154  H     0.91317   0.98109   0.10489   0.00000  Uiso   1.00
H1155  H     0.72063   0.69401   0.23223   0.00000  Uiso   1.00
H1156  H     0.72110   0.74816   0.20314   0.00000  Uiso   1.00
H1157  H     0.97417   0.70129   0.23569   0.00000  Uiso   1.00
H1158  H     0.78237   0.95579   0.20676   0.00000  Uiso   1.00
H1159  H     0.97950   0.74752   0.19640   0.00000  Uiso   1.00
H1160  H     0.67837   0.69526   0.14365   0.00000  Uiso   1.00
H1161  H     0.96469   0.66836   0.16317   0.00000  Uiso   1.00
H1162  H     0.68020   0.98177   0.18334   0.00000  Uiso   1.00
H1163  H     0.92278   0.91802   0.15804   0.00000  Uiso   1.00
H1164  H     0.92876   0.85814   0.17169   0.00000  Uiso   1.00
H1165  H     0.99562   0.92303   0.13268   0.00000  Uiso   1.00
H1166  H     0.66996   0.86283   0.14772   0.00000  Uiso   1.00
H1167  H     0.94846   0.83771   0.09436   0.00000  Uiso   1.00
H1168  H     0.98899   0.87056   0.06807   0.00000  Uiso   1.00
H1169  H     0.85017   0.90394   0.02990   0.00000  Uiso   1.00
H1170  H     0.94059   0.89826   0.07931   0.00000  Uiso   1.00
H1171  H     0.92026   0.75561   0.34919   0.00000  Uiso   1.00
H1172  H     0.92901   0.81497   0.33417   0.00000  Uiso   1.00
H1173  H     0.99388   0.74819   0.37303   0.00000  Uiso   1.00
H1174  H     0.66932   0.80891   0.35996   0.00000  Uiso   1.00
H1175  H     0.94872   0.83215   0.41398   0.00000  Uiso   1.00
H1176  H     0.98936   0.79897   0.43931   0.00000  Uiso   1.00
H1177  H     0.94047   0.77108   0.42751   0.00000  Uiso   1.00
H1178  H     0.73520   0.96605   0.28077   0.00000  Uiso   1.00
H1179  H     0.72689   0.91070   0.30560   0.00000  Uiso   1.00
H1180  H     0.84697   0.75781   0.46820   0.00000  Uiso   1.00
H1181  H     0.98875   0.97471   0.27835   0.00000  Uiso   1.00
H1182  H     0.98661   0.92463   0.31348   0.00000  Uiso   1.00
H1183  H     0.69659   0.96557   0.36923   0.00000  Uiso   1.00
H1184  H     0.98541   0.99986   0.35519   0.00000  Uiso   1.00
H1185  H     0.70161   0.68265   0.33379   0.00000  Uiso   1.00
H1186  H     0.81272   0.90336   0.47012   0.00000  Uiso   1.00
H1187  H     0.81530   0.75774   0.03138   0.00000  Uiso   1.00
H1188  H     0.80558   0.97110   0.13505   0.00000  Uiso   1.00
N1189  N     0.83333   0.95069   0.25000   0.00000  Uiso   1.00
N1190  N     0.83333   0.71598   0.25000   0.00000  Uiso   1.00
O1191  O     0.77321   0.87291   0.25000   0.00000  Uiso   1.00
O1192  O     0.83865   0.74675   0.38514   0.00000  Uiso   1.00
O1193  O     0.82373   0.91784   0.38831   0.00000  Uiso   1.00
O1194  O     0.82690   0.74672   0.11408   0.00000  Uiso   1.00
O1195  O     0.70368   0.74993   0.26934   0.00000  Uiso   1.00
O1196  O     0.96006   0.90832   0.21157   0.00000  Uiso   1.00
O1197  O     0.95773   0.76264   0.29593   0.00000  Uiso   1.00
O1198  O     0.70657   0.91852   0.23991   0.00000  Uiso   1.00
O1199  O     0.89345   0.79375   0.25001   0.00000  Uiso   1.00
O1200  O     0.89345   0.87291   0.25001   0.00000  Uiso   1.00
O1201  O     0.77321   0.79375   0.25000   0.00000  Uiso   1.00
O1202  O     0.83333   0.87293   0.18573   0.00000  Uiso   1.00
O1203  O     0.83334   0.79374   0.31427   0.00000  Uiso   1.00
O1204  O     0.83334   0.87293   0.31427   0.00000  Uiso   1.00
O1205  O     0.83333   0.79374   0.18573   0.00000  Uiso   1.00
O1206  O     0.84094   0.91824   0.11180   0.00000  Uiso   1.00
C1207  C     0.08721   0.16656   0.75082   0.00000  Uiso   1.00
C1208  C     0.31219   0.20542   0.73401   0.00000  Uiso   1.00
C1209  C     0.31114   0.13115   0.77300   0.00000  Uiso   1.00
C1210  C     0.02075   0.20851   0.74262   0.00000  Uiso   1.00
C1211  C     0.17486   0.20558   0.54695   0.00000  Uiso   1.00
C1212  C     0.17225   0.12334   0.95188   0.00000  Uiso   1.00
C1213  C     0.15501   0.20522   0.95296   0.00000  Uiso   1.00
C1214  C     0.15715   0.12347   0.54777   0.00000  Uiso   1.00
C1215  C     0.17099   0.20790   0.59222   0.00000  Uiso   1.00
C1216  C     0.16890   0.12284   0.90640   0.00000  Uiso   1.00
C1217  C     0.16004   0.20769   0.90784   0.00000  Uiso   1.00
C1218  C     0.24574   0.16697   0.75091   0.00000  Uiso   1.00
C1219  C     0.16203   0.12293   0.59314   0.00000  Uiso   1.00
C1220  C     0.16656   0.16589   0.61644   0.00000  Uiso   1.00
C1221  C     0.16529   0.16588   0.88345   0.00000  Uiso   1.00
C1222  C     0.16527   0.16428   0.52407   0.00000  Uiso   1.00
C1223  C     0.16398   0.16410   0.97571   0.00000  Uiso   1.00
C1224  C     0.29006   0.16786   0.75252   0.00000  Uiso   1.00
C1225  C     0.04226   0.16701   0.75256   0.00000  Uiso   1.00
C1226  C     0.13465   0.27137   0.61627   0.00000  Uiso   1.00
C1227  C     0.11374   0.28361   0.57233   0.00000  Uiso   1.00
C1228  C     0.07774   0.31663   0.57915   0.00000  Uiso   1.00
C1229  C     0.16672   0.16653   0.66486   0.00000  Uiso   1.00
C1230  C     0.13203   0.06161   0.87647   0.00000  Uiso   1.00
C1231  C     0.11480   0.03408   0.91573   0.00000  Uiso   1.00
C1232  C     0.07978   0.05970   0.93826   0.00000  Uiso   1.00
C1233  C     0.19660   0.27255   0.88622   0.00000  Uiso   1.00
C1234  C     0.21312   0.28898   0.93128   0.00000  Uiso   1.00
C1235  C     0.24940   0.32281   0.92666   0.00000  Uiso   1.00
C1236  C     0.20045   0.06152   0.61760   0.00000  Uiso   1.00
C1237  C     0.21442   0.03897   0.57435   0.00000  Uiso   1.00
C1238  C     0.25252   0.00913   0.58065   0.00000  Uiso   1.00
C1239  C     0.03726   0.06056   0.72781   0.00000  Uiso   1.00
C1240  C     0.16637   0.16662   0.83510   0.00000  Uiso   1.00
C1241  C     0.32740   0.04873   0.70952   0.00000  Uiso   1.00
C1242  C     0.32960   0.01298   0.67252   0.00000  Uiso   1.00
C1243  C     0.27883   0.22558   0.67006   0.00000  Uiso   1.00
C1244  C     0.31349   0.22189   0.63643   0.00000  Uiso   1.00
C1245  C     0.29672   0.20612   0.59181   0.00000  Uiso   1.00
C1246  C     0.27740   0.11357   0.83682   0.00000  Uiso   1.00
C1247  C     0.31249   0.11623   0.87056   0.00000  Uiso   1.00
C1248  C     0.29665   0.13051   0.91561   0.00000  Uiso   1.00
C1249  C     0.04610   0.26998   0.78299   0.00000  Uiso   1.00
C1250  C     0.00614   0.28804   0.80308   0.00000  Uiso   1.00
C1251  C     0.13950   0.02434   0.72459   0.00000  Uiso   1.00
C1252  C     0.01482   0.31928   0.84282   0.00000  Uiso   1.00
C1253  C     0.19521   0.30896   0.77376   0.00000  Uiso   1.00
C1254  C     0.19475   0.02522   0.77438   0.00000  Uiso   1.00
C1255  C     0.13867   0.30812   0.72563   0.00000  Uiso   1.00
C1256  C     0.01951   0.12678   0.76469   0.00000  Uiso   1.00
Cu1257 Cu    0.16667   0.21355   0.75000   0.00000  Uiso   1.00
Cu1258 Cu    0.16667   0.11978   0.75000   0.00000  Uiso   1.00
H1259  H     0.11868   0.04265   0.70319   0.00000  Uiso   1.00
H1260  H     0.11393   0.24824   0.63564   0.00000  Uiso   1.00
H1261  H     0.13603   0.30042   0.54993   0.00000  Uiso   1.00
H1262  H     0.10178   0.25111   0.55635   0.00000  Uiso   1.00
H1263  H     0.05480   0.30035   0.60126   0.00000  Uiso   1.00
H1264  H     0.06269   0.32387   0.54715   0.00000  Uiso   1.00
H1265  H     0.08868   0.01703   0.59360   0.00000  Uiso   1.00
H1266  H     0.13481   0.03674   0.84857   0.00000  Uiso   1.00
H1267  H     0.11006   0.08871   0.86480   0.00000  Uiso   1.00
H1268  H     0.10295   0.33276   0.90422   0.00000  Uiso   1.00
H1269  H     0.13936   0.02746   0.94016   0.00000  Uiso   1.00
H1270  H     0.21835   0.29063   0.79238   0.00000  Uiso   1.00
H1271  H     0.09000   0.09486   0.94985   0.00000  Uiso   1.00
H1272  H     0.06921   0.03913   0.96691   0.00000  Uiso   1.00
H1273  H     0.05356   0.06366   0.91520   0.00000  Uiso   1.00
H1274  H     0.19345   0.30390   0.86520   0.00000  Uiso   1.00
H1275  H     0.21929   0.24920   0.87012   0.00000  Uiso   1.00
H1276  H     0.18853   0.30649   0.94993   0.00000  Uiso   1.00
H1277  H     0.22371   0.25835   0.95046   0.00000  Uiso   1.00
H1278  H     0.27533   0.30472   0.91064   0.00000  Uiso   1.00
H1279  H     0.25966   0.00170   0.95961   0.00000  Uiso   1.00
H1280  H     0.24051   0.02046   0.90701   0.00000  Uiso   1.00
H1281  H     0.21710   0.04417   0.79407   0.00000  Uiso   1.00
H1282  H     0.19958   0.03412   0.64333   0.00000  Uiso   1.00
H1283  H     0.22347   0.08830   0.62893   0.00000  Uiso   1.00
H1284  H     0.18935   0.01669   0.56071   0.00000  Uiso   1.00
H1285  H     0.22186   0.06660   0.55010   0.00000  Uiso   1.00
H1286  H     0.27873   0.03144   0.59186   0.00000  Uiso   1.00
H1287  H     0.26078   0.32581   0.54900   0.00000  Uiso   1.00
H1288  H     0.24651   0.31442   0.60489   0.00000  Uiso   1.00
H1289  H     0.05396   0.02734   0.73223   0.00000  Uiso   1.00
H1290  H     0.05443   0.08149   0.70314   0.00000  Uiso   1.00
H1291  H     0.30750   0.03462   0.73569   0.00000  Uiso   1.00
H1292  H     0.11571   0.28912   0.70676   0.00000  Uiso   1.00
H1293  H     0.31284   0.08085   0.69640   0.00000  Uiso   1.00
H1294  H     0.01170   0.02859   0.64365   0.00000  Uiso   1.00
H1295  H     0.29803   0.00169   0.66317   0.00000  Uiso   1.00
H1296  H     0.01353   0.31511   0.68334   0.00000  Uiso   1.00
H1297  H     0.25611   0.25136   0.65804   0.00000  Uiso   1.00
H1298  H     0.26209   0.19148   0.67169   0.00000  Uiso   1.00
H1299  H     0.32895   0.25636   0.63268   0.00000  Uiso   1.00
H1300  H     0.00330   0.19617   0.64772   0.00000  Uiso   1.00
H1301  H     0.28180   0.17105   0.59436   0.00000  Uiso   1.00
H1302  H     0.32233   0.20390   0.56807   0.00000  Uiso   1.00
H1303  H     0.18351   0.23727   0.52990   0.00000  Uiso   1.00
H1304  H     0.27393   0.23160   0.57931   0.00000  Uiso   1.00
H1305  H     0.25359   0.08894   0.84919   0.00000  Uiso   1.00
H1306  H     0.26234   0.14831   0.83417   0.00000  Uiso   1.00
H1307  H     0.32721   0.08152   0.87303   0.00000  Uiso   1.00
H1308  H     0.00265   0.14224   0.85996   0.00000  Uiso   1.00
H1309  H     0.28205   0.16549   0.91398   0.00000  Uiso   1.00
H1310  H     0.32269   0.13230   0.93931   0.00000  Uiso   1.00
H1311  H     0.27381   0.10441   0.92751   0.00000  Uiso   1.00
H1312  H     0.06853   0.29938   0.78077   0.00000  Uiso   1.00
H1313  H     0.06022   0.24404   0.80560   0.00000  Uiso   1.00
H1314  H     0.18030   0.09115   0.96820   0.00000  Uiso   1.00
H1315  H     0.32208   0.30804   0.77835   0.00000  Uiso   1.00
H1316  H     0.31994   0.25797   0.81348   0.00000  Uiso   1.00
H1317  H     0.02993   0.29890   0.86923   0.00000  Uiso   1.00
H1318  H     0.31874   0.33319   0.85519   0.00000  Uiso   1.00
H1319  H     0.03494   0.01598   0.83379   0.00000  Uiso   1.00
H1320  H     0.14605   0.23670   0.97012   0.00000  Uiso   1.00
H1321  H     0.14864   0.09107   0.53138   0.00000  Uiso   1.00
H1322  H     0.13891   0.30443   0.63505   0.00000  Uiso   1.00
N1323  N     0.16667   0.28402   0.75000   0.00000  Uiso   1.00
N1324  N     0.16667   0.04931   0.75000   0.00000  Uiso   1.00
O1325  O     0.10655   0.20625   0.75000   0.00000  Uiso   1.00
O1326  O     0.17198   0.08008   0.88514   0.00000  Uiso   1.00
O1327  O     0.15706   0.25117   0.88831   0.00000  Uiso   1.00
O1328  O     0.16024   0.08005   0.61408   0.00000  Uiso   1.00
O1329  O     0.03701   0.08327   0.76934   0.00000  Uiso   1.00
O1330  O     0.29339   0.24165   0.71157   0.00000  Uiso   1.00
O1331  O     0.29107   0.09598   0.79593   0.00000  Uiso   1.00
O1332  O     0.03990   0.25186   0.73991   0.00000  Uiso   1.00
O1333  O     0.22679   0.12709   0.75001   0.00000  Uiso   1.00
O1334  O     0.22679   0.20625   0.75001   0.00000  Uiso   1.00
O1335  O     0.10655   0.12709   0.75000   0.00000  Uiso   1.00
O1336  O     0.16666   0.20626   0.68573   0.00000  Uiso   1.00
O1337  O     0.16667   0.12707   0.81427   0.00000  Uiso   1.00
O1338  O     0.16667   0.20626   0.81427   0.00000  Uiso   1.00
O1339  O     0.16666   0.12707   0.68573   0.00000  Uiso   1.00
O1340  O     0.17428   0.25158   0.61180   0.00000  Uiso   1.00
C1341  C     0.42054   0.16656   0.75082   0.00000  Uiso   1.00
C1342  C     0.64552   0.20542   0.73401   0.00000  Uiso   1.00
C1343  C     0.64447   0.13115   0.77300   0.00000  Uiso   1.00
C1344  C     0.35409   0.20851   0.74262   0.00000  Uiso   1.00
C1345  C     0.50819   0.20558   0.54695   0.00000  Uiso   1.00
C1346  C     0.50559   0.12334   0.95188   0.00000  Uiso   1.00
C1347  C     0.48835   0.20522   0.95296   0.00000  Uiso   1.00
C1348  C     0.49049   0.12347   0.54777   0.00000  Uiso   1.00
C1349  C     0.50432   0.20790   0.59222   0.00000  Uiso   1.00
C1350  C     0.50224   0.12284   0.90640   0.00000  Uiso   1.00
C1351  C     0.49338   0.20769   0.90784   0.00000  Uiso   1.00
C1352  C     0.57907   0.16697   0.75091   0.00000  Uiso   1.00
C1353  C     0.49536   0.12293   0.59314   0.00000  Uiso   1.00
C1354  C     0.49990   0.16589   0.61644   0.00000  Uiso   1.00
C1355  C     0.49862   0.16588   0.88345   0.00000  Uiso   1.00
C1356  C     0.49860   0.16428   0.52407   0.00000  Uiso   1.00
C1357  C     0.49732   0.16410   0.97571   0.00000  Uiso   1.00
C1358  C     0.62340   0.16786   0.75252   0.00000  Uiso   1.00
C1359  C     0.37559   0.16701   0.75256   0.00000  Uiso   1.00
C1360  C     0.46798   0.27137   0.61627   0.00000  Uiso   1.00
C1361  C     0.44707   0.28361   0.57233   0.00000  Uiso   1.00
C1362  C     0.41108   0.31663   0.57915   0.00000  Uiso   1.00
C1363  C     0.50005   0.16653   0.66486   0.00000  Uiso   1.00
C1364  C     0.46536   0.06161   0.87647   0.00000  Uiso   1.00
C1365  C     0.44814   0.03408   0.91573   0.00000  Uiso   1.00
C1366  C     0.41311   0.05970   0.93826   0.00000  Uiso   1.00
C1367  C     0.52993   0.27255   0.88622   0.00000  Uiso   1.00
C1368  C     0.54646   0.28898   0.93128   0.00000  Uiso   1.00
C1369  C     0.58273   0.32281   0.92666   0.00000  Uiso   1.00
C1370  C     0.53379   0.06152   0.61760   0.00000  Uiso   1.00
C1371  C     0.54775   0.03897   0.57435   0.00000  Uiso   1.00
C1372  C     0.58585   0.00913   0.58065   0.00000  Uiso   1.00
C1373  C     0.37059   0.06056   0.72781   0.00000  Uiso   1.00
C1374  C     0.49970   0.16662   0.83510   0.00000  Uiso   1.00
C1375  C     0.66074   0.04873   0.70952   0.00000  Uiso   1.00
C1376  C     0.66293   0.01298   0.67252   0.00000  Uiso   1.00
C1377  C     0.61216   0.22558   0.67006   0.00000  Uiso   1.00
C1378  C     0.64683   0.22189   0.63643   0.00000  Uiso   1.00
C1379  C     0.63005   0.20612   0.59181   0.00000  Uiso   1.00
C1380  C     0.61073   0.11357   0.83682   0.00000  Uiso   1.00
C1381  C     0.64582   0.11623   0.87056   0.00000  Uiso   1.00
C1382  C     0.62998   0.13051   0.91561   0.00000  Uiso   1.00
C1383  C     0.37944   0.26998   0.78299   0.00000  Uiso   1.00
C1384  C     0.33947   0.28804   0.80308   0.00000  Uiso   1.00
C1385  C     0.47284   0.02434   0.72459   0.00000  Uiso   1.00
C1386  C     0.34815   0.31928   0.84282   0.00000  Uiso   1.00
C1387  C     0.52854   0.30896   0.77376   0.00000  Uiso   1.00
C1388  C     0.52808   0.02522   0.77438   0.00000  Uiso   1.00
C1389  C     0.47200   0.30812   0.72563   0.00000  Uiso   1.00
C1390  C     0.35285   0.12678   0.76469   0.00000  Uiso   1.00
Cu1391 Cu    0.50000   0.21355   0.75000   0.00000  Uiso   1.00
Cu1392 Cu    0.50000   0.11978   0.75000   0.00000  Uiso   1.00
H1393  H     0.45202   0.04265   0.70319   0.00000  Uiso   1.00
H1394  H     0.44727   0.24824   0.63564   0.00000  Uiso   1.00
H1395  H     0.46936   0.30042   0.54993   0.00000  Uiso   1.00
H1396  H     0.43512   0.25111   0.55635   0.00000  Uiso   1.00
H1397  H     0.38813   0.30035   0.60126   0.00000  Uiso   1.00
H1398  H     0.39602   0.32387   0.54715   0.00000  Uiso   1.00
H1399  H     0.42201   0.01703   0.59360   0.00000  Uiso   1.00
H1400  H     0.46815   0.03674   0.84857   0.00000  Uiso   1.00
H1401  H     0.44339   0.08871   0.86480   0.00000  Uiso   1.00
H1402  H     0.43628   0.33276   0.90422   0.00000  Uiso   1.00
H1403  H     0.47269   0.02746   0.94016   0.00000  Uiso   1.00
H1404  H     0.55168   0.29063   0.79238   0.00000  Uiso   1.00
H1405  H     0.42333   0.09486   0.94985   0.00000  Uiso   1.00
H1406  H     0.40254   0.03913   0.96691   0.00000  Uiso   1.00
H1407  H     0.38690   0.06366   0.91520   0.00000  Uiso   1.00
H1408  H     0.52678   0.30390   0.86520   0.00000  Uiso   1.00
H1409  H     0.55262   0.24920   0.87012   0.00000  Uiso   1.00
H1410  H     0.52186   0.30649   0.94993   0.00000  Uiso   1.00
H1411  H     0.55705   0.25835   0.95046   0.00000  Uiso   1.00
H1412  H     0.60866   0.30472   0.91064   0.00000  Uiso   1.00
H1413  H     0.59299   0.00170   0.95961   0.00000  Uiso   1.00
H1414  H     0.57384   0.02046   0.90701   0.00000  Uiso   1.00
H1415  H     0.55043   0.04417   0.79407   0.00000  Uiso   1.00
H1416  H     0.53291   0.03412   0.64333   0.00000  Uiso   1.00
H1417  H     0.55680   0.08830   0.62893   0.00000  Uiso   1.00
H1418  H     0.52269   0.01669   0.56071   0.00000  Uiso   1.00
H1419  H     0.55520   0.06660   0.55010   0.00000  Uiso   1.00
H1420  H     0.61206   0.03144   0.59186   0.00000  Uiso   1.00
H1421  H     0.59411   0.32581   0.54900   0.00000  Uiso   1.00
H1422  H     0.57984   0.31442   0.60489   0.00000  Uiso   1.00
H1423  H     0.38729   0.02734   0.73223   0.00000  Uiso   1.00
H1424  H     0.38776   0.08149   0.70314   0.00000  Uiso   1.00
H1425  H     0.64083   0.03462   0.73569   0.00000  Uiso   1.00
H1426  H     0.44904   0.28912   0.70676   0.00000  Uiso   1.00
H1427  H     0.64617   0.08085   0.69640   0.00000  Uiso   1.00
H1428  H     0.34503   0.02859   0.64365   0.00000  Uiso   1.00
H1429  H     0.63136   0.00169   0.66317   0.00000  Uiso   1.00
H1430  H     0.34686   0.31511   0.68334   0.00000  Uiso   1.00
H1431  H     0.58944   0.25136   0.65804   0.00000  Uiso   1.00
H1432  H     0.59543   0.19148   0.67169   0.00000  Uiso   1.00
H1433  H     0.66228   0.25636   0.63268   0.00000  Uiso   1.00
H1434  H     0.33663   0.19617   0.64772   0.00000  Uiso   1.00
H1435  H     0.61513   0.17105   0.59436   0.00000  Uiso   1.00
H1436  H     0.65566   0.20390   0.56807   0.00000  Uiso   1.00
H1437  H     0.51684   0.23727   0.52990   0.00000  Uiso   1.00
H1438  H     0.60726   0.23160   0.57931   0.00000  Uiso   1.00
H1439  H     0.58693   0.08894   0.84919   0.00000  Uiso   1.00
H1440  H     0.59568   0.14831   0.83417   0.00000  Uiso   1.00
H1441  H     0.66055   0.08152   0.87303   0.00000  Uiso   1.00
H1442  H     0.33599   0.14224   0.85996   0.00000  Uiso   1.00
H1443  H     0.61539   0.16549   0.91398   0.00000  Uiso   1.00
H1444  H     0.65603   0.13230   0.93931   0.00000  Uiso   1.00
H1445  H     0.60714   0.10441   0.92751   0.00000  Uiso   1.00
H1446  H     0.40186   0.29938   0.78077   0.00000  Uiso   1.00
H1447  H     0.39356   0.24404   0.80560   0.00000  Uiso   1.00
H1448  H     0.51364   0.09115   0.96820   0.00000  Uiso   1.00
H1449  H     0.65541   0.30804   0.77835   0.00000  Uiso   1.00
H1450  H     0.65328   0.25797   0.81348   0.00000  Uiso   1.00
H1451  H     0.36326   0.29890   0.86923   0.00000  Uiso   1.00
H1452  H     0.65208   0.33319   0.85519   0.00000  Uiso   1.00
H1453  H     0.36827   0.01598   0.83379   0.00000  Uiso   1.00
H1454  H     0.47939   0.23670   0.97012   0.00000  Uiso   1.00
H1455  H     0.48197   0.09107   0.53138   0.00000  Uiso   1.00
H1456  H     0.47225   0.30443   0.63505   0.00000  Uiso   1.00
N1457  N     0.50000   0.28402   0.75000   0.00000  Uiso   1.00
N1458  N     0.50000   0.04931   0.75000   0.00000  Uiso   1.00
O1459  O     0.43988   0.20625   0.75000   0.00000  Uiso   1.00
O1460  O     0.50532   0.08008   0.88514   0.00000  Uiso   1.00
O1461  O     0.49040   0.25117   0.88831   0.00000  Uiso   1.00
O1462  O     0.49357   0.08005   0.61408   0.00000  Uiso   1.00
O1463  O     0.37034   0.08327   0.76934   0.00000  Uiso   1.00
O1464  O     0.62672   0.24165   0.71157   0.00000  Uiso   1.00
O1465  O     0.62440   0.09598   0.79593   0.00000  Uiso   1.00
O1466  O     0.37324   0.25186   0.73991   0.00000  Uiso   1.00
O1467  O     0.56012   0.12709   0.75001   0.00000  Uiso   1.00
O1468  O     0.56012   0.20625   0.75001   0.00000  Uiso   1.00
O1469  O     0.43988   0.12709   0.75000   0.00000  Uiso   1.00
O1470  O     0.50000   0.20626   0.68573   0.00000  Uiso   1.00
O1471  O     0.50000   0.12707   0.81427   0.00000  Uiso   1.00
O1472  O     0.50000   0.20626   0.81427   0.00000  Uiso   1.00
O1473  O     0.50000   0.12707   0.68573   0.00000  Uiso   1.00
O1474  O     0.50761   0.25158   0.61180   0.00000  Uiso   1.00
C1475  C     0.75387   0.16656   0.75082   0.00000  Uiso   1.00
C1476  C     0.97885   0.20542   0.73401   0.00000  Uiso   1.00
C1477  C     0.97780   0.13115   0.77300   0.00000  Uiso   1.00
C1478  C     0.68742   0.20851   0.74262   0.00000  Uiso   1.00
C1479  C     0.84152   0.20558   0.54695   0.00000  Uiso   1.00
C1480  C     0.83892   0.12334   0.95188   0.00000  Uiso   1.00
C1481  C     0.82168   0.20522   0.95296   0.00000  Uiso   1.00
C1482  C     0.82382   0.12347   0.54777   0.00000  Uiso   1.00
C1483  C     0.83766   0.20790   0.59222   0.00000  Uiso   1.00
C1484  C     0.83557   0.12284   0.90640   0.00000  Uiso   1.00
C1485  C     0.82671   0.20769   0.90784   0.00000  Uiso   1.00
C1486  C     0.91241   0.16697   0.75091   0.00000  Uiso   1.00
C1487  C     0.82869   0.12293   0.59314   0.00000  Uiso   1.00
C1488  C     0.83323   0.16589   0.61644   0.00000  Uiso   1.00
C1489  C     0.83196   0.16588   0.88345   0.00000  Uiso   1.00
C1490  C     0.83194   0.16428   0.52407   0.00000  Uiso   1.00
C1491  C     0.83065   0.16410   0.97571   0.00000  Uiso   1.00
C1492  C     0.95673   0.16786   0.75252   0.00000  Uiso   1.00
C1493  C     0.70892   0.16701   0.75256   0.00000  Uiso   1.00
C1494  C     0.80132   0.27137   0.61627   0.00000  Uiso   1.00
C1495  C     0.78040   0.28361   0.57233   0.00000  Uiso   1.00
C1496  C     0.74441   0.31663   0.57915   0.00000  Uiso   1.00
C1497  C     0.83339   0.16653   0.66486   0.00000  Uiso   1.00
C1498  C     0.79869   0.06161   0.87647   0.00000  Uiso   1.00
C1499  C     0.78147   0.03408   0.91573   0.00000  Uiso   1.00
C1500  C     0.74645   0.05970   0.93826   0.00000  Uiso   1.00
C1501  C     0.86327   0.27255   0.88622   0.00000  Uiso   1.00
C1502  C     0.87979   0.28898   0.93128   0.00000  Uiso   1.00
C1503  C     0.91607   0.32281   0.92666   0.00000  Uiso   1.00
C1504  C     0.86712   0.06152   0.61760   0.00000  Uiso   1.00
C1505  C     0.88108   0.03897   0.57435   0.00000  Uiso   1.00
C1506  C     0.91918   0.00913   0.58065   0.00000  Uiso   1.00
C1507  C     0.70392   0.06056   0.72781   0.00000  Uiso   1.00
C1508  C     0.83303   0.16662   0.83510   0.00000  Uiso   1.00
C1509  C     0.99407   0.04873   0.70952   0.00000  Uiso   1.00
C1510  C     0.99627   0.01298   0.67252   0.00000  Uiso   1.00
C1511  C     0.94549   0.22558   0.67006   0.00000  Uiso   1.00
C1512  C     0.98016   0.22189   0.63643   0.00000  Uiso   1.00
C1513  C     0.96339   0.20612   0.59181   0.00000  Uiso   1.00
C1514  C     0.94406   0.11357   0.83682   0.00000  Uiso   1.00
C1515  C     0.97915   0.11623   0.87056   0.00000  Uiso   1.00
C1516  C     0.96332   0.13051   0.91561   0.00000  Uiso   1.00
C1517  C     0.71277   0.26998   0.78299   0.00000  Uiso   1.00
C1518  C     0.67280   0.28804   0.80308   0.00000  Uiso   1.00
C1519  C     0.80617   0.02434   0.72459   0.00000  Uiso   1.00
C1520  C     0.68148   0.31928   0.84282   0.00000  Uiso   1.00
C1521  C     0.86187   0.30896   0.77376   0.00000  Uiso   1.00
C1522  C     0.86141   0.02522   0.77438   0.00000  Uiso   1.00
C1523  C     0.80533   0.30812   0.72563   0.00000  Uiso   1.00
C1524  C     0.68618   0.12678   0.76469   0.00000  Uiso   1.00
Cu1525 Cu    0.83333   0.21355   0.75000   0.00000  Uiso   1.00
Cu1526 Cu    0.83333   0.11978   0.75000   0.00000  Uiso   1.00
H1527  H     0.78535   0.04265   0.70319   0.00000  Uiso   1.00
H1528  H     0.78060   0.24824   0.63564   0.00000  Uiso   1.00
H1529  H     0.80269   0.30042   0.54993   0.00000  Uiso   1.00
H1530  H     0.76845   0.25111   0.55635   0.00000  Uiso   1.00
H1531  H     0.72147   0.30035   0.60126   0.00000  Uiso   1.00
H1532  H     0.72935   0.32387   0.54715   0.00000  Uiso   1.00
H1533  H     0.75535   0.01703   0.59360   0.00000  Uiso   1.00
H1534  H     0.80148   0.03674   0.84857   0.00000  Uiso   1.00
H1535  H     0.77673   0.08871   0.86480   0.00000  Uiso   1.00
H1536  H     0.76962   0.33276   0.90422   0.00000  Uiso   1.00
H1537  H     0.80603   0.02746   0.94016   0.00000  Uiso   1.00
H1538  H     0.88501   0.29063   0.79238   0.00000  Uiso   1.00
H1539  H     0.75666   0.09486   0.94985   0.00000  Uiso   1.00
H1540  H     0.73588   0.03913   0.96691   0.00000  Uiso   1.00
H1541  H     0.72023   0.06366   0.91520   0.00000  Uiso   1.00
H1542  H     0.86011   0.30390   0.86520   0.00000  Uiso   1.00
H1543  H     0.88595   0.24920   0.87012   0.00000  Uiso   1.00
H1544  H     0.85520   0.30649   0.94993   0.00000  Uiso   1.00
H1545  H     0.89038   0.25835   0.95046   0.00000  Uiso   1.00
H1546  H     0.94199   0.30472   0.91064   0.00000  Uiso   1.00
H1547  H     0.92633   0.00170   0.95961   0.00000  Uiso   1.00
H1548  H     0.90717   0.02046   0.90701   0.00000  Uiso   1.00
H1549  H     0.88376   0.04417   0.79407   0.00000  Uiso   1.00
H1550  H     0.86624   0.03412   0.64333   0.00000  Uiso   1.00
H1551  H     0.89014   0.08830   0.62893   0.00000  Uiso   1.00
H1552  H     0.85602   0.01669   0.56071   0.00000  Uiso   1.00
H1553  H     0.88853   0.06660   0.55010   0.00000  Uiso   1.00
H1554  H     0.94539   0.03144   0.59186   0.00000  Uiso   1.00
H1555  H     0.92745   0.32581   0.54900   0.00000  Uiso   1.00
H1556  H     0.91317   0.31442   0.60489   0.00000  Uiso   1.00
H1557  H     0.72063   0.02734   0.73223   0.00000  Uiso   1.00
H1558  H     0.72110   0.08149   0.70314   0.00000  Uiso   1.00
H1559  H     0.97417   0.03462   0.73569   0.00000  Uiso   1.00
H1560  H     0.78237   0.28912   0.70676   0.00000  Uiso   1.00
H1561  H     0.97950   0.08085   0.69640   0.00000  Uiso   1.00
H1562  H     0.67837   0.02859   0.64365   0.00000  Uiso   1.00
H1563  H     0.96469   0.00169   0.66317   0.00000  Uiso   1.00
H1564  H     0.68020   0.31511   0.68334   0.00000  Uiso   1.00
H1565  H     0.92278   0.25136   0.65804   0.00000  Uiso   1.00
H1566  H     0.92876   0.19148   0.67169   0.00000  Uiso   1.00
H1567  H     0.99562   0.25636   0.63268   0.00000  Uiso   1.00
H1568  H     0.66996   0.19617   0.64772   0.00000  Uiso   1.00
H1569  H     0.94846   0.17105   0.59436   0.00000  Uiso   1.00
H1570  H     0.98899   0.20390   0.56807   0.00000  Uiso   1.00
H1571  H     0.85017   0.23727   0.52990   0.00000  Uiso   1.00
H1572  H     0.94059   0.23160   0.57931   0.00000  Uiso   1.00
H1573  H     0.92026   0.08894   0.84919   0.00000  Uiso   1.00
H1574  H     0.92901   0.14831   0.83417   0.00000  Uiso   1.00
H1575  H     0.99388   0.08152   0.87303   0.00000  Uiso   1.00
H1576  H     0.66932   0.14224   0.85996   0.00000  Uiso   1.00
H1577  H     0.94872   0.16549   0.91398   0.00000  Uiso   1.00
H1578  H     0.98936   0.13230   0.93931   0.00000  Uiso   1.00
H1579  H     0.94047   0.10441   0.92751   0.00000  Uiso   1.00
H1580  H     0.73520   0.29938   0.78077   0.00000  Uiso   1.00
H1581  H     0.72689   0.24404   0.80560   0.00000  Uiso   1.00
H1582  H     0.84697   0.09115   0.96820   0.00000  Uiso   1.00
H1583  H     0.98875   0.30804   0.77835   0.00000  Uiso   1.00
H1584  H     0.98661   0.25797   0.81348   0.00000  Uiso   1.00
H1585  H     0.69659   0.29890   0.86923   0.00000  Uiso   1.00
H1586  H     0.98541   0.33319   0.85519   0.00000  Uiso   1.00
H1587  H     0.70161   0.01598   0.83379   0.00000  Uiso   1.00
H1588  H     0.81272   0.23670   0.97012   0.00000  Uiso   1.00
H1589  H     0.81530   0.09107   0.53138   0.00000  Uiso   1.00
H1590  H     0.80558   0.30443   0.63505   0.00000  Uiso   1.00
N1591  N     0.83333   0.28402   0.75000   0.00000  Uiso   1.00
N1592  N     0.83333   0.04931   0.75000   0.00000  Uiso   1.00
O1593  O     0.77321   0.20625   0.75000   0.00000  Uiso   1.00
O1594  O     0.83865   0.08008   0.88514   0.00000  Uiso   1.00
O1595  O     0.82373   0.25117   0.88831   0.00000  Uiso   1.00
O1596  O     0.82690   0.08005   0.61408   0.00000  Uiso   1.00
O1597  O     0.70368   0.08327   0.76934   0.00000  Uiso   1.00
O1598  O     0.96006   0.24165   0.71157   0.00000  Uiso   1.00
O1599  O     0.95773   0.09598   0.79593   0.00000  Uiso   1.00
O1600  O     0.70657   0.25186   0.73991   0.00000  Uiso   1.00
O1601  O     0.89345   0.12709   0.75001   0.00000  Uiso   1.00
O1602  O     0.89345   0.20625   0.75001   0.00000  Uiso   1.00
O1603  O     0.77321   0.12709   0.75000   0.00000  Uiso   1.00
O1604  O     0.83333   0.20626   0.68573   0.00000  Uiso   1.00
O1605  O     0.83334   0.12707   0.81427   0.00000  Uiso   1.00
O1606  O     0.83334   0.20626   0.81427   0.00000  Uiso   1.00
O1607  O     0.83333   0.12707   0.68573   0.00000  Uiso   1.00
O1608  O     0.84094   0.25158   0.61180   0.00000  Uiso   1.00
C1609  C     0.08721   0.49989   0.75082   0.00000  Uiso   1.00
C1610  C     0.31219   0.53876   0.73401   0.00000  Uiso   1.00
C1611  C     0.31114   0.46448   0.77300   0.00000  Uiso   1.00
C1612  C     0.02075   0.54184   0.74262   0.00000  Uiso   1.00
C1613  C     0.17486   0.53891   0.54695   0.00000  Uiso   1.00
C1614  C     0.17225   0.45667   0.95188   0.00000  Uiso   1.00
C1615  C     0.15501   0.53855   0.95296   0.00000  Uiso   1.00
C1616  C     0.15715   0.45680   0.54777   0.00000  Uiso   1.00
C1617  C     0.17099   0.54123   0.59222   0.00000  Uiso   1.00
C1618  C     0.16890   0.45617   0.90640   0.00000  Uiso   1.00
C1619  C     0.16004   0.54103   0.90784   0.00000  Uiso   1.00
C1620  C     0.24574   0.50031   0.75091   0.00000  Uiso   1.00
C1621  C     0.16203   0.45626   0.59314   0.00000  Uiso   1.00
C1622  C     0.16656   0.49923   0.61644   0.00000  Uiso   1.00
C1623  C     0.16529   0.49921   0.88345   0.00000  Uiso   1.00
C1624  C     0.16527   0.49761   0.52407   0.00000  Uiso   1.00
C1625  C     0.16398   0.49744   0.97571   0.00000  Uiso   1.00
C1626  C     0.29006   0.50119   0.75252   0.00000  Uiso   1.00
C1627  C     0.04226   0.50034   0.75256   0.00000  Uiso   1.00
C1628  C     0.13465   0.60471   0.61627   0.00000  Uiso   1.00
C1629  C     0.11374   0.61694   0.57233   0.00000  Uiso   1.00
C1630  C     0.07774   0.64996   0.57915   0.00000  Uiso   1.00
C1631  C     0.16672   0.49986   0.66486   0.00000  Uiso   1.00
C1632  C     0.13203   0.39494   0.87647   0.00000  Uiso   1.00
C1633  C     0.11480   0.36741   0.91573   0.00000  Uiso   1.00
C1634  C     0.07978   0.39304   0.93826   0.00000  Uiso   1.00
C1635  C     0.19660   0.60588   0.88622   0.00000  Uiso   1.00
C1636  C     0.21312   0.62231   0.93128   0.00000  Uiso   1.00
C1637  C     0.24940   0.65614   0.92666   0.00000  Uiso   1.00
C1638  C     0.20045   0.39485   0.61760   0.00000  Uiso   1.00
C1639  C     0.21442   0.37230   0.57435   0.00000  Uiso   1.00
C1640  C     0.25252   0.34246   0.58065   0.00000  Uiso   1.00
C1641  C     0.03726   0.39389   0.72781   0.00000  Uiso   1.00
C1642  C     0.16637   0.49995   0.83510   0.00000  Uiso   1.00
C1643  C     0.32740   0.38207   0.70952   0.00000  Uiso   1.00
C1644  C     0.32960   0.34631   0.67252   0.00000  Uiso   1.00
C1645  C     0.27883   0.55892   0.67006   0.00000  Uiso   1.00
C1646  C     0.31349   0.55522   0.63643   0.00000  Uiso   1.00
C1647  C     0.29672   0.53945   0.59181   0.00000  Uiso   1.00
C1648  C     0.27740   0.44690   0.83682   0.00000  Uiso   1.00
C1649  C     0.31249   0.44956   0.87056   0.00000  Uiso   1.00
C1650  C     0.29665   0.46384   0.91561   0.00000  Uiso   1.00
C1651  C     0.04610   0.60331   0.78299   0.00000  Uiso   1.00
C1652  C     0.00614   0.62137   0.80308   0.00000  Uiso   1.00
C1653  C     0.13950   0.35767   0.72459   0.00000  Uiso   1.00
C1654  C     0.01482   0.65261   0.84282   0.00000  Uiso   1.00
C1655  C     0.19521   0.64230   0.77376   0.00000  Uiso   1.00
C1656  C     0.19475   0.35856   0.77438   0.00000  Uiso   1.00
C1657  C     0.13867   0.64145   0.72563   0.00000  Uiso   1.00
C1658  C     0.01951   0.46012   0.76469   0.00000  Uiso   1.00
Cu1659 Cu    0.16667   0.54689   0.75000   0.00000  Uiso   1.00
Cu1660 Cu    0.16667   0.45311   0.75000   0.00000  Uiso   1.00
H1661  H     0.11868   0.37598   0.70319   0.00000  Uiso   1.00
H1662  H     0.11393   0.58157   0.63564   0.00000  Uiso   1.00
H1663  H     0.13603   0.63376   0.54993   0.00000  Uiso   1.00
H1664  H     0.10178   0.58444   0.55635   0.00000  Uiso   1.00
H1665  H     0.05480   0.63368   0.60126   0.00000  Uiso   1.00
H1666  H     0.06269   0.65720   0.54715   0.00000  Uiso   1.00
H1667  H     0.08868   0.35036   0.59360   0.00000  Uiso   1.00
H1668  H     0.13481   0.37007   0.84857   0.00000  Uiso   1.00
H1669  H     0.11006   0.42205   0.86480   0.00000  Uiso   1.00
H1670  H     0.10295   0.66609   0.90422   0.00000  Uiso   1.00
H1671  H     0.13936   0.36079   0.94016   0.00000  Uiso   1.00
H1672  H     0.21835   0.62396   0.79238   0.00000  Uiso   1.00
H1673  H     0.09000   0.42820   0.94985   0.00000  Uiso   1.00
H1674  H     0.06921   0.37246   0.96691   0.00000  Uiso   1.00
H1675  H     0.05356   0.39700   0.91520   0.00000  Uiso   1.00
H1676  H     0.19345   0.63723   0.86520   0.00000  Uiso   1.00
H1677  H     0.21929   0.58254   0.87012   0.00000  Uiso   1.00
H1678  H     0.18853   0.63982   0.94993   0.00000  Uiso   1.00
H1679  H     0.22371   0.59168   0.95046   0.00000  Uiso   1.00
H1680  H     0.27533   0.63805   0.91064   0.00000  Uiso   1.00
H1681  H     0.25966   0.33503   0.95961   0.00000  Uiso   1.00
H1682  H     0.24051   0.35380   0.90701   0.00000  Uiso   1.00
H1683  H     0.21710   0.37750   0.79407   0.00000  Uiso   1.00
H1684  H     0.19958   0.36746   0.64333   0.00000  Uiso   1.00
H1685  H     0.22347   0.42163   0.62893   0.00000  Uiso   1.00
H1686  H     0.18935   0.35002   0.56071   0.00000  Uiso   1.00
H1687  H     0.22186   0.39994   0.55010   0.00000  Uiso   1.00
H1688  H     0.27873   0.36477   0.59186   0.00000  Uiso   1.00
H1689  H     0.26078   0.65914   0.54900   0.00000  Uiso   1.00
H1690  H     0.24651   0.64776   0.60489   0.00000  Uiso   1.00
H1691  H     0.05396   0.36067   0.73223   0.00000  Uiso   1.00
H1692  H     0.05443   0.41483   0.70314   0.00000  Uiso   1.00
H1693  H     0.30750   0.36795   0.73569   0.00000  Uiso   1.00
H1694  H     0.11571   0.62245   0.70676   0.00000  Uiso   1.00
H1695  H     0.31284   0.41418   0.69640   0.00000  Uiso   1.00
H1696  H     0.01170   0.36193   0.64365   0.00000  Uiso   1.00
H1697  H     0.29803   0.33502   0.66317   0.00000  Uiso   1.00
H1698  H     0.01353   0.64844   0.68334   0.00000  Uiso   1.00
H1699  H     0.25611   0.58469   0.65804   0.00000  Uiso   1.00
H1700  H     0.26209   0.52481   0.67169   0.00000  Uiso   1.00
H1701  H     0.32895   0.58970   0.63268   0.00000  Uiso   1.00
H1702  H     0.00330   0.52950   0.64772   0.00000  Uiso   1.00
H1703  H     0.28180   0.50438   0.59436   0.00000  Uiso   1.00
H1704  H     0.32233   0.53723   0.56807   0.00000  Uiso   1.00
H1705  H     0.18351   0.57060   0.52990   0.00000  Uiso   1.00
H1706  H     0.27393   0.56493   0.57931   0.00000  Uiso   1.00
H1707  H     0.25359   0.42228   0.84919   0.00000  Uiso   1.00
H1708  H     0.26234   0.48164   0.83417   0.00000  Uiso   1.00
H1709  H     0.32721   0.41485   0.87303   0.00000  Uiso   1.00
H1710  H     0.00265   0.47558   0.85996   0.00000  Uiso   1.00
H1711  H     0.28205   0.49882   0.91398   0.00000  Uiso   1.00
H1712  H     0.32269   0.46564   0.93931   0.00000  Uiso   1.00
H1713  H     0.27381   0.43775   0.92751   0.00000  Uiso   1.00
H1714  H     0.06853   0.63271   0.78077   0.00000  Uiso   1.00
H1715  H     0.06022   0.57737   0.80560   0.00000  Uiso   1.00
H1716  H     0.18030   0.42448   0.96820   0.00000  Uiso   1.00
H1717  H     0.32208   0.64137   0.77835   0.00000  Uiso   1.00
H1718  H     0.31994   0.59130   0.81348   0.00000  Uiso   1.00
H1719  H     0.02993   0.63224   0.86923   0.00000  Uiso   1.00
H1720  H     0.31874   0.66653   0.85519   0.00000  Uiso   1.00
H1721  H     0.03494   0.34932   0.83379   0.00000  Uiso   1.00
H1722  H     0.14605   0.57003   0.97012   0.00000  Uiso   1.00
H1723  H     0.14864   0.42440   0.53138   0.00000  Uiso   1.00
H1724  H     0.13891   0.63776   0.63505   0.00000  Uiso   1.00
N1725  N     0.16667   0.61736   0.75000   0.00000  Uiso   1.00
N1726  N     0.16667   0.38264   0.75000   0.00000  Uiso   1.00
O1727  O     0.10655   0.53958   0.75000   0.00000  Uiso   1.00
O1728  O     0.17198   0.41341   0.88514   0.00000  Uiso   1.00
O1729  O     0.15706   0.58450   0.88831   0.00000  Uiso   1.00
O1730  O     0.16024   0.41339   0.61408   0.00000  Uiso   1.00
O1731  O     0.03701   0.41660   0.76934   0.00000  Uiso   1.00
O1732  O     0.29339   0.57498   0.71157   0.00000  Uiso   1.00
O1733  O     0.29107   0.42931   0.79593   0.00000  Uiso   1.00
O1734  O     0.03990   0.58519   0.73991   0.00000  Uiso   1.00
O1735  O     0.22679   0.46042   0.75001   0.00000  Uiso   1.00
O1736  O     0.22679   0.53958   0.75001   0.00000  Uiso   1.00
O1737  O     0.10655   0.46042   0.75000   0.00000  Uiso   1.00
O1738  O     0.16666   0.53959   0.68573   0.00000  Uiso   1.00
O1739  O     0.16667   0.46041   0.81427   0.00000  Uiso   1.00
O1740  O     0.16667   0.53959   0.81427   0.00000  Uiso   1.00
O1741  O     0.16666   0.46041   0.68573   0.00000  Uiso   1.00
O1742  O     0.17428   0.58491   0.61180   0.00000  Uiso   1.00
C1743  C     0.42054   0.49989   0.75082   0.00000  Uiso   1.00
C1744  C     0.64552   0.53876   0.73401   0.00000  Uiso   1.00
C1745  C     0.64447   0.46448   0.77300   0.00000  Uiso   1.00
C1746  C     0.35409   0.54184   0.74262   0.00000  Uiso   1.00
C1747  C     0.50819   0.53891   0.54695   0.00000  Uiso   1.00
C1748  C     0.50559   0.45667   0.95188   0.00000  Uiso   1.00
C1749  C     0.48835   0.53855   0.95296   0.00000  Uiso   1.00
C1750  C     0.49049   0.45680   0.54777   0.00000  Uiso   1.00
C1751  C     0.50432   0.54123   0.59222   0.00000  Uiso   1.00
C1752  C     0.50224   0.45617   0.90640   0.00000  Uiso   1.00
C1753  C     0.49338   0.54103   0.90784   0.00000  Uiso   1.00
C1754  C     0.57907   0.50031   0.75091   0.00000  Uiso   1.00
C1755  C     0.49536   0.45626   0.59314   0.00000  Uiso   1.00
C1756  C     0.49990   0.49923   0.61644   0.00000  Uiso   1.00
C1757  C     0.49862   0.49921   0.88345   0.00000  Uiso   1.00
C1758  C     0.49860   0.49761   0.52407   0.00000  Uiso   1.00
C1759  C     0.49732   0.49744   0.97571   0.00000  Uiso   1.00
C1760  C     0.62340   0.50119   0.75252   0.00000  Uiso   1.00
C1761  C     0.37559   0.50034   0.75256   0.00000  Uiso   1.00
C1762  C     0.46798   0.60471   0.61627   0.00000  Uiso   1.00
C1763  C     0.44707   0.61694   0.57233   0.00000  Uiso   1.00
C1764  C     0.41108   0.64996   0.57915   0.00000  Uiso   1.00
C1765  C     0.50005   0.49986   0.66486   0.00000  Uiso   1.00
C1766  C     0.46536   0.39494   0.87647   0.00000  Uiso   1.00
C1767  C     0.44814   0.36741   0.91573   0.00000  Uiso   1.00
C1768  C     0.41311   0.39304   0.93826   0.00000  Uiso   1.00
C1769  C     0.52993   0.60588   0.88622   0.00000  Uiso   1.00
C1770  C     0.54646   0.62231   0.93128   0.00000  Uiso   1.00
C1771  C     0.58273   0.65614   0.92666   0.00000  Uiso   1.00
C1772  C     0.53379   0.39485   0.61760   0.00000  Uiso   1.00
C1773  C     0.54775   0.37230   0.57435   0.00000  Uiso   1.00
C1774  C     0.58585   0.34246   0.58065   0.00000  Uiso   1.00
C1775  C     0.37059   0.39389   0.72781   0.00000  Uiso   1.00
C1776  C     0.49970   0.49995   0.83510   0.00000  Uiso   1.00
C1777  C     0.66074   0.38207   0.70952   0.00000  Uiso   1.00
C1778  C     0.66293   0.34631   0.67252   0.00000  Uiso   1.00
C1779  C     0.61216   0.55892   0.67006   0.00000  Uiso   1.00
C1780  C     0.64683   0.55522   0.63643   0.00000  Uiso   1.00
C1781  C     0.63005   0.53945   0.59181   0.00000  Uiso   1.00
C1782  C     0.61073   0.44690   0.83682   0.00000  Uiso   1.00
C1783  C     0.64582   0.44956   0.87056   0.00000  Uiso   1.00
C1784  C     0.62998   0.46384   0.91561   0.00000  Uiso   1.00
C1785  C     0.37944   0.60331   0.78299   0.00000  Uiso   1.00
C1786  C     0.33947   0.62137   0.80308   0.00000  Uiso   1.00
C1787  C     0.47284   0.35767   0.72459   0.00000  Uiso   1.00
C1788  C     0.34815   0.65261   0.84282   0.00000  Uiso   1.00
C1789  C     0.52854   0.64230   0.77376   0.00000  Uiso   1.00
C1790  C     0.52808   0.35856   0.77438   0.00000  Uiso   1.00
C1791  C     0.47200   0.64145   0.72563   0.00000  Uiso   1.00
C1792  C     0.35285   0.46012   0.76469   0.00000  Uiso   1.00
Cu1793 Cu    0.50000   0.54689   0.75000   0.00000  Uiso   1.00
Cu1794 Cu    0.50000   0.45311   0.75000   0.00000  Uiso   1.00
H1795  H     0.45202   0.37598   0.70319   0.00000  Uiso   1.00
H1796  H     0.44727   0.58157   0.63564   0.00000  Uiso   1.00
H1797  H     0.46936   0.63376   0.54993   0.00000  Uiso   1.00
H1798  H     0.43512   0.58444   0.55635   0.00000  Uiso   1.00
H1799  H     0.38813   0.63368   0.60126   0.00000  Uiso   1.00
H1800  H     0.39602   0.65720   0.54715   0.00000  Uiso   1.00
H1801  H     0.42201   0.35036   0.59360   0.00000  Uiso   1.00
H1802  H     0.46815   0.37007   0.84857   0.00000  Uiso   1.00
H1803  H     0.44339   0.42205   0.86480   0.00000  Uiso   1.00
H1804  H     0.43628   0.66609   0.90422   0.00000  Uiso   1.00
H1805  H     0.47269   0.36079   0.94016   0.00000  Uiso   1.00
H1806  H     0.55168   0.62396   0.79238   0.00000  Uiso   1.00
H1807  H     0.42333   0.42820   0.94985   0.00000  Uiso   1.00
H1808  H     0.40254   0.37246   0.96691   0.00000  Uiso   1.00
H1809  H     0.38690   0.39700   0.91520   0.00000  Uiso   1.00
H1810  H     0.52678   0.63723   0.86520   0.00000  Uiso   1.00
H1811  H     0.55262   0.58254   0.87012   0.00000  Uiso   1.00
H1812  H     0.52186   0.63982   0.94993   0.00000  Uiso   1.00
H1813  H     0.55705   0.59168   0.95046   0.00000  Uiso   1.00
H1814  H     0.60866   0.63805   0.91064   0.00000  Uiso   1.00
H1815  H     0.59299   0.33503   0.95961   0.00000  Uiso   1.00
H1816  H     0.57384   0.35380   0.90701   0.00000  Uiso   1.00
H1817  H     0.55043   0.37750   0.79407   0.00000  Uiso   1.00
H1818  H     0.53291   0.36746   0.64333   0.00000  Uiso   1.00
H1819  H     0.55680   0.42163   0.62893   0.00000  Uiso   1.00
H1820  H     0.52269   0.35002   0.56071   0.00000  Uiso   1.00
H1821  H     0.55520   0.39994   0.55010   0.00000  Uiso   1.00
H1822  H     0.61206   0.36477   0.59186   0.00000  Uiso   1.00
H1823  H     0.59411   0.65914   0.54900   0.00000  Uiso   1.00
H1824  H     0.57984   0.64776   0.60489   0.00000  Uiso   1.00
H1825  H     0.38729   0.36067   0.73223   0.00000  Uiso   1.00
H1826  H     0.38776   0.41483   0.70314   0.00000  Uiso   1.00
H1827  H     0.64083   0.36795   0.73569   0.00000  Uiso   1.00
H1828  H     0.44904   0.62245   0.70676   0.00000  Uiso   1.00
H1829  H     0.64617   0.41418   0.69640   0.00000  Uiso   1.00
H1830  H     0.34503   0.36193   0.64365   0.00000  Uiso   1.00
H1831  H     0.63136   0.33502   0.66317   0.00000  Uiso   1.00
H1832  H     0.34686   0.64844   0.68334   0.00000  Uiso   1.00
H1833  H     0.58944   0.58469   0.65804   0.00000  Uiso   1.00
H1834  H     0.59543   0.52481   0.67169   0.00000  Uiso   1.00
H1835  H     0.66228   0.58970   0.63268   0.00000  Uiso   1.00
H1836  H     0.33663   0.52950   0.64772   0.00000  Uiso   1.00
H1837  H     0.61513   0.50438   0.59436   0.00000  Uiso   1.00
H1838  H     0.65566   0.53723   0.56807   0.00000  Uiso   1.00
H1839  H     0.51684   0.57060   0.52990   0.00000  Uiso   1.00
H1840  H     0.60726   0.56493   0.57931   0.00000  Uiso   1.00
H1841  H     0.58693   0.42228   0.84919   0.00000  Uiso   1.00
H1842  H     0.59568   0.48164   0.83417   0.00000  Uiso   1.00
H1843  H     0.66055   0.41485   0.87303   0.00000  Uiso   1.00
H1844  H     0.33599   0.47558   0.85996   0.00000  Uiso   1.00
H1845  H     0.61539   0.49882   0.91398   0.00000  Uiso   1.00
H1846  H     0.65603   0.46564   0.93931   0.00000  Uiso   1.00
H1847  H     0.60714   0.43775   0.92751   0.00000  Uiso   1.00
H1848  H     0.40186   0.63271   0.78077   0.00000  Uiso   1.00
H1849  H     0.39356   0.57737   0.80560   0.00000  Uiso   1.00
H1850  H     0.51364   0.42448   0.96820   0.00000  Uiso   1.00
H1851  H     0.65541   0.64137   0.77835   0.00000  Uiso   1.00
H1852  H     0.65328   0.59130   0.81348   0.00000  Uiso   1.00
H1853  H     0.36326   0.63224   0.86923   0.00000  Uiso   1.00
H1854  H     0.65208   0.66653   0.85519   0.00000  Uiso   1.00
H1855  H     0.36827   0.34932   0.83379   0.00000  Uiso   1.00
H1856  H     0.47939   0.57003   0.97012   0.00000  Uiso   1.00
H1857  H     0.48197   0.42440   0.53138   0.00000  Uiso   1.00
H1858  H     0.47225   0.63776   0.63505   0.00000  Uiso   1.00
N1859  N     0.50000   0.61736   0.75000   0.00000  Uiso   1.00
N1860  N     0.50000   0.38264   0.75000   0.00000  Uiso   1.00
O1861  O     0.43988   0.53958   0.75000   0.00000  Uiso   1.00
O1862  O     0.50532   0.41341   0.88514   0.00000  Uiso   1.00
O1863  O     0.49040   0.58450   0.88831   0.00000  Uiso   1.00
O1864  O     0.49357   0.41339   0.61408   0.00000  Uiso   1.00
O1865  O     0.37034   0.41660   0.76934   0.00000  Uiso   1.00
O1866  O     0.62672   0.57498   0.71157   0.00000  Uiso   1.00
O1867  O     0.62440   0.42931   0.79593   0.00000  Uiso   1.00
O1868  O     0.37324   0.58519   0.73991   0.00000  Uiso   1.00
O1869  O     0.56012   0.46042   0.75001   0.00000  Uiso   1.00
O1870  O     0.56012   0.53958   0.75001   0.00000  Uiso   1.00
O1871  O     0.43988   0.46042   0.75000   0.00000  Uiso   1.00
O1872  O     0.50000   0.53959   0.68573   0.00000  Uiso   1.00
O1873  O     0.50000   0.46041   0.81427   0.00000  Uiso   1.00
O1874  O     0.50000   0.53959   0.81427   0.00000  Uiso   1.00
O1875  O     0.50000   0.46041   0.68573   0.00000  Uiso   1.00
O1876  O     0.50761   0.58491   0.61180   0.00000  Uiso   1.00
C1877  C     0.75387   0.49989   0.75082   0.00000  Uiso   1.00
C1878  C     0.97885   0.53876   0.73401   0.00000  Uiso   1.00
C1879  C     0.97780   0.46448   0.77300   0.00000  Uiso   1.00
C1880  C     0.68742   0.54184   0.74262   0.00000  Uiso   1.00
C1881  C     0.84152   0.53891   0.54695   0.00000  Uiso   1.00
C1882  C     0.83892   0.45667   0.95188   0.00000  Uiso   1.00
C1883  C     0.82168   0.53855   0.95296   0.00000  Uiso   1.00
C1884  C     0.82382   0.45680   0.54777   0.00000  Uiso   1.00
C1885  C     0.83766   0.54123   0.59222   0.00000  Uiso   1.00
C1886  C     0.83557   0.45617   0.90640   0.00000  Uiso   1.00
C1887  C     0.82671   0.54103   0.90784   0.00000  Uiso   1.00
C1888  C     0.91241   0.50031   0.75091   0.00000  Uiso   1.00
C1889  C     0.82869   0.45626   0.59314   0.00000  Uiso   1.00
C1890  C     0.83323   0.49923   0.61644   0.00000  Uiso   1.00
C1891  C     0.83196   0.49921   0.88345   0.00000  Uiso   1.00
C1892  C     0.83194   0.49761   0.52407   0.00000  Uiso   1.00
C1893  C     0.83065   0.49744   0.97571   0.00000  Uiso   1.00
C1894  C     0.95673   0.50119   0.75252   0.00000  Uiso   1.00
C1895  C     0.70892   0.50034   0.75256   0.00000  Uiso   1.00
C1896  C     0.80132   0.60471   0.61627   0.00000  Uiso   1.00
C1897  C     0.78040   0.61694   0.57233   0.00000  Uiso   1.00
C1898  C     0.74441   0.64996   0.57915   0.00000  Uiso   1.00
C1899  C     0.83339   0.49986   0.66486   0.00000  Uiso   1.00
C1900  C     0.79869   0.39494   0.87647   0.00000  Uiso   1.00
C1901  C     0.78147   0.36741   0.91573   0.00000  Uiso   1.00
C1902  C     0.74645   0.39304   0.93826   0.00000  Uiso   1.00
C1903  C     0.86327   0.60588   0.88622   0.00000  Uiso   1.00
C1904  C     0.87979   0.62231   0.93128   0.00000  Uiso   1.00
C1905  C     0.91607   0.65614   0.92666   0.00000  Uiso   1.00
C1906  C     0.86712   0.39485   0.61760   0.00000  Uiso   1.00
C1907  C     0.88108   0.37230   0.57435   0.00000  Uiso   1.00
C1908  C     0.91918   0.34246   0.58065   0.00000  Uiso   1.00
C1909  C     0.70392   0.39389   0.72781   0.00000  Uiso   1.00
C1910  C     0.83303   0.49995   0.83510   0.00000  Uiso   1.00
C1911  C     0.99407   0.38207   0.70952   0.00000  Uiso   1.00
C1912  C     0.99627   0.34631   0.67252   0.00000  Uiso   1.00
C1913  C     0.94549   0.55892   0.67006   0.00000  Uiso   1.00
C1914  C     0.98016   0.55522   0.63643   0.00000  Uiso   1.00
C1915  C     0.96339   0.53945   0.59181   0.00000  Uiso   1.00
C1916  C     0.94406   0.44690   0.83682   0.00000  Uiso   1.00
C1917  C     0.97915   0.44956   0.87056   0.00000  Uiso   1.00
C1918  C     0.96332   0.46384   0.91561   0.00000  Uiso   1.00
C1919  C     0.71277   0.60331   0.78299   0.00000  Uiso   1.00
C1920  C     0.67280   0.62137   0.80308   0.00000  Uiso   1.00
C1921  C     0.80617   0.35767   0.72459   0.00000  Uiso   1.00
C1922  C     0.68148   0.65261   0.84282   0.00000  Uiso   1.00
C1923  C     0.86187   0.64230   0.77376   0.00000  Uiso   1.00
C1924  C     0.86141   0.35856   0.77438   0.00000  Uiso   1.00
C1925  C     0.80533   0.64145   0.72563   0.00000  Uiso   1.00
C1926  C     0.68618   0.46012   0.76469   0.00000  Uiso   1.00
Cu1927 Cu    0.83333   0.54689   0.75000   0.00000  Uiso   1.00
Cu1928 Cu    0.83333   0.45311   0.75000   0.00000  Uiso   1.00
H1929  H     0.78535   0.37598   0.70319   0.00000  Uiso   1.00
H1930  H     0.78060   0.58157   0.63564   0.00000  Uiso   1.00
H1931  H     0.80269   0.63376   0.54993   0.00000  Uiso   1.00
H1932  H     0.76845   0.58444   0.55635   0.00000  Uiso   1.00
H1933  H     0.72147   0.63368   0.60126   0.00000  Uiso   1.00
H1934  H     0.72935   0.65720   0.54715   0.00000  Uiso   1.00
H1935  H     0.75535   0.35036   0.59360   0.00000  Uiso   1.00
H1936  H     0.80148   0.37007   0.84857   0.00000  Uiso   1.00
H1937  H     0.77673   0.42205   0.86480   0.00000  Uiso   1.00
H1938  H     0.76962   0.66609   0.90422   0.00000  Uiso   1.00
H1939  H     0.80603   0.36079   0.94016   0.00000  Uiso   1.00
H1940  H     0.88501   0.62396   0.79238   0.00000  Uiso   1.00
H1941  H     0.75666   0.42820   0.94985   0.00000  Uiso   1.00
H1942  H     0.73588   0.37246   0.96691   0.00000  Uiso   1.00
H1943  H     0.72023   0.39700   0.91520   0.00000  Uiso   1.00
H1944  H     0.86011   0.63723   0.86520   0.00000  Uiso   1.00
H1945  H     0.88595   0.58254   0.87012   0.00000  Uiso   1.00
H1946  H     0.85520   0.63982   0.94993   0.00000  Uiso   1.00
H1947  H     0.89038   0.59168   0.95046   0.00000  Uiso   1.00
H1948  H     0.94199   0.63805   0.91064   0.00000  Uiso   1.00
H1949  H     0.92633   0.33503   0.95961   0.00000  Uiso   1.00
H1950  H     0.90717   0.35380   0.90701   0.00000  Uiso   1.00
H1951  H     0.88376   0.37750   0.79407   0.00000  Uiso   1.00
H1952  H     0.86624   0.36746   0.64333   0.00000  Uiso   1.00
H1953  H     0.89014   0.42163   0.62893   0.00000  Uiso   1.00
H1954  H     0.85602   0.35002   0.56071   0.00000  Uiso   1.00
H1955  H     0.88853   0.39994   0.55010   0.00000  Uiso   1.00
H1956  H     0.94539   0.36477   0.59186   0.00000  Uiso   1.00
H1957  H     0.92745   0.65914   0.54900   0.00000  Uiso   1.00
H1958  H     0.91317   0.64776   0.60489   0.00000  Uiso   1.00
H1959  H     0.72063   0.36067   0.73223   0.00000  Uiso   1.00
H1960  H     0.72110   0.41483   0.70314   0.00000  Uiso   1.00
H1961  H     0.97417   0.36795   0.73569   0.00000  Uiso   1.00
H1962  H     0.78237   0.62245   0.70676   0.00000  Uiso   1.00
H1963  H     0.97950   0.41418   0.69640   0.00000  Uiso   1.00
H1964  H     0.67837   0.36193   0.64365   0.00000  Uiso   1.00
H1965  H     0.96469   0.33502   0.66317   0.00000  Uiso   1.00
H1966  H     0.68020   0.64844   0.68334   0.00000  Uiso   1.00
H1967  H     0.92278   0.58469   0.65804   0.00000  Uiso   1.00
H1968  H     0.92876   0.52481   0.67169   0.00000  Uiso   1.00
H1969  H     0.99562   0.58970   0.63268   0.00000  Uiso   1.00
H1970  H     0.66996   0.52950   0.64772   0.00000  Uiso   1.00
H1971  H     0.94846   0.50438   0.59436   0.00000  Uiso   1.00
H1972  H     0.98899   0.53723   0.56807   0.00000  Uiso   1.00
H1973  H     0.85017   0.57060   0.52990   0.00000  Uiso   1.00
H1974  H     0.94059   0.56493   0.57931   0.00000  Uiso   1.00
H1975  H     0.92026   0.42228   0.84919   0.00000  Uiso   1.00
H1976  H     0.92901   0.48164   0.83417   0.00000  Uiso   1.00
H1977  H     0.99388   0.41485   0.87303   0.00000  Uiso   1.00
H1978  H     0.66932   0.47558   0.85996   0.00000  Uiso   1.00
H1979  H     0.94872   0.49882   0.91398   0.00000  Uiso   1.00
H1980  H     0.98936   0.46564   0.93931   0.00000  Uiso   1.00
H1981  H     0.94047   0.43775   0.92751   0.00000  Uiso   1.00
H1982  H     0.73520   0.63271   0.78077   0.00000  Uiso   1.00
H1983  H     0.72689   0.57737   0.80560   0.00000  Uiso   1.00
H1984  H     0.84697   0.42448   0.96820   0.00000  Uiso   1.00
H1985  H     0.98875   0.64137   0.77835   0.00000  Uiso   1.00
H1986  H     0.98661   0.59130   0.81348   0.00000  Uiso   1.00
H1987  H     0.69659   0.63224   0.86923   0.00000  Uiso   1.00
H1988  H     0.98541   0.66653   0.85519   0.00000  Uiso   1.00
H1989  H     0.70161   0.34932   0.83379   0.00000  Uiso   1.00
H1990  H     0.81272   0.57003   0.97012   0.00000  Uiso   1.00
H1991  H     0.81530   0.42440   0.53138   0.00000  Uiso   1.00
H1992  H     0.80558   0.63776   0.63505   0.00000  Uiso   1.00
N1993  N     0.83333   0.61736   0.75000   0.00000  Uiso   1.00
N1994  N     0.83333   0.38264   0.75000   0.00000  Uiso   1.00
O1995  O     0.77321   0.53958   0.75000   0.00000  Uiso   1.00
O1996  O     0.83865   0.41341   0.88514   0.00000  Uiso   1.00
O1997  O     0.82373   0.58450   0.88831   0.00000  Uiso   1.00
O1998  O     0.82690   0.41339   0.61408   0.00000  Uiso   1.00
O1999  O     0.70368   0.41660   0.76934   0.00000  Uiso   1.00
O2000  O     0.96006   0.57498   0.71157   0.00000  Uiso   1.00
O2001  O     0.95773   0.42931   0.79593   0.00000  Uiso   1.00
O2002  O     0.70657   0.58519   0.73991   0.00000  Uiso   1.00
O2003  O     0.89345   0.46042   0.75001   0.00000  Uiso   1.00
O2004  O     0.89345   0.53958   0.75001   0.00000  Uiso   1.00
O2005  O     0.77321   0.46042   0.75000   0.00000  Uiso   1.00
O2006  O     0.83333   0.53959   0.68573   0.00000  Uiso   1.00
O2007  O     0.83334   0.46041   0.81427   0.00000  Uiso   1.00
O2008  O     0.83334   0.53959   0.81427   0.00000  Uiso   1.00
O2009  O     0.83333   0.46041   0.68573   0.00000  Uiso   1.00
O2010  O     0.84094   0.58491   0.61180   0.00000  Uiso   1.00
C2011  C     0.08721   0.83323   0.75082   0.00000  Uiso   1.00
C2012  C     0.31219   0.87209   0.73401   0.00000  Uiso   1.00
C2013  C     0.31114   0.79782   0.77300   0.00000  Uiso   1.00
C2014  C     0.02075   0.87517   0.74262   0.00000  Uiso   1.00
C2015  C     0.17486   0.87224   0.54695   0.00000  Uiso   1.00
C2016  C     0.17225   0.79001   0.95188   0.00000  Uiso   1.00
C2017  C     0.15501   0.87189   0.95296   0.00000  Uiso   1.00
C2018  C     0.15715   0.79014   0.54777   0.00000  Uiso   1.00
C2019  C     0.17099   0.87457   0.59222   0.00000  Uiso   1.00
C2020  C     0.16890   0.78950   0.90640   0.00000  Uiso   1.00
C2021  C     0.16004   0.87436   0.90784   0.00000  Uiso   1.00
C2022  C     0.24574   0.83364   0.75091   0.00000  Uiso   1.00
C2023  C     0.16203   0.78960   0.59314   0.00000  Uiso   1.00
C2024  C     0.16656   0.83256   0.61644   0.00000  Uiso   1.00
C2025  C     0.16529   0.83254   0.88345   0.00000  Uiso   1.00
C2026  C     0.16527   0.83094   0.52407   0.00000  Uiso   1.00
C2027  C     0.16398   0.83077   0.97571   0.00000  Uiso   1.00
C2028  C     0.29006   0.83453   0.75252   0.00000  Uiso   1.00
C2029  C     0.04226   0.83367   0.75256   0.00000  Uiso   1.00
C2030  C     0.13465   0.93804   0.61627   0.00000  Uiso   1.00
C2031  C     0.11374   0.95027   0.57233   0.00000  Uiso   1.00
C2032  C     0.07774   0.98329   0.57915   0.00000  Uiso   1.00
C2033  C     0.16672   0.83319   0.66486   0.00000  Uiso   1.00
C2034  C     0.13203   0.72827   0.87647   0.00000  Uiso   1.00
C2035  C     0.11480   0.70074   0.91573   0.00000  Uiso   1.00
C2036  C     0.07978   0.72637   0.93826   0.00000  Uiso   1.00
C2037  C     0.19660   0.93921   0.88622   0.00000  Uiso   1.00
C2038  C     0.21312   0.95564   0.93128   0.00000  Uiso   1.00
C2039  C     0.24940   0.98947   0.92666   0.00000  Uiso   1.00
C2040  C     0.20045   0.72819   0.61760   0.00000  Uiso   1.00
C2041  C     0.21442   0.70564   0.57435   0.00000  Uiso   1.00
C2042  C     0.25252   0.67580   0.58065   0.00000  Uiso   1.00
C2043  C     0.03726   0.72723   0.72781   0.00000  Uiso   1.00
C2044  C     0.16637   0.83329   0.83510   0.00000  Uiso   1.00
C2045  C     0.32740   0.71540   0.70952   0.00000  Uiso   1.00
C2046  C     0.32960   0.67965   0.67252   0.00000  Uiso   1.00
C2047  C     0.27883   0.89225   0.67006   0.00000  Uiso   1.00
C2048  C     0.31349   0.88856   0.63643   0.00000  Uiso   1.00
C2049  C     0.29672   0.87279   0.59181   0.00000  Uiso   1.00
C2050  C     0.27740   0.78024   0.83682   0.00000  Uiso   1.00
C2051  C     0.31249   0.78289   0.87056   0.00000  Uiso   1.00
C2052  C     0.29665   0.79718   0.91561   0.00000  Uiso   1.00
C2053  C     0.04610   0.93665   0.78299   0.00000  Uiso   1.00
C2054  C     0.00614   0.95471   0.80308   0.00000  Uiso   1.00
C2055  C     0.13950   0.69100   0.72459   0.00000  Uiso   1.00
C2056  C     0.01482   0.98594   0.84282   0.00000  Uiso   1.00
C2057  C     0.19521   0.97563   0.77376   0.00000  Uiso   1.00
C2058  C     0.19475   0.69189   0.77438   0.00000  Uiso   1.00
C2059  C     0.13867   0.97478   0.72563   0.00000  Uiso   1.00
C2060  C     0.01951   0.79345   0.76469   0.00000  Uiso   1.00
Cu2061 Cu    0.16667   0.88022   0.75000   0.00000  Uiso   1.00
Cu2062 Cu    0.16667   0.78645   0.75000   0.00000  Uiso   1.00
H2063  H     0.11868   0.70932   0.70319   0.00000  Uiso   1.00
H2064  H     0.11393   0.91490   0.63564   0.00000  Uiso   1.00
H2065  H     0.13603   0.96709   0.54993   0.00000  Uiso   1.00
H2066  H     0.10178   0.91778   0.55635   0.00000  Uiso   1.00
H2067  H     0.05480   0.96702   0.60126   0.00000  Uiso   1.00
H2068  H     0.06269   0.99054   0.54715   0.00000  Uiso   1.00
H2069  H     0.08868   0.68369   0.59360   0.00000  Uiso   1.00
H2070  H     0.13481   0.70340   0.84857   0.00000  Uiso   1.00
H2071  H     0.11006   0.75538   0.86480   0.00000  Uiso   1.00
H2072  H     0.10295   0.99943   0.90422   0.00000  Uiso   1.00
H2073  H     0.13936   0.69412   0.94016   0.00000  Uiso   1.00
H2074  H     0.21835   0.95729   0.79238   0.00000  Uiso   1.00
H2075  H     0.09000   0.76153   0.94985   0.00000  Uiso   1.00
H2076  H     0.06921   0.70580   0.96691   0.00000  Uiso   1.00
H2077  H     0.05356   0.73033   0.91520   0.00000  Uiso   1.00
H2078  H     0.19345   0.97057   0.86520   0.00000  Uiso   1.00
H2079  H     0.21929   0.91587   0.87012   0.00000  Uiso   1.00
H2080  H     0.18853   0.97315   0.94993   0.00000  Uiso   1.00
H2081  H     0.22371   0.92501   0.95046   0.00000  Uiso   1.00
H2082  H     0.27533   0.97139   0.91064   0.00000  Uiso   1.00
H2083  H     0.25966   0.66837   0.95961   0.00000  Uiso   1.00
H2084  H     0.24051   0.68713   0.90701   0.00000  Uiso   1.00
H2085  H     0.21710   0.71084   0.79407   0.00000  Uiso   1.00
H2086  H     0.19958   0.70079   0.64333   0.00000  Uiso   1.00
H2087  H     0.22347   0.75496   0.62893   0.00000  Uiso   1.00
H2088  H     0.18935   0.68335   0.56071   0.00000  Uiso   1.00
H2089  H     0.22186   0.73327   0.55010   0.00000  Uiso   1.00
H2090  H     0.27873   0.69810   0.59186   0.00000  Uiso   1.00
H2091  H     0.26078   0.99247   0.54900   0.00000  Uiso   1.00
H2092  H     0.24651   0.98109   0.60489   0.00000  Uiso   1.00
H2093  H     0.05396   0.69401   0.73223   0.00000  Uiso   1.00
H2094  H     0.05443   0.74816   0.70314   0.00000  Uiso   1.00
H2095  H     0.30750   0.70129   0.73569   0.00000  Uiso   1.00
H2096  H     0.11571   0.95579   0.70676   0.00000  Uiso   1.00
H2097  H     0.31284   0.74752   0.69640   0.00000  Uiso   1.00
H2098  H     0.01170   0.69526   0.64365   0.00000  Uiso   1.00
H2099  H     0.29803   0.66836   0.66317   0.00000  Uiso   1.00
H2100  H     0.01353   0.98177   0.68334   0.00000  Uiso   1.00
H2101  H     0.25611   0.91802   0.65804   0.00000  Uiso   1.00
H2102  H     0.26209   0.85814   0.67169   0.00000  Uiso   1.00
H2103  H     0.32895   0.92303   0.63268   0.00000  Uiso   1.00
H2104  H     0.00330   0.86283   0.64772   0.00000  Uiso   1.00
H2105  H     0.28180   0.83771   0.59436   0.00000  Uiso   1.00
H2106  H     0.32233   0.87056   0.56807   0.00000  Uiso   1.00
H2107  H     0.18351   0.90394   0.52990   0.00000  Uiso   1.00
H2108  H     0.27393   0.89826   0.57931   0.00000  Uiso   1.00
H2109  H     0.25359   0.75561   0.84919   0.00000  Uiso   1.00
H2110  H     0.26234   0.81497   0.83417   0.00000  Uiso   1.00
H2111  H     0.32721   0.74819   0.87303   0.00000  Uiso   1.00
H2112  H     0.00265   0.80891   0.85996   0.00000  Uiso   1.00
H2113  H     0.28205   0.83215   0.91398   0.00000  Uiso   1.00
H2114  H     0.32269   0.79897   0.93931   0.00000  Uiso   1.00
H2115  H     0.27381   0.77108   0.92751   0.00000  Uiso   1.00
H2116  H     0.06853   0.96605   0.78077   0.00000  Uiso   1.00
H2117  H     0.06022   0.91070   0.80560   0.00000  Uiso   1.00
H2118  H     0.18030   0.75781   0.96820   0.00000  Uiso   1.00
H2119  H     0.32208   0.97471   0.77835   0.00000  Uiso   1.00
H2120  H     0.31994   0.92463   0.81348   0.00000  Uiso   1.00
H2121  H     0.02993   0.96557   0.86923   0.00000  Uiso   1.00
H2122  H     0.31874   0.99986   0.85519   0.00000  Uiso   1.00
H2123  H     0.03494   0.68265   0.83379   0.00000  Uiso   1.00
H2124  H     0.14605   0.90336   0.97012   0.00000  Uiso   1.00
H2125  H     0.14864   0.75774   0.53138   0.00000  Uiso   1.00
H2126  H     0.13891   0.97110   0.63505   0.00000  Uiso   1.00
N2127  N     0.16667   0.95069   0.75000   0.00000  Uiso   1.00
N2128  N     0.16667   0.71598   0.75000   0.00000  Uiso   1.00
O2129  O     0.10655   0.87291   0.75000   0.00000  Uiso   1.00
O2130  O     0.17198   0.74675   0.88514   0.00000  Uiso   1.00
O2131  O     0.15706   0.91784   0.88831   0.00000  Uiso   1.00
O2132  O     0.16024   0.74672   0.61408   0.00000  Uiso   1.00
O2133  O     0.03701   0.74993   0.76934   0.00000  Uiso   1.00
O2134  O     0.29339   0.90832   0.71157   0.00000  Uiso   1.00
O2135  O     0.29107   0.76264   0.79593   0.00000  Uiso   1.00
O2136  O     0.03990   0.91852   0.73991   0.00000  Uiso   1.00
O2137  O     0.22679   0.79375   0.75001   0.00000  Uiso   1.00
O2138  O     0.22679   0.87291   0.75001   0.00000  Uiso   1.00
O2139  O     0.10655   0.79375   0.75000   0.00000  Uiso   1.00
O2140  O     0.16666   0.87293   0.68573   0.00000  Uiso   1.00
O2141  O     0.16667   0.79374   0.81427   0.00000  Uiso   1.00
O2142  O     0.16667   0.87293   0.81427   0.00000  Uiso   1.00
O2143  O     0.16666   0.79374   0.68573   0.00000  Uiso   1.00
O2144  O     0.17428   0.91824   0.61180   0.00000  Uiso   1.00
C2145  C     0.42054   0.83323   0.75082   0.00000  Uiso   1.00
C2146  C     0.64552   0.87209   0.73401   0.00000  Uiso   1.00
C2147  C     0.64447   0.79782   0.77300   0.00000  Uiso   1.00
C2148  C     0.35409   0.87517   0.74262   0.00000  Uiso   1.00
C2149  C     0.50819   0.87224   0.54695   0.00000  Uiso   1.00
C2150  C     0.50559   0.79001   0.95188   0.00000  Uiso   1.00
C2151  C     0.48835   0.87189   0.95296   0.00000  Uiso   1.00
C2152  C     0.49049   0.79014   0.54777   0.00000  Uiso   1.00
C2153  C     0.50432   0.87457   0.59222   0.00000  Uiso   1.00
C2154  C     0.50224   0.78950   0.90640   0.00000  Uiso   1.00
C2155  C     0.49338   0.87436   0.90784   0.00000  Uiso   1.00
C2156  C     0.57907   0.83364   0.75091   0.00000  Uiso   1.00
C2157  C     0.49536   0.78960   0.59314   0.00000  Uiso   1.00
C2158  C     0.49990   0.83256   0.61644   0.00000  Uiso   1.00
C2159  C     0.49862   0.83254   0.88345   0.00000  Uiso   1.00
C2160  C     0.49860   0.83094   0.52407   0.00000  Uiso   1.00
C2161  C     0.49732   0.83077   0.97571   0.00000  Uiso   1.00
C2162  C     0.62340   0.83453   0.75252   0.00000  Uiso   1.00
C2163  C     0.37559   0.83367   0.75256   0.00000  Uiso   1.00
C2164  C     0.46798   0.93804   0.61627   0.00000  Uiso   1.00
C2165  C     0.44707   0.95027   0.57233   0.00000  Uiso   1.00
C2166  C     0.41108   0.98329   0.57915   0.00000  Uiso   1.00
C2167  C     0.50005   0.83319   0.66486   0.00000  Uiso   1.00
C2168  C     0.46536   0.72827   0.87647   0.00000  Uiso   1.00
C2169  C     0.44814   0.70074   0.91573   0.00000  Uiso   1.00
C2170  C     0.41311   0.72637   0.93826   0.00000  Uiso   1.00
C2171  C     0.52993   0.93921   0.88622   0.00000  Uiso   1.00
C2172  C     0.54646   0.95564   0.93128   0.00000  Uiso   1.00
C2173  C     0.58273   0.98947   0.92666   0.00000  Uiso   1.00
C2174  C     0.53379   0.72819   0.61760   0.00000  Uiso   1.00
C2175  C     0.54775   0.70564   0.57435   0.00000  Uiso   1.00
C2176  C     0.58585   0.67580   0.58065   0.00000  Uiso   1.00
C2177  C     0.37059   0.72723   0.72781   0.00000  Uiso   1.00
C2178  C     0.49970   0.83329   0.83510   0.00000  Uiso   1.00
C2179  C     0.66074   0.71540   0.70952   0.00000  Uiso   1.00
C2180  C     0.66293   0.67965   0.67252   0.00000  Uiso   1.00
C2181  C     0.61216   0.89225   0.67006   0.00000  Uiso   1.00
C2182  C     0.64683   0.88856   0.63643   0.00000  Uiso   1.00
C2183  C     0.63005   0.87279   0.59181   0.00000  Uiso   1.00
C2184  C     0.61073   0.78024   0.83682   0.00000  Uiso   1.00
C2185  C     0.64582   0.78289   0.87056   0.00000  Uiso   1.00
C2186  C     0.62998   0.79718   0.91561   0.00000  Uiso   1.00
C2187  C     0.37944   0.93665   0.78299   0.00000  Uiso   1.00
C2188  C     0.33947   0.95471   0.80308   0.00000  Uiso   1.00
C2189  C     0.47284   0.69100   0.72459   0.00000  Uiso   1.00
C2190  C     0.34815   0.98594   0.84282   0.00000  Uiso   1.00
C2191  C     0.52854   0.97563   0.77376   0.00000  Uiso   1.00
C2192  C     0.52808   0.69189   0.77438   0.00000  Uiso   1.00
C2193  C     0.47200   0.97478   0.72563   0.00000  Uiso   1.00
C2194  C     0.35285   0.79345   0.76469   0.00000  Uiso   1.00
Cu2195 Cu    0.50000   0.88022   0.75000   0.00000  Uiso   1.00
Cu2196 Cu    0.50000   0.78645   0.75000   0.00000  Uiso   1.00
H2197  H     0.45202   0.70932   0.70319   0.00000  Uiso   1.00
H2198  H     0.44727   0.91490   0.63564   0.00000  Uiso   1.00
H2199  H     0.46936   0.96709   0.54993   0.00000  Uiso   1.00
H2200  H     0.43512   0.91778   0.55635   0.00000  Uiso   1.00
H2201  H     0.38813   0.96702   0.60126   0.00000  Uiso   1.00
H2202  H     0.39602   0.99054   0.54715   0.00000  Uiso   1.00
H2203  H     0.42201   0.68369   0.59360   0.00000  Uiso   1.00
H2204  H     0.46815   0.70340   0.84857   0.00000  Uiso   1.00
H2205  H     0.44339   0.75538   0.86480   0.00000  Uiso   1.00
H2206  H     0.43628   0.99943   0.90422   0.00000  Uiso   1.00
H2207  H     0.47269   0.69412   0.94016   0.00000  Uiso   1.00
H2208  H     0.55168   0.95729   0.79238   0.00000  Uiso   1.00
H2209  H     0.42333   0.76153   0.94985   0.00000  Uiso   1.00
H2210  H     0.40254   0.70580   0.96691   0.00000  Uiso   1.00
H2211  H     0.38690   0.73033   0.91520   0.00000  Uiso   1.00
H2212  H     0.52678   0.97057   0.86520   0.00000  Uiso   1.00
H2213  H     0.55262   0.91587   0.87012   0.00000  Uiso   1.00
H2214  H     0.52186   0.97315   0.94993   0.00000  Uiso   1.00
H2215  H     0.55705   0.92501   0.95046   0.00000  Uiso   1.00
H2216  H     0.60866   0.97139   0.91064   0.00000  Uiso   1.00
H2217  H     0.59299   0.66837   0.95961   0.00000  Uiso   1.00
H2218  H     0.57384   0.68713   0.90701   0.00000  Uiso   1.00
H2219  H     0.55043   0.71084   0.79407   0.00000  Uiso   1.00
H2220  H     0.53291   0.70079   0.64333   0.00000  Uiso   1.00
H2221  H     0.55680   0.75496   0.62893   0.00000  Uiso   1.00
H2222  H     0.52269   0.68335   0.56071   0.00000  Uiso   1.00
H2223  H     0.55520   0.73327   0.55010   0.00000  Uiso   1.00
H2224  H     0.61206   0.69810   0.59186   0.00000  Uiso   1.00
H2225  H     0.59411   0.99247   0.54900   0.00000  Uiso   1.00
H2226  H     0.57984   0.98109   0.60489   0.00000  Uiso   1.00
H2227  H     0.38729   0.69401   0.73223   0.00000  Uiso   1.00
H2228  H     0.38776   0.74816   0.70314   0.00000  Uiso   1.00
H2229  H     0.64083   0.70129   0.73569   0.00000  Uiso   1.00
H2230  H     0.44904   0.95579   0.70676   0.00000  Uiso   1.00
H2231  H     0.64617   0.74752   0.69640   0.00000  Uiso   1.00
H2232  H     0.34503   0.69526   0.64365   0.00000  Uiso   1.00
H2233  H     0.63136   0.66836   0.66317   0.00000  Uiso   1.00
H2234  H     0.34686   0.98177   0.68334   0.00000  Uiso   1.00
H2235  H     0.58944   0.91802   0.65804   0.00000  Uiso   1.00
H2236  H     0.59543   0.85814   0.67169   0.00000  Uiso   1.00
H2237  H     0.66228   0.92303   0.63268   0.00000  Uiso   1.00
H2238  H     0.33663   0.86283   0.64772   0.00000  Uiso   1.00
H2239  H     0.61513   0.83771   0.59436   0.00000  Uiso   1.00
H2240  H     0.65566   0.87056   0.56807   0.00000  Uiso   1.00
H2241  H     0.51684   0.90394   0.52990   0.00000  Uiso   1.00
H2242  H     0.60726   0.89826   0.57931   0.00000  Uiso   1.00
H2243  H     0.58693   0.75561   0.84919   0.00000  Uiso   1.00
H2244  H     0.59568   0.81497   0.83417   0.00000  Uiso   1.00
H2245  H     0.66055   0.74819   0.87303   0.00000  Uiso   1.00
H2246  H     0.33599   0.80891   0.85996   0.00000  Uiso   1.00
H2247  H     0.61539   0.83215   0.91398   0.00000  Uiso   1.00
H2248  H     0.65603   0.79897   0.93931   0.00000  Uiso   1.00
H2249  H     0.60714   0.77108   0.92751   0.00000  Uiso   1.00
H2250  H     0.40186   0.96605   0.78077   0.00000  Uiso   1.00
H2251  H     0.39356   0.91070   0.80560   0.00000  Uiso   1.00
H2252  H     0.51364   0.75781   0.96820   0.00000  Uiso   1.00
H2253  H     0.65541   0.97471   0.77835   0.00000  Uiso   1.00
H2254  H     0.65328   0.92463   0.81348   0.00000  Uiso   1.00
H2255  H     0.36326   0.96557   0.86923   0.00000  Uiso   1.00
H2256  H     0.65208   0.99986   0.85519   0.00000  Uiso   1.00
H2257  H     0.36827   0.68265   0.83379   0.00000  Uiso   1.00
H2258  H     0.47939   0.90336   0.97012   0.00000  Uiso   1.00
H2259  H     0.48197   0.75774   0.53138   0.00000  Uiso   1.00
H2260  H     0.47225   0.97110   0.63505   0.00000  Uiso   1.00
N2261  N     0.50000   0.95069   0.75000   0.00000  Uiso   1.00
N2262  N     0.50000   0.71598   0.75000   0.00000  Uiso   1.00
O2263  O     0.43988   0.87291   0.75000   0.00000  Uiso   1.00
O2264  O     0.50532   0.74675   0.88514   0.00000  Uiso   1.00
O2265  O     0.49040   0.91784   0.88831   0.00000  Uiso   1.00
O2266  O     0.49357   0.74672   0.61408   0.00000  Uiso   1.00
O2267  O     0.37034   0.74993   0.76934   0.00000  Uiso   1.00
O2268  O     0.62672   0.90832   0.71157   0.00000  Uiso   1.00
O2269  O     0.62440   0.76264   0.79593   0.00000  Uiso   1.00
O2270  O     0.37324   0.91852   0.73991   0.00000  Uiso   1.00
O2271  O     0.56012   0.79375   0.75001   0.00000  Uiso   1.00
O2272  O     0.56012   0.87291   0.75001   0.00000  Uiso   1.00
O2273  O     0.43988   0.79375   0.75000   0.00000  Uiso   1.00
O2274  O     0.50000   0.87293   0.68573   0.00000  Uiso   1.00
O2275  O     0.50000   0.79374   0.81427   0.00000  Uiso   1.00
O2276  O     0.50000   0.87293   0.81427   0.00000  Uiso   1.00
O2277  O     0.50000   0.79374   0.68573   0.00000  Uiso   1.00
O2278  O     0.50761   0.91824   0.61180   0.00000  Uiso   1.00
C2279  C     0.75387   0.83323   0.75082   0.00000  Uiso   1.00
C2280  C     0.97885   0.87209   0.73401   0.00000  Uiso   1.00
C2281  C     0.97780   0.79782   0.77300   0.00000  Uiso   1.00
C2282  C     0.68742   0.87517   0.74262   0.00000  Uiso   1.00
C2283  C     0.84152   0.87224   0.54695   0.00000  Uiso   1.00
C2284  C     0.83892   0.79001   0.95188   0.00000  Uiso   1.00
C2285  C     0.82168   0.87189   0.95296   0.00000  Uiso   1.00
C2286  C     0.82382   0.79014   0.54777   0.00000  Uiso   1.00
C2287  C     0.83766   0.87457   0.59222   0.00000  Uiso   1.00
C2288  C     0.83557   0.78950   0.90640   0.00000  Uiso   1.00
C2289  C     0.82671   0.87436   0.90784   0.00000  Uiso   1.00
C2290  C     0.91241   0.83364   0.75091   0.00000  Uiso   1.00
C2291  C     0.82869   0.78960   0.59314   0.00000  Uiso   1.00
C2292  C     0.83323   0.83256   0.61644   0.00000  Uiso   1.00
C2293  C     0.83196   0.83254   0.88345   0.00000  Uiso   1.00
C2294  C     0.83194   0.83094   0.52407   0.00000  Uiso   1.00
C2295  C     0.83065   0.83077   0.97571   0.00000  Uiso   1.00
C2296  C     0.95673   0.83453   0.75252   0.00000  Uiso   1.00
C2297  C     0.70892   0.83367   0.75256   0.00000  Uiso   1.00
C2298  C     0.80132   0.93804   0.61627   0.00000  Uiso   1.00
C2299  C     0.78040   0.95027   0.57233   0.00000  Uiso   1.00
C2300  C     0.74441   0.98329   0.57915   0.00000  Uiso   1.00
C2301  C     0.83339   0.83319   0.66486   0.00000  Uiso   1.00
C2302  C     0.79869   0.72827   0.87647   0.00000  Uiso   1.00
C2303  C     0.78147   0.70074   0.91573   0.00000  Uiso   1.00
C2304  C     0.74645   0.72637   0.93826   0.00000  Uiso   1.00
C2305  C     0.86327   0.93921   0.88622   0.00000  Uiso   1.00
C2306  C     0.87979   0.95564   0.93128   0.00000  Uiso   1.00
C2307  C     0.91607   0.98947   0.92666   0.00000  Uiso   1.00
C2308  C     0.86712   0.72819   0.61760   0.00000  Uiso   1.00
C2309  C     0.88108   0.70564   0.57435   0.00000  Uiso   1.00
C2310  C     0.91918   0.67580   0.58065   0.00000  Uiso   1.00
C2311  C     0.70392   0.72723   0.72781   0.00000  Uiso   1.00
C2312  C     0.83303   0.83329   0.83510   0.00000  Uiso   1.00
C2313  C     0.99407   0.71540   0.70952   0.00000  Uiso   1.00
C2314  C     0.99627   0.67965   0.67252   0.00000  Uiso   1.00
C2315  C     0.94549   0.89225   0.67006   0.00000  Uiso   1.00
C2316  C     0.98016   0.88856   0.63643   0.00000  Uiso   1.00
C2317  C     0.96339   0.87279   0.59181   0.00000  Uiso   1.00
C2318  C     0.94406   0.78024   0.83682   0.00000  Uiso   1.00
C2319  C     0.97915   0.78289   0.87056   0.00000  Uiso   1.00
C2320  C     0.96332   0.79718   0.91561   0.00000  Uiso   1.00
C2321  C     0.71277   0.93665   0.78299   0.00000  Uiso   1.00
C2322  C     0.67280   0.95471   0.80308   0.00000  Uiso   1.00
C2323  C     0.80617   0.69100   0.72459   0.00000  Uiso   1.00
C2324  C     0.68148   0.98594   0.84282   0.00000  Uiso   1.00
C2325  C     0.86187   0.97563   0.77376   0.00000  Uiso   1.00
C2326  C     0.86141   0.69189   0.77438   0.00000  Uiso   1.00
C2327  C     0.80533   0.97478   0.72563   0.00000  Uiso   1.00
C2328  C     0.68618   0.79345   0.76469   0.00000  Uiso   1.00
Cu2329 Cu    0.83333   0.88022   0.75000   0.00000  Uiso   1.00
Cu2330 Cu    0.83333   0.78645   0.75000   0.00000  Uiso   1.00
H2331  H     0.78535   0.70932   0.70319   0.00000  Uiso   1.00
H2332  H     0.78060   0.91490   0.63564   0.00000  Uiso   1.00
H2333  H     0.80269   0.96709   0.54993   0.00000  Uiso   1.00
H2334  H     0.76845   0.91778   0.55635   0.00000  Uiso   1.00
H2335  H     0.72147   0.96702   0.60126   0.00000  Uiso   1.00
H2336  H     0.72935   0.99054   0.54715   0.00000  Uiso   1.00
H2337  H     0.75535   0.68369   0.59360   0.00000  Uiso   1.00
H2338  H     0.80148   0.70340   0.84857   0.00000  Uiso   1.00
H2339  H     0.77673   0.75538   0.86480   0.00000  Uiso   1.00
H2340  H     0.76962   0.99943   0.90422   0.00000  Uiso   1.00
H2341  H     0.80603   0.69412   0.94016   0.00000  Uiso   1.00
H2342  H     0.88501   0.95729   0.79238   0.00000  Uiso   1.00
H2343  H     0.75666   0.76153   0.94985   0.00000  Uiso   1.00
H2344  H     0.73588   0.70580   0.96691   0.00000  Uiso   1.00
H2345  H     0.72023   0.73033   0.91520   0.00000  Uiso   1.00
H2346  H     0.86011   0.97057   0.86520   0.00000  Uiso   1.00
H2347  H     0.88595   0.91587   0.87012   0.00000  Uiso   1.00
H2348  H     0.85520   0.97315   0.94993   0.00000  Uiso   1.00
H2349  H     0.89038   0.92501   0.95046   0.00000  Uiso   1.00
H2350  H     0.94199   0.97139   0.91064   0.00000  Uiso   1.00
H2351  H     0.92633   0.66837   0.95961   0.00000  Uiso   1.00
H2352  H     0.90717   0.68713   0.90701   0.00000  Uiso   1.00
H2353  H     0.88376   0.71084   0.79407   0.00000  Uiso   1.00
H2354  H     0.86624   0.70079   0.64333   0.00000  Uiso   1.00
H2355  H     0.89014   0.75496   0.62893   0.00000  Uiso   1.00
H2356  H     0.85602   0.68335   0.56071   0.00000  Uiso   1.00
H2357  H     0.88853   0.73327   0.55010   0.00000  Uiso   1.00
H2358  H     0.94539   0.69810   0.59186   0.00000  Uiso   1.00
H2359  H     0.92745   0.99247   0.54900   0.00000  Uiso   1.00
H2360  H     0.91317   0.98109   0.60489   0.00000  Uiso   1.00
H2361  H     0.72063   0.69401   0.73223   0.00000  Uiso   1.00
H2362  H     0.72110   0.74816   0.70314   0.00000  Uiso   1.00
H2363  H     0.97417   0.70129   0.73569   0.00000  Uiso   1.00
H2364  H     0.78237   0.95579   0.70676   0.00000  Uiso   1.00
H2365  H     0.97950   0.74752   0.69640   0.00000  Uiso   1.00
H2366  H     0.67837   0.69526   0.64365   0.00000  Uiso   1.00
H2367  H     0.96469   0.66836   0.66317   0.00000  Uiso   1.00
H2368  H     0.68020   0.98177   0.68334   0.00000  Uiso   1.00
H2369  H     0.92278   0.91802   0.65804   0.00000  Uiso   1.00
H2370  H     0.92876   0.85814   0.67169   0.00000  Uiso   1.00
H2371  H     0.99562   0.92303   0.63268   0.00000  Uiso   1.00
H2372  H     0.66996   0.86283   0.64772   0.00000  Uiso   1.00
H2373  H     0.94846   0.83771   0.59436   0.00000  Uiso   1.00
H2374  H     0.98899   0.87056   0.56807   0.00000  Uiso   1.00
H2375  H     0.85017   0.90394   0.52990   0.00000  Uiso   1.00
H2376  H     0.94059   0.89826   0.57931   0.00000  Uiso   1.00
H2377  H     0.92026   0.75561   0.84919   0.00000  Uiso   1.00
H2378  H     0.92901   0.81497   0.83417   0.00000  Uiso   1.00
H2379  H     0.99388   0.74819   0.87303   0.00000  Uiso   1.00
H2380  H     0.66932   0.80891   0.85996   0.00000  Uiso   1.00
H2381  H     0.94872   0.83215   0.91398   0.00000  Uiso   1.00
H2382  H     0.98936   0.79897   0.93931   0.00000  Uiso   1.00
H2383  H     0.94047   0.77108   0.92751   0.00000  Uiso   1.00
H2384  H     0.73520   0.96605   0.78077   0.00000  Uiso   1.00
H2385  H     0.72689   0.91070   0.80560   0.00000  Uiso   1.00
H2386  H     0.84697   0.75781   0.96820   0.00000  Uiso   1.00
H2387  H     0.98875   0.97471   0.77835   0.00000  Uiso   1.00
H2388  H     0.98661   0.92463   0.81348   0.00000  Uiso   1.00
H2389  H     0.69659   0.96557   0.86923   0.00000  Uiso   1.00
H2390  H     0.98541   0.99986   0.85519   0.00000  Uiso   1.00
H2391  H     0.70161   0.68265   0.83379   0.00000  Uiso   1.00
H2392  H     0.81272   0.90336   0.97012   0.00000  Uiso   1.00
H2393  H     0.81530   0.75774   0.53138   0.00000  Uiso   1.00
H2394  H     0.80558   0.97110   0.63505   0.00000  Uiso   1.00
N2395  N     0.83333   0.95069   0.75000   0.00000  Uiso   1.00
N2396  N     0.83333   0.71598   0.75000   0.00000  Uiso   1.00
O2397  O     0.77321   0.87291   0.75000   0.00000  Uiso   1.00
O2398  O     0.83865   0.74675   0.88514   0.00000  Uiso   1.00
O2399  O     0.82373   0.91784   0.88831   0.00000  Uiso   1.00
O2400  O     0.82690   0.74672   0.61408   0.00000  Uiso   1.00
O2401  O     0.70368   0.74993   0.76934   0.00000  Uiso   1.00
O2402  O     0.96006   0.90832   0.71157   0.00000  Uiso   1.00
O2403  O     0.95773   0.76264   0.79593   0.00000  Uiso   1.00
O2404  O     0.70657   0.91852   0.73991   0.00000  Uiso   1.00
O2405  O     0.89345   0.79375   0.75001   0.00000  Uiso   1.00
O2406  O     0.89345   0.87291   0.75001   0.00000  Uiso   1.00
O2407  O     0.77321   0.79375   0.75000   0.00000  Uiso   1.00
O2408  O     0.83333   0.87293   0.68573   0.00000  Uiso   1.00
O2409  O     0.83334   0.79374   0.81427   0.00000  Uiso   1.00
O2410  O     0.83334   0.87293   0.81427   0.00000  Uiso   1.00
O2411  O     0.83333   0.79374   0.68573   0.00000  Uiso   1.00
O2412  O     0.84094   0.91824   0.61180   0.00000  Uiso   1.00
loop_
_geom_bond_atom_site_label_1
_geom_bond_atom_site_label_2
_geom_bond_distance
_geom_bond_site_symmetry_2
_ccdc_geom_bond_type
C1     O129    1.297   .     A
C1     O119    1.290   .     A
C1     C19     1.464   .     S
C2     C18     1.408   .     A
C2     O124    1.388   .     S
C2     C138    1.388   .     S
C3     C18     1.405   .     A
C3     O125    1.387   .     S
C3     C184    1.389   .     S
C4     C19     1.415   .     A
C4     O126    1.383   .     S
C4     C270    1.388   1_455 S
C5     C16     1.398   .     A
C5     C9      1.389   .     A
C5     H97     1.082   .     S
C6     C17     1.399   .     A
C6     C10     1.391   .     A
C6     H108    1.081   .     S
C7     C11     1.390   .     A
C7     H114    1.082   .     S
C7     C17     1.399   .     A
C8     C13     1.392   .     A
C8     H115    1.082   .     S
C8     C16     1.398   .     A
C9     O134    1.383   .     S
C9     C14     1.418   .     A
C10    C15     1.423   .     A
C10    O120    1.384   .     S
C11    C15     1.416   .     A
C11    O121    1.383   .     S
C12    O127    1.289   .     A
C12    O128    1.286   .     A
C12    C18     1.443   .     S
C13    C14     1.420   .     A
C13    O122    1.384   .     S
C14    C23     1.478   .     S
C15    C34     1.476   .     S
C16    C1223   1.476   1_554 S
C17    C1222   1.476   .     S
C19    C50     1.412   .     A
C20    H54     1.114   .     S
C20    H116    1.109   .     S
C20    C21     1.542   .     S
C20    O134    1.421   .     S
C21    C22     1.526   .     S
C21    H55     1.108   .     S
C21    H56     1.111   .     S
C22    H57     1.110   .     S
C22    H58     1.110   .     S
C22    H461    1.111   .     S
C23    O133    1.296   .     A
C23    O130    1.298   .     A
C24    H61     1.117   .     S
C24    O120    1.420   .     S
C24    C25     1.542   .     S
C24    H60     1.111   .     S
C25    H63     1.107   .     S
C25    C26     1.527   .     S
C25    H866    1.112   1_545 S
C26    H66     1.110   .     S
C26    H67     1.109   .     S
C26    H65     1.109   .     S
C27    O121    1.420   .     S
C27    H68     1.109   .     S
C27    H69     1.115   .     S
C27    C28     1.542   .     S
C28    C29     1.525   .     S
C28    H71     1.111   .     S
C28    H70     1.108   .     S
C29    H72     1.109   .     S
C29    H475    1.110   .     S
C29    H476    1.111   .     S
C30    C31     1.539   .     S
C30    H77     1.116   .     S
C30    O122    1.420   .     S
C30    H76     1.111   .     S
C31    H78     1.106   .     S
C31    C32     1.523   .     S
C31    H79     1.110   .     S
C32    H80     1.110   .     S
C32    H885    1.110   1_545 S
C32    H886    1.109   1_545 S
C33    H84     1.114   .     S
C33    H83     1.106   .     S
C33    O123    1.421   .     S
C33    C303    1.541   1_455 S
C34    O132    1.300   .     A
C34    O131    1.293   .     A
C35    C36     1.521   .     S
C35    H87     1.111   .     S
C35    H85     1.107   .     S
C35    C167    1.541   .     S
C36    H89     1.108   .     S
C36    H222    1.110   .     S
C36    H1028   1.108   1_545 S
C37    H92     1.112   .     S
C37    H91     1.110   .     S
C37    C38     1.535   .     S
C37    O124    1.421   .     S
C38    C39     1.527   .     S
C38    H93     1.107   .     S
C38    H228    1.111   .     S
C39    H98     1.111   .     S
C39    H95     1.111   .     S
C39    H96     1.110   .     S
C40    H99     1.110   .     S
C40    C41     1.533   .     S
C40    H100    1.114   .     S
C40    O125    1.419   .     S
C41    C42     1.527   .     S
C41    H101    1.108   .     S
C41    H236    1.111   .     S
C42    H103    1.111   .     S
C42    H104    1.110   .     S
C42    H105    1.111   .     S
C43    C44     1.535   .     S
C43    O126    1.422   .     S
C43    H106    1.109   .     S
C43    H107    1.115   .     S
C44    C46     1.525   .     S
C44    H377    1.105   1_455 S
C44    H378    1.111   1_455 S
C45    N118    1.364   .     A
C45    H53     1.078   .     S
C45    C853    1.415   1_545 S
C46    H111    1.111   .     S
C46    H380    1.108   1_455 S
C46    H515    1.111   .     S
C47    H64     1.081   .     S
C47    N117    1.366   .     A
C47    C450    1.416   .     S
C48    H75     1.079   .     S
C48    N118    1.367   .     A
C48    C851    1.416   1_545 S
C49    N117    1.365   .     A
C49    H86     1.080   .     S
C49    C447    1.415   .     S
C50    O123    1.379   .     S
C50    C271    1.389   1_455 S
Cu51   O128    1.970   .     S
Cu51   O119    1.965   .     S
Cu51   O130    1.971   .     S
Cu51   Cu52    2.677   .     S
Cu51   O132    1.973   .     S
Cu51   N117    2.012   .     S
Cu52   O129    1.970   .     S
Cu52   O133    1.973   .     S
Cu52   O131    1.971   .     S
Cu52   O127    1.965   .     S
Cu52   N118    2.012   .     S
H59    C826    1.111   1_545 S
H62    C427    1.112   .     S
H73    C833    1.110   1_545 S
H74    C833    1.111   1_545 S
H81    C434    1.110   .     S
H82    C434    1.109   .     S
H88    C304    1.110   1_455 S
H90    C706    1.108   1_455 S
H94    C306    1.111   1_455 S
H102   C309    1.111   1_455 S
H109   C178    1.105   .     S
H110   C178    1.111   .     S
H112   C180    1.108   .     S
H113   C850    1.111   1_545 S
C135   O263    1.297   .     A
C135   O253    1.290   .     A
C135   C153    1.464   .     S
C136   C152    1.408   .     A
C136   O258    1.388   .     S
C136   C272    1.388   .     S
C137   C152    1.405   .     A
C137   O259    1.387   .     S
C137   C318    1.389   .     S
C138   C153    1.415   .     A
C138   O260    1.383   .     S
C139   C150    1.398   .     A
C139   C143    1.389   .     A
C139   H231    1.082   .     S
C140   C151    1.399   .     A
C140   C144    1.391   .     A
C140   H242    1.081   .     S
C141   C145    1.390   .     A
C141   H248    1.082   .     S
C141   C151    1.399   .     A
C142   C147    1.392   .     A
C142   H249    1.082   .     S
C142   C150    1.398   .     A
C143   O268    1.383   .     S
C143   C148    1.418   .     A
C144   C149    1.423   .     A
C144   O254    1.384   .     S
C145   C149    1.416   .     A
C145   O255    1.383   .     S
C146   O261    1.289   .     A
C146   O262    1.286   .     A
C146   C152    1.443   .     S
C147   C148    1.420   .     A
C147   O256    1.384   .     S
C148   C157    1.478   .     S
C149   C168    1.476   .     S
C150   C1357   1.476   1_554 S
C151   C1356   1.476   .     S
C153   C184    1.412   .     A
C154   H188    1.114   .     S
C154   H250    1.109   .     S
C154   C155    1.542   .     S
C154   O268    1.421   .     S
C155   C156    1.526   .     S
C155   H189    1.108   .     S
C155   H190    1.111   .     S
C156   H191    1.110   .     S
C156   H192    1.110   .     S
C156   H595    1.111   .     S
C157   O267    1.296   .     A
C157   O264    1.298   .     A
C158   H195    1.117   .     S
C158   O254    1.420   .     S
C158   C159    1.542   .     S
C158   H194    1.111   .     S
C159   H197    1.107   .     S
C159   C160    1.527   .     S
C159   H1000   1.112   1_545 S
C160   H200    1.110   .     S
C160   H201    1.109   .     S
C160   H199    1.109   .     S
C161   O255    1.420   .     S
C161   H202    1.109   .     S
C161   H203    1.115   .     S
C161   C162    1.542   .     S
C162   C163    1.525   .     S
C162   H205    1.111   .     S
C162   H204    1.108   .     S
C163   H206    1.109   .     S
C163   H609    1.110   .     S
C163   H610    1.111   .     S
C164   C165    1.539   .     S
C164   H211    1.116   .     S
C164   O256    1.420   .     S
C164   H210    1.111   .     S
C165   H212    1.106   .     S
C165   C166    1.523   .     S
C165   H213    1.110   .     S
C166   H214    1.110   .     S
C166   H1019   1.110   1_545 S
C166   H1020   1.109   1_545 S
C167   H218    1.114   .     S
C167   H217    1.106   .     S
C167   O257    1.421   .     S
C168   O266    1.300   .     A
C168   O265    1.293   .     A
C169   C170    1.521   .     S
C169   H221    1.111   .     S
C169   H219    1.107   .     S
C169   C301    1.541   .     S
C170   H223    1.108   .     S
C170   H356    1.110   .     S
C170   H1162   1.108   1_545 S
C171   H226    1.112   .     S
C171   H225    1.110   .     S
C171   C172    1.535   .     S
C171   O258    1.421   .     S
C172   C173    1.527   .     S
C172   H227    1.107   .     S
C172   H362    1.111   .     S
C173   H232    1.111   .     S
C173   H229    1.111   .     S
C173   H230    1.110   .     S
C174   H233    1.110   .     S
C174   C175    1.533   .     S
C174   H234    1.114   .     S
C174   O259    1.419   .     S
C175   C176    1.527   .     S
C175   H235    1.108   .     S
C175   H370    1.111   .     S
C176   H237    1.111   .     S
C176   H238    1.110   .     S
C176   H239    1.111   .     S
C177   C178    1.535   .     S
C177   O260    1.422   .     S
C177   H240    1.109   .     S
C177   H241    1.115   .     S
C178   C180    1.525   .     S
C179   N252    1.364   .     A
C179   H187    1.078   .     S
C179   C987    1.415   1_545 S
C180   H245    1.111   .     S
C180   H649    1.111   .     S
C181   H198    1.081   .     S
C181   N251    1.366   .     A
C181   C584    1.416   .     S
C182   H209    1.079   .     S
C182   N252    1.367   .     A
C182   C985    1.416   1_545 S
C183   N251    1.365   .     A
C183   H220    1.080   .     S
C183   C581    1.415   .     S
C184   O257    1.379   .     S
Cu185  O262    1.970   .     S
Cu185  O253    1.965   .     S
Cu185  O264    1.971   .     S
Cu185  Cu186   2.677   .     S
Cu185  O266    1.973   .     S
Cu185  N251    2.012   .     S
Cu186  O263    1.970   .     S
Cu186  O267    1.973   .     S
Cu186  O265    1.971   .     S
Cu186  O261    1.965   .     S
Cu186  N252    2.012   .     S
H193   C960    1.111   1_545 S
H196   C561    1.112   .     S
H207   C967    1.110   1_545 S
H208   C967    1.111   1_545 S
H215   C568    1.110   .     S
H216   C568    1.109   .     S
H224   C438    1.108   .     S
H243   C312    1.105   .     S
H244   C312    1.111   .     S
H246   C314    1.108   .     S
H247   C984    1.111   1_545 S
C269   O397    1.297   .     A
C269   O387    1.290   .     A
C269   C287    1.464   .     S
C270   C286    1.408   .     A
C270   O392    1.388   .     S
C270   C4      1.388   1_655 S
C271   C286    1.405   .     A
C271   O393    1.387   .     S
C271   C50     1.389   1_655 S
C272   C287    1.415   .     A
C272   O394    1.383   .     S
C273   C284    1.398   .     A
C273   C277    1.389   .     A
C273   H365    1.082   .     S
C274   C285    1.399   .     A
C274   C278    1.391   .     A
C274   H376    1.081   .     S
C275   C279    1.390   .     A
C275   H382    1.082   .     S
C275   C285    1.399   .     A
C276   C281    1.392   .     A
C276   H383    1.082   .     S
C276   C284    1.398   .     A
C277   O402    1.383   .     S
C277   C282    1.418   .     A
C278   C283    1.423   .     A
C278   O388    1.384   .     S
C279   C283    1.416   .     A
C279   O389    1.383   .     S
C280   O395    1.289   .     A
C280   O396    1.286   .     A
C280   C286    1.443   .     S
C281   C282    1.420   .     A
C281   O390    1.384   .     S
C282   C291    1.478   .     S
C283   C302    1.476   .     S
C284   C1491   1.476   1_554 S
C285   C1490   1.476   .     S
C287   C318    1.412   .     A
C288   H322    1.114   .     S
C288   H384    1.109   .     S
C288   C289    1.542   .     S
C288   O402    1.421   .     S
C289   C290    1.526   .     S
C289   H323    1.108   .     S
C289   H324    1.111   .     S
C290   H325    1.110   .     S
C290   H326    1.110   .     S
C290   H729    1.111   .     S
C291   O401    1.296   .     A
C291   O398    1.298   .     A
C292   H329    1.117   .     S
C292   O388    1.420   .     S
C292   C293    1.542   .     S
C292   H328    1.111   .     S
C293   H331    1.107   .     S
C293   C294    1.527   .     S
C293   H1134   1.112   1_545 S
C294   H334    1.110   .     S
C294   H335    1.109   .     S
C294   H333    1.109   .     S
C295   O389    1.420   .     S
C295   H336    1.109   .     S
C295   H337    1.115   .     S
C295   C296    1.542   .     S
C296   C297    1.525   .     S
C296   H339    1.111   .     S
C296   H338    1.108   .     S
C297   H340    1.109   .     S
C297   H743    1.110   .     S
C297   H744    1.111   .     S
C298   C299    1.539   .     S
C298   H345    1.116   .     S
C298   O390    1.420   .     S
C298   H344    1.111   .     S
C299   H346    1.106   .     S
C299   C300    1.523   .     S
C299   H347    1.110   .     S
C300   H348    1.110   .     S
C300   H1153   1.110   1_545 S
C300   H1154   1.109   1_545 S
C301   H352    1.114   .     S
C301   H351    1.106   .     S
C301   O391    1.421   .     S
C302   O400    1.300   .     A
C302   O399    1.293   .     A
C303   C304    1.521   .     S
C303   H355    1.111   .     S
C303   H353    1.107   .     S
C303   C33     1.541   1_655 S
C304   H357    1.108   .     S
C304   H88     1.110   1_655 S
C304   H894    1.108   1_645 S
C305   H360    1.112   .     S
C305   H359    1.110   .     S
C305   C306    1.535   .     S
C305   O392    1.421   .     S
C306   C307    1.527   .     S
C306   H361    1.107   .     S
C306   H94     1.111   1_655 S
C307   H366    1.111   .     S
C307   H363    1.111   .     S
C307   H364    1.110   .     S
C308   H367    1.110   .     S
C308   C309    1.533   .     S
C308   H368    1.114   .     S
C308   O393    1.419   .     S
C309   C310    1.527   .     S
C309   H369    1.108   .     S
C309   H102    1.111   1_655 S
C310   H371    1.111   .     S
C310   H372    1.110   .     S
C310   H373    1.111   .     S
C311   C312    1.535   .     S
C311   O394    1.422   .     S
C311   H374    1.109   .     S
C311   H375    1.115   .     S
C312   C314    1.525   .     S
C313   N386    1.364   .     A
C313   H321    1.078   .     S
C313   C1121   1.415   1_545 S
C314   H379    1.111   .     S
C314   H783    1.111   .     S
C315   H332    1.081   .     S
C315   N385    1.366   .     A
C315   C718    1.416   .     S
C316   H343    1.079   .     S
C316   N386    1.367   .     A
C316   C1119   1.416   1_545 S
C317   N385    1.365   .     A
C317   H354    1.080   .     S
C317   C715    1.415   .     S
C318   O391    1.379   .     S
Cu319  O396    1.970   .     S
Cu319  O387    1.965   .     S
Cu319  O398    1.971   .     S
Cu319  Cu320   2.677   .     S
Cu319  O400    1.973   .     S
Cu319  N385    2.012   .     S
Cu320  O397    1.970   .     S
Cu320  O401    1.973   .     S
Cu320  O399    1.971   .     S
Cu320  O395    1.965   .     S
Cu320  N386    2.012   .     S
H327   C1094   1.111   1_545 S
H330   C695    1.112   .     S
H341   C1101   1.110   1_545 S
H342   C1101   1.111   1_545 S
H349   C702    1.110   .     S
H350   C702    1.109   .     S
H358   C572    1.108   .     S
H377   C44     1.105   1_655 S
H378   C44     1.111   1_655 S
H380   C46     1.108   1_655 S
H381   C1118   1.111   1_545 S
C403   O531    1.297   .     A
C403   O521    1.290   .     A
C403   C421    1.464   .     S
C404   C420    1.408   .     A
C404   O526    1.388   .     S
C404   C540    1.388   .     S
C405   C420    1.405   .     A
C405   O527    1.387   .     S
C405   C586    1.389   .     S
C406   C421    1.415   .     A
C406   O528    1.383   .     S
C406   C672    1.388   1_455 S
C407   C418    1.398   .     A
C407   C411    1.389   .     A
C407   H499    1.082   .     S
C408   C419    1.399   .     A
C408   C412    1.391   .     A
C408   H510    1.081   .     S
C409   C413    1.390   .     A
C409   H516    1.082   .     S
C409   C419    1.399   .     A
C410   C415    1.392   .     A
C410   H517    1.082   .     S
C410   C418    1.398   .     A
C411   O536    1.383   .     S
C411   C416    1.418   .     A
C412   C417    1.423   .     A
C412   O522    1.384   .     S
C413   C417    1.416   .     A
C413   O523    1.383   .     S
C414   O529    1.289   .     A
C414   O530    1.286   .     A
C414   C420    1.443   .     S
C415   C416    1.420   .     A
C415   O524    1.384   .     S
C416   C425    1.478   .     S
C417   C436    1.476   .     S
C418   C1625   1.476   1_554 S
C419   C1624   1.476   .     S
C421   C452    1.412   .     A
C422   H456    1.114   .     S
C422   H518    1.109   .     S
C422   C423    1.542   .     S
C422   O536    1.421   .     S
C423   C424    1.526   .     S
C423   H457    1.108   .     S
C423   H458    1.111   .     S
C424   H459    1.110   .     S
C424   H460    1.110   .     S
C424   H863    1.111   .     S
C425   O535    1.296   .     A
C425   O532    1.298   .     A
C426   H463    1.117   .     S
C426   O522    1.420   .     S
C426   C427    1.542   .     S
C426   H462    1.111   .     S
C427   H465    1.107   .     S
C427   C428    1.527   .     S
C428   H468    1.110   .     S
C428   H469    1.109   .     S
C428   H467    1.109   .     S
C429   O523    1.420   .     S
C429   H470    1.109   .     S
C429   H471    1.115   .     S
C429   C430    1.542   .     S
C430   C431    1.525   .     S
C430   H473    1.111   .     S
C430   H472    1.108   .     S
C431   H474    1.109   .     S
C431   H877    1.110   .     S
C431   H878    1.111   .     S
C432   C433    1.539   .     S
C432   H479    1.116   .     S
C432   O524    1.420   .     S
C432   H478    1.111   .     S
C433   H480    1.106   .     S
C433   C434    1.523   .     S
C433   H481    1.110   .     S
C434   H482    1.110   .     S
C435   H486    1.114   .     S
C435   H485    1.106   .     S
C435   O525    1.421   .     S
C435   C705    1.541   1_455 S
C436   O534    1.300   .     A
C436   O533    1.293   .     A
C437   C438    1.521   .     S
C437   H489    1.111   .     S
C437   H487    1.107   .     S
C437   C569    1.541   .     S
C438   H491    1.108   .     S
C438   H624    1.110   .     S
C439   H494    1.112   .     S
C439   H493    1.110   .     S
C439   C440    1.535   .     S
C439   O526    1.421   .     S
C440   C441    1.527   .     S
C440   H495    1.107   .     S
C440   H630    1.111   .     S
C441   H500    1.111   .     S
C441   H497    1.111   .     S
C441   H498    1.110   .     S
C442   H501    1.110   .     S
C442   C443    1.533   .     S
C442   H502    1.114   .     S
C442   O527    1.419   .     S
C443   C444    1.527   .     S
C443   H503    1.108   .     S
C443   H638    1.111   .     S
C444   H505    1.111   .     S
C444   H506    1.110   .     S
C444   H507    1.111   .     S
C445   C446    1.535   .     S
C445   O528    1.422   .     S
C445   H508    1.109   .     S
C445   H509    1.115   .     S
C446   C448    1.525   .     S
C446   H779    1.105   1_455 S
C446   H780    1.111   1_455 S
C447   N520    1.364   .     A
C447   H455    1.078   .     S
C448   H513    1.111   .     S
C448   H782    1.108   1_455 S
C448   H917    1.111   .     S
C449   H466    1.081   .     S
C449   N519    1.366   .     A
C449   C852    1.416   .     S
C450   H477    1.079   .     S
C450   N520    1.367   .     A
C451   N519    1.365   .     A
C451   H488    1.080   .     S
C451   C849    1.415   .     S
C452   O525    1.379   .     S
C452   C673    1.389   1_455 S
Cu453  O530    1.970   .     S
Cu453  O521    1.965   .     S
Cu453  O532    1.971   .     S
Cu453  Cu454   2.677   .     S
Cu453  O534    1.973   .     S
Cu453  N519    2.012   .     S
Cu454  O531    1.970   .     S
Cu454  O535    1.973   .     S
Cu454  O533    1.971   .     S
Cu454  O529    1.965   .     S
Cu454  N520    2.012   .     S
H464   C829    1.112   .     S
H483   C836    1.110   .     S
H484   C836    1.109   .     S
H490   C706    1.110   1_455 S
H492   C1108   1.108   1_455 S
H496   C708    1.111   1_455 S
H504   C711    1.111   1_455 S
H511   C580    1.105   .     S
H512   C580    1.111   .     S
H514   C582    1.108   .     S
C537   O665    1.297   .     A
C537   O655    1.290   .     A
C537   C555    1.464   .     S
C538   C554    1.408   .     A
C538   O660    1.388   .     S
C538   C674    1.388   .     S
C539   C554    1.405   .     A
C539   O661    1.387   .     S
C539   C720    1.389   .     S
C540   C555    1.415   .     A
C540   O662    1.383   .     S
C541   C552    1.398   .     A
C541   C545    1.389   .     A
C541   H633    1.082   .     S
C542   C553    1.399   .     A
C542   C546    1.391   .     A
C542   H644    1.081   .     S
C543   C547    1.390   .     A
C543   H650    1.082   .     S
C543   C553    1.399   .     A
C544   C549    1.392   .     A
C544   H651    1.082   .     S
C544   C552    1.398   .     A
C545   O670    1.383   .     S
C545   C550    1.418   .     A
C546   C551    1.423   .     A
C546   O656    1.384   .     S
C547   C551    1.416   .     A
C547   O657    1.383   .     S
C548   O663    1.289   .     A
C548   O664    1.286   .     A
C548   C554    1.443   .     S
C549   C550    1.420   .     A
C549   O658    1.384   .     S
C550   C559    1.478   .     S
C551   C570    1.476   .     S
C552   C1759   1.476   1_554 S
C553   C1758   1.476   .     S
C555   C586    1.412   .     A
C556   H590    1.114   .     S
C556   H652    1.109   .     S
C556   C557    1.542   .     S
C556   O670    1.421   .     S
C557   C558    1.526   .     S
C557   H591    1.108   .     S
C557   H592    1.111   .     S
C558   H593    1.110   .     S
C558   H594    1.110   .     S
C558   H997    1.111   .     S
C559   O669    1.296   .     A
C559   O666    1.298   .     A
C560   H597    1.117   .     S
C560   O656    1.420   .     S
C560   C561    1.542   .     S
C560   H596    1.111   .     S
C561   H599    1.107   .     S
C561   C562    1.527   .     S
C562   H602    1.110   .     S
C562   H603    1.109   .     S
C562   H601    1.109   .     S
C563   O657    1.420   .     S
C563   H604    1.109   .     S
C563   H605    1.115   .     S
C563   C564    1.542   .     S
C564   C565    1.525   .     S
C564   H607    1.111   .     S
C564   H606    1.108   .     S
C565   H608    1.109   .     S
C565   H1011   1.110   .     S
C565   H1012   1.111   .     S
C566   C567    1.539   .     S
C566   H613    1.116   .     S
C566   O658    1.420   .     S
C566   H612    1.111   .     S
C567   H614    1.106   .     S
C567   C568    1.523   .     S
C567   H615    1.110   .     S
C568   H616    1.110   .     S
C569   H620    1.114   .     S
C569   H619    1.106   .     S
C569   O659    1.421   .     S
C570   O668    1.300   .     A
C570   O667    1.293   .     A
C571   C572    1.521   .     S
C571   H623    1.111   .     S
C571   H621    1.107   .     S
C571   C703    1.541   .     S
C572   H625    1.108   .     S
C572   H758    1.110   .     S
C573   H628    1.112   .     S
C573   H627    1.110   .     S
C573   C574    1.535   .     S
C573   O660    1.421   .     S
C574   C575    1.527   .     S
C574   H629    1.107   .     S
C574   H764    1.111   .     S
C575   H634    1.111   .     S
C575   H631    1.111   .     S
C575   H632    1.110   .     S
C576   H635    1.110   .     S
C576   C577    1.533   .     S
C576   H636    1.114   .     S
C576   O661    1.419   .     S
C577   C578    1.527   .     S
C577   H637    1.108   .     S
C577   H772    1.111   .     S
C578   H639    1.111   .     S
C578   H640    1.110   .     S
C578   H641    1.111   .     S
C579   C580    1.535   .     S
C579   O662    1.422   .     S
C579   H642    1.109   .     S
C579   H643    1.115   .     S
C580   C582    1.525   .     S
C581   N654    1.364   .     A
C581   H589    1.078   .     S
C582   H647    1.111   .     S
C582   H1051   1.111   .     S
C583   H600    1.081   .     S
C583   N653    1.366   .     A
C583   C986    1.416   .     S
C584   H611    1.079   .     S
C584   N654    1.367   .     A
C585   N653    1.365   .     A
C585   H622    1.080   .     S
C585   C983    1.415   .     S
C586   O659    1.379   .     S
Cu587  O664    1.970   .     S
Cu587  O655    1.965   .     S
Cu587  O666    1.971   .     S
Cu587  Cu588   2.677   .     S
Cu587  O668    1.973   .     S
Cu587  N653    2.012   .     S
Cu588  O665    1.970   .     S
Cu588  O669    1.973   .     S
Cu588  O667    1.971   .     S
Cu588  O663    1.965   .     S
Cu588  N654    2.012   .     S
H598   C963    1.112   .     S
H617   C970    1.110   .     S
H618   C970    1.109   .     S
H626   C840    1.108   .     S
H645   C714    1.105   .     S
H646   C714    1.111   .     S
H648   C716    1.108   .     S
C671   O799    1.297   .     A
C671   O789    1.290   .     A
C671   C689    1.464   .     S
C672   C688    1.408   .     A
C672   O794    1.388   .     S
C672   C406    1.388   1_655 S
C673   C688    1.405   .     A
C673   O795    1.387   .     S
C673   C452    1.389   1_655 S
C674   C689    1.415   .     A
C674   O796    1.383   .     S
C675   C686    1.398   .     A
C675   C679    1.389   .     A
C675   H767    1.082   .     S
C676   C687    1.399   .     A
C676   C680    1.391   .     A
C676   H778    1.081   .     S
C677   C681    1.390   .     A
C677   H784    1.082   .     S
C677   C687    1.399   .     A
C678   C683    1.392   .     A
C678   H785    1.082   .     S
C678   C686    1.398   .     A
C679   O804    1.383   .     S
C679   C684    1.418   .     A
C680   C685    1.423   .     A
C680   O790    1.384   .     S
C681   C685    1.416   .     A
C681   O791    1.383   .     S
C682   O797    1.289   .     A
C682   O798    1.286   .     A
C682   C688    1.443   .     S
C683   C684    1.420   .     A
C683   O792    1.384   .     S
C684   C693    1.478   .     S
C685   C704    1.476   .     S
C686   C1893   1.476   1_554 S
C687   C1892   1.476   .     S
C689   C720    1.412   .     A
C690   H724    1.114   .     S
C690   H786    1.109   .     S
C690   C691    1.542   .     S
C690   O804    1.421   .     S
C691   C692    1.526   .     S
C691   H725    1.108   .     S
C691   H726    1.111   .     S
C692   H727    1.110   .     S
C692   H728    1.110   .     S
C692   H1131   1.111   .     S
C693   O803    1.296   .     A
C693   O800    1.298   .     A
C694   H731    1.117   .     S
C694   O790    1.420   .     S
C694   C695    1.542   .     S
C694   H730    1.111   .     S
C695   H733    1.107   .     S
C695   C696    1.527   .     S
C696   H736    1.110   .     S
C696   H737    1.109   .     S
C696   H735    1.109   .     S
C697   O791    1.420   .     S
C697   H738    1.109   .     S
C697   H739    1.115   .     S
C697   C698    1.542   .     S
C698   C699    1.525   .     S
C698   H741    1.111   .     S
C698   H740    1.108   .     S
C699   H742    1.109   .     S
C699   H1145   1.110   .     S
C699   H1146   1.111   .     S
C700   C701    1.539   .     S
C700   H747    1.116   .     S
C700   O792    1.420   .     S
C700   H746    1.111   .     S
C701   H748    1.106   .     S
C701   C702    1.523   .     S
C701   H749    1.110   .     S
C702   H750    1.110   .     S
C703   H754    1.114   .     S
C703   H753    1.106   .     S
C703   O793    1.421   .     S
C704   O802    1.300   .     A
C704   O801    1.293   .     A
C705   C706    1.521   .     S
C705   H757    1.111   .     S
C705   H755    1.107   .     S
C705   C435    1.541   1_655 S
C706   H759    1.108   .     S
C706   H490    1.110   1_655 S
C706   H90     1.108   1_655 S
C707   H762    1.112   .     S
C707   H761    1.110   .     S
C707   C708    1.535   .     S
C707   O794    1.421   .     S
C708   C709    1.527   .     S
C708   H763    1.107   .     S
C708   H496    1.111   1_655 S
C709   H768    1.111   .     S
C709   H765    1.111   .     S
C709   H766    1.110   .     S
C710   H769    1.110   .     S
C710   C711    1.533   .     S
C710   H770    1.114   .     S
C710   O795    1.419   .     S
C711   C712    1.527   .     S
C711   H771    1.108   .     S
C711   H504    1.111   1_655 S
C712   H773    1.111   .     S
C712   H774    1.110   .     S
C712   H775    1.111   .     S
C713   C714    1.535   .     S
C713   O796    1.422   .     S
C713   H776    1.109   .     S
C713   H777    1.115   .     S
C714   C716    1.525   .     S
C715   N788    1.364   .     A
C715   H723    1.078   .     S
C716   H781    1.111   .     S
C716   H1185   1.111   .     S
C717   H734    1.081   .     S
C717   N787    1.366   .     A
C717   C1120   1.416   .     S
C718   H745    1.079   .     S
C718   N788    1.367   .     A
C719   N787    1.365   .     A
C719   H756    1.080   .     S
C719   C1117   1.415   .     S
C720   O793    1.379   .     S
Cu721  O798    1.970   .     S
Cu721  O789    1.965   .     S
Cu721  O800    1.971   .     S
Cu721  Cu722   2.677   .     S
Cu721  O802    1.973   .     S
Cu721  N787    2.012   .     S
Cu722  O799    1.970   .     S
Cu722  O803    1.973   .     S
Cu722  O801    1.971   .     S
Cu722  O797    1.965   .     S
Cu722  N788    2.012   .     S
H732   C1097   1.112   .     S
H751   C1104   1.110   .     S
H752   C1104   1.109   .     S
H760   C974    1.108   .     S
H779   C446    1.105   1_655 S
H780   C446    1.111   1_655 S
H782   C448    1.108   1_655 S
C805   O933    1.297   .     A
C805   O923    1.290   .     A
C805   C823    1.464   .     S
C806   C822    1.408   .     A
C806   O928    1.388   .     S
C806   C942    1.388   .     S
C807   C822    1.405   .     A
C807   O929    1.387   .     S
C807   C988    1.389   .     S
C808   C823    1.415   .     A
C808   O930    1.383   .     S
C808   C1074   1.388   1_455 S
C809   C820    1.398   .     A
C809   C813    1.389   .     A
C809   H901    1.082   .     S
C810   C821    1.399   .     A
C810   C814    1.391   .     A
C810   H912    1.081   .     S
C811   C815    1.390   .     A
C811   H918    1.082   .     S
C811   C821    1.399   .     A
C812   C817    1.392   .     A
C812   H919    1.082   .     S
C812   C820    1.398   .     A
C813   O938    1.383   .     S
C813   C818    1.418   .     A
C814   C819    1.423   .     A
C814   O924    1.384   .     S
C815   C819    1.416   .     A
C815   O925    1.383   .     S
C816   O931    1.289   .     A
C816   O932    1.286   .     A
C816   C822    1.443   .     S
C817   C818    1.420   .     A
C817   O926    1.384   .     S
C818   C827    1.478   .     S
C819   C838    1.476   .     S
C820   C2027   1.476   1_554 S
C821   C2026   1.476   .     S
C823   C854    1.412   .     A
C824   H858    1.114   .     S
C824   H920    1.109   .     S
C824   C825    1.542   .     S
C824   O938    1.421   .     S
C825   C826    1.526   .     S
C825   H859    1.108   .     S
C825   H860    1.111   .     S
C826   H861    1.110   .     S
C826   H862    1.110   .     S
C826   H59     1.111   1_565 S
C827   O937    1.296   .     A
C827   O934    1.298   .     A
C828   H865    1.117   .     S
C828   O924    1.420   .     S
C828   C829    1.542   .     S
C828   H864    1.111   .     S
C829   H867    1.107   .     S
C829   C830    1.527   .     S
C830   H870    1.110   .     S
C830   H871    1.109   .     S
C830   H869    1.109   .     S
C831   O925    1.420   .     S
C831   H872    1.109   .     S
C831   H873    1.115   .     S
C831   C832    1.542   .     S
C832   C833    1.525   .     S
C832   H875    1.111   .     S
C832   H874    1.108   .     S
C833   H876    1.109   .     S
C833   H73     1.110   1_565 S
C833   H74     1.111   1_565 S
C834   C835    1.539   .     S
C834   H881    1.116   .     S
C834   O926    1.420   .     S
C834   H880    1.111   .     S
C835   H882    1.106   .     S
C835   C836    1.523   .     S
C835   H883    1.110   .     S
C836   H884    1.110   .     S
C837   H888    1.114   .     S
C837   H887    1.106   .     S
C837   O927    1.421   .     S
C837   C1107   1.541   1_455 S
C838   O936    1.300   .     A
C838   O935    1.293   .     A
C839   C840    1.521   .     S
C839   H891    1.111   .     S
C839   H889    1.107   .     S
C839   C971    1.541   .     S
C840   H893    1.108   .     S
C840   H1026   1.110   .     S
C841   H896    1.112   .     S
C841   H895    1.110   .     S
C841   C842    1.535   .     S
C841   O928    1.421   .     S
C842   C843    1.527   .     S
C842   H897    1.107   .     S
C842   H1032   1.111   .     S
C843   H902    1.111   .     S
C843   H899    1.111   .     S
C843   H900    1.110   .     S
C844   H903    1.110   .     S
C844   C845    1.533   .     S
C844   H904    1.114   .     S
C844   O929    1.419   .     S
C845   C846    1.527   .     S
C845   H905    1.108   .     S
C845   H1040   1.111   .     S
C846   H907    1.111   .     S
C846   H908    1.110   .     S
C846   H909    1.111   .     S
C847   C848    1.535   .     S
C847   O930    1.422   .     S
C847   H910    1.109   .     S
C847   H911    1.115   .     S
C848   C850    1.525   .     S
C848   H1181   1.105   1_455 S
C848   H1182   1.111   1_455 S
C849   N922    1.364   .     A
C849   H857    1.078   .     S
C850   H915    1.111   .     S
C850   H1184   1.108   1_455 S
C850   H113    1.111   1_565 S
C851   H868    1.081   .     S
C851   N921    1.366   .     A
C851   C48     1.416   1_565 S
C852   H879    1.079   .     S
C852   N922    1.367   .     A
C853   N921    1.365   .     A
C853   H890    1.080   .     S
C853   C45     1.415   1_565 S
C854   O927    1.379   .     S
C854   C1075   1.389   1_455 S
Cu855  O932    1.970   .     S
Cu855  O923    1.965   .     S
Cu855  O934    1.971   .     S
Cu855  Cu856   2.677   .     S
Cu855  O936    1.973   .     S
Cu855  N921    2.012   .     S
Cu856  O933    1.970   .     S
Cu856  O937    1.973   .     S
Cu856  O935    1.971   .     S
Cu856  O931    1.965   .     S
Cu856  N922    2.012   .     S
H866   C25     1.112   1_565 S
H885   C32     1.110   1_565 S
H886   C32     1.109   1_565 S
H892   C1108   1.110   1_455 S
H894   C304    1.108   1_465 S
H898   C1110   1.111   1_455 S
H906   C1113   1.111   1_455 S
H913   C982    1.105   .     S
H914   C982    1.111   .     S
H916   C984    1.108   .     S
C939   O1067   1.297   .     A
C939   O1057   1.290   .     A
C939   C957    1.464   .     S
C940   C956    1.408   .     A
C940   O1062   1.388   .     S
C940   C1076   1.388   .     S
C941   C956    1.405   .     A
C941   O1063   1.387   .     S
C941   C1122   1.389   .     S
C942   C957    1.415   .     A
C942   O1064   1.383   .     S
C943   C954    1.398   .     A
C943   C947    1.389   .     A
C943   H1035   1.082   .     S
C944   C955    1.399   .     A
C944   C948    1.391   .     A
C944   H1046   1.081   .     S
C945   C949    1.390   .     A
C945   H1052   1.082   .     S
C945   C955    1.399   .     A
C946   C951    1.392   .     A
C946   H1053   1.082   .     S
C946   C954    1.398   .     A
C947   O1072   1.383   .     S
C947   C952    1.418   .     A
C948   C953    1.423   .     A
C948   O1058   1.384   .     S
C949   C953    1.416   .     A
C949   O1059   1.383   .     S
C950   O1065   1.289   .     A
C950   O1066   1.286   .     A
C950   C956    1.443   .     S
C951   C952    1.420   .     A
C951   O1060   1.384   .     S
C952   C961    1.478   .     S
C953   C972    1.476   .     S
C954   C2161   1.476   1_554 S
C955   C2160   1.476   .     S
C957   C988    1.412   .     A
C958   H992    1.114   .     S
C958   H1054   1.109   .     S
C958   C959    1.542   .     S
C958   O1072   1.421   .     S
C959   C960    1.526   .     S
C959   H993    1.108   .     S
C959   H994    1.111   .     S
C960   H995    1.110   .     S
C960   H996    1.110   .     S
C960   H193    1.111   1_565 S
C961   O1071   1.296   .     A
C961   O1068   1.298   .     A
C962   H999    1.117   .     S
C962   O1058   1.420   .     S
C962   C963    1.542   .     S
C962   H998    1.111   .     S
C963   H1001   1.107   .     S
C963   C964    1.527   .     S
C964   H1004   1.110   .     S
C964   H1005   1.109   .     S
C964   H1003   1.109   .     S
C965   O1059   1.420   .     S
C965   H1006   1.109   .     S
C965   H1007   1.115   .     S
C965   C966    1.542   .     S
C966   C967    1.525   .     S
C966   H1009   1.111   .     S
C966   H1008   1.108   .     S
C967   H1010   1.109   .     S
C967   H207    1.110   1_565 S
C967   H208    1.111   1_565 S
C968   C969    1.539   .     S
C968   H1015   1.116   .     S
C968   O1060   1.420   .     S
C968   H1014   1.111   .     S
C969   H1016   1.106   .     S
C969   C970    1.523   .     S
C969   H1017   1.110   .     S
C970   H1018   1.110   .     S
C971   H1022   1.114   .     S
C971   H1021   1.106   .     S
C971   O1061   1.421   .     S
C972   O1070   1.300   .     A
C972   O1069   1.293   .     A
C973   C974    1.521   .     S
C973   H1025   1.111   .     S
C973   H1023   1.107   .     S
C973   C1105   1.541   .     S
C974   H1027   1.108   .     S
C974   H1160   1.110   .     S
C975   H1030   1.112   .     S
C975   H1029   1.110   .     S
C975   C976    1.535   .     S
C975   O1062   1.421   .     S
C976   C977    1.527   .     S
C976   H1031   1.107   .     S
C976   H1166   1.111   .     S
C977   H1036   1.111   .     S
C977   H1033   1.111   .     S
C977   H1034   1.110   .     S
C978   H1037   1.110   .     S
C978   C979    1.533   .     S
C978   H1038   1.114   .     S
C978   O1063   1.419   .     S
C979   C980    1.527   .     S
C979   H1039   1.108   .     S
C979   H1174   1.111   .     S
C980   H1041   1.111   .     S
C980   H1042   1.110   .     S
C980   H1043   1.111   .     S
C981   C982    1.535   .     S
C981   O1064   1.422   .     S
C981   H1044   1.109   .     S
C981   H1045   1.115   .     S
C982   C984    1.525   .     S
C983   N1056   1.364   .     A
C983   H991    1.078   .     S
C984   H1049   1.111   .     S
C984   H247    1.111   1_565 S
C985   H1002   1.081   .     S
C985   N1055   1.366   .     A
C985   C182    1.416   1_565 S
C986   H1013   1.079   .     S
C986   N1056   1.367   .     A
C987   N1055   1.365   .     A
C987   H1024   1.080   .     S
C987   C179    1.415   1_565 S
C988   O1061   1.379   .     S
Cu989  O1066   1.970   .     S
Cu989  O1057   1.965   .     S
Cu989  O1068   1.971   .     S
Cu989  Cu990   2.677   .     S
Cu989  O1070   1.973   .     S
Cu989  N1055   2.012   .     S
Cu990  O1067   1.970   .     S
Cu990  O1071   1.973   .     S
Cu990  O1069   1.971   .     S
Cu990  O1065   1.965   .     S
Cu990  N1056   2.012   .     S
H1000  C159    1.112   1_565 S
H1019  C166    1.110   1_565 S
H1020  C166    1.109   1_565 S
H1028  C36     1.108   1_565 S
H1047  C1116   1.105   .     S
H1048  C1116   1.111   .     S
H1050  C1118   1.108   .     S
C1073  O1201   1.297   .     A
C1073  O1191   1.290   .     A
C1073  C1091   1.464   .     S
C1074  C1090   1.408   .     A
C1074  O1196   1.388   .     S
C1074  C808    1.388   1_655 S
C1075  C1090   1.405   .     A
C1075  O1197   1.387   .     S
C1075  C854    1.389   1_655 S
C1076  C1091   1.415   .     A
C1076  O1198   1.383   .     S
C1077  C1088   1.398   .     A
C1077  C1081   1.389   .     A
C1077  H1169   1.082   .     S
C1078  C1089   1.399   .     A
C1078  C1082   1.391   .     A
C1078  H1180   1.081   .     S
C1079  C1083   1.390   .     A
C1079  H1186   1.082   .     S
C1079  C1089   1.399   .     A
C1080  C1085   1.392   .     A
C1080  H1187   1.082   .     S
C1080  C1088   1.398   .     A
C1081  O1206   1.383   .     S
C1081  C1086   1.418   .     A
C1082  C1087   1.423   .     A
C1082  O1192   1.384   .     S
C1083  C1087   1.416   .     A
C1083  O1193   1.383   .     S
C1084  O1199   1.289   .     A
C1084  O1200   1.286   .     A
C1084  C1090   1.443   .     S
C1085  C1086   1.420   .     A
C1085  O1194   1.384   .     S
C1086  C1095   1.478   .     S
C1087  C1106   1.476   .     S
C1088  C2295   1.476   1_554 S
C1089  C2294   1.476   .     S
C1091  C1122   1.412   .     A
C1092  H1126   1.114   .     S
C1092  H1188   1.109   .     S
C1092  C1093   1.542   .     S
C1092  O1206   1.421   .     S
C1093  C1094   1.526   .     S
C1093  H1127   1.108   .     S
C1093  H1128   1.111   .     S
C1094  H1129   1.110   .     S
C1094  H1130   1.110   .     S
C1094  H327    1.111   1_565 S
C1095  O1205   1.296   .     A
C1095  O1202   1.298   .     A
C1096  H1133   1.117   .     S
C1096  O1192   1.420   .     S
C1096  C1097   1.542   .     S
C1096  H1132   1.111   .     S
C1097  H1135   1.107   .     S
C1097  C1098   1.527   .     S
C1098  H1138   1.110   .     S
C1098  H1139   1.109   .     S
C1098  H1137   1.109   .     S
C1099  O1193   1.420   .     S
C1099  H1140   1.109   .     S
C1099  H1141   1.115   .     S
C1099  C1100   1.542   .     S
C1100  C1101   1.525   .     S
C1100  H1143   1.111   .     S
C1100  H1142   1.108   .     S
C1101  H1144   1.109   .     S
C1101  H341    1.110   1_565 S
C1101  H342    1.111   1_565 S
C1102  C1103   1.539   .     S
C1102  H1149   1.116   .     S
C1102  O1194   1.420   .     S
C1102  H1148   1.111   .     S
C1103  H1150   1.106   .     S
C1103  C1104   1.523   .     S
C1103  H1151   1.110   .     S
C1104  H1152   1.110   .     S
C1105  H1156   1.114   .     S
C1105  H1155   1.106   .     S
C1105  O1195   1.421   .     S
C1106  O1204   1.300   .     A
C1106  O1203   1.293   .     A
C1107  C1108   1.521   .     S
C1107  H1159   1.111   .     S
C1107  H1157   1.107   .     S
C1107  C837    1.541   1_655 S
C1108  H1161   1.108   .     S
C1108  H892    1.110   1_655 S
C1108  H492    1.108   1_655 S
C1109  H1164   1.112   .     S
C1109  H1163   1.110   .     S
C1109  C1110   1.535   .     S
C1109  O1196   1.421   .     S
C1110  C1111   1.527   .     S
C1110  H1165   1.107   .     S
C1110  H898    1.111   1_655 S
C1111  H1170   1.111   .     S
C1111  H1167   1.111   .     S
C1111  H1168   1.110   .     S
C1112  H1171   1.110   .     S
C1112  C1113   1.533   .     S
C1112  H1172   1.114   .     S
C1112  O1197   1.419   .     S
C1113  C1114   1.527   .     S
C1113  H1173   1.108   .     S
C1113  H906    1.111   1_655 S
C1114  H1175   1.111   .     S
C1114  H1176   1.110   .     S
C1114  H1177   1.111   .     S
C1115  C1116   1.535   .     S
C1115  O1198   1.422   .     S
C1115  H1178   1.109   .     S
C1115  H1179   1.115   .     S
C1116  C1118   1.525   .     S
C1117  N1190   1.364   .     A
C1117  H1125   1.078   .     S
C1118  H1183   1.111   .     S
C1118  H381    1.111   1_565 S
C1119  H1136   1.081   .     S
C1119  N1189   1.366   .     A
C1119  C316    1.416   1_565 S
C1120  H1147   1.079   .     S
C1120  N1190   1.367   .     A
C1121  N1189   1.365   .     A
C1121  H1158   1.080   .     S
C1121  C313    1.415   1_565 S
C1122  O1195   1.379   .     S
Cu1123 O1200   1.970   .     S
Cu1123 O1191   1.965   .     S
Cu1123 O1202   1.971   .     S
Cu1123 Cu1124  2.677   .     S
Cu1123 O1204   1.973   .     S
Cu1123 N1189   2.012   .     S
Cu1124 O1201   1.970   .     S
Cu1124 O1205   1.973   .     S
Cu1124 O1203   1.971   .     S
Cu1124 O1199   1.965   .     S
Cu1124 N1190   2.012   .     S
H1134  C293    1.112   1_565 S
H1153  C300    1.110   1_565 S
H1154  C300    1.109   1_565 S
H1162  C170    1.108   1_565 S
H1181  C848    1.105   1_655 S
H1182  C848    1.111   1_655 S
H1184  C850    1.108   1_655 S
C1207  O1335   1.297   .     A
C1207  O1325   1.290   .     A
C1207  C1225   1.464   .     S
C1208  C1224   1.408   .     A
C1208  O1330   1.388   .     S
C1208  C1344   1.388   .     S
C1209  C1224   1.405   .     A
C1209  O1331   1.387   .     S
C1209  C1390   1.389   .     S
C1210  C1225   1.415   .     A
C1210  O1332   1.383   .     S
C1210  C1476   1.388   1_455 S
C1211  C1222   1.398   .     A
C1211  C1215   1.389   .     A
C1211  H1303   1.082   .     S
C1212  C1223   1.399   .     A
C1212  C1216   1.391   .     A
C1212  H1314   1.081   .     S
C1213  C1217   1.390   .     A
C1213  H1320   1.082   .     S
C1213  C1223   1.399   .     A
C1214  C1219   1.392   .     A
C1214  H1321   1.082   .     S
C1214  C1222   1.398   .     A
C1215  O1340   1.383   .     S
C1215  C1220   1.418   .     A
C1216  C1221   1.423   .     A
C1216  O1326   1.384   .     S
C1217  C1221   1.416   .     A
C1217  O1327   1.383   .     S
C1218  O1333   1.289   .     A
C1218  O1334   1.286   .     A
C1218  C1224   1.443   .     S
C1219  C1220   1.420   .     A
C1219  O1328   1.384   .     S
C1220  C1229   1.478   .     S
C1221  C1240   1.476   .     S
C1223  C16     1.476   1_556 S
C1225  C1256   1.412   .     A
C1226  H1260   1.114   .     S
C1226  H1322   1.109   .     S
C1226  C1227   1.542   .     S
C1226  O1340   1.421   .     S
C1227  C1228   1.526   .     S
C1227  H1261   1.108   .     S
C1227  H1262   1.111   .     S
C1228  H1263   1.110   .     S
C1228  H1264   1.110   .     S
C1228  H1667   1.111   .     S
C1229  O1339   1.296   .     A
C1229  O1336   1.298   .     A
C1230  H1267   1.117   .     S
C1230  O1326   1.420   .     S
C1230  C1231   1.542   .     S
C1230  H1266   1.111   .     S
C1231  H1269   1.107   .     S
C1231  C1232   1.527   .     S
C1231  H2072   1.112   1_545 S
C1232  H1272   1.110   .     S
C1232  H1273   1.109   .     S
C1232  H1271   1.109   .     S
C1233  O1327   1.420   .     S
C1233  H1274   1.109   .     S
C1233  H1275   1.115   .     S
C1233  C1234   1.542   .     S
C1234  C1235   1.525   .     S
C1234  H1277   1.111   .     S
C1234  H1276   1.108   .     S
C1235  H1278   1.109   .     S
C1235  H1681   1.110   .     S
C1235  H1682   1.111   .     S
C1236  C1237   1.539   .     S
C1236  H1283   1.116   .     S
C1236  O1328   1.420   .     S
C1236  H1282   1.111   .     S
C1237  H1284   1.106   .     S
C1237  C1238   1.523   .     S
C1237  H1285   1.110   .     S
C1238  H1286   1.110   .     S
C1238  H2091   1.110   1_545 S
C1238  H2092   1.109   1_545 S
C1239  H1290   1.114   .     S
C1239  H1289   1.106   .     S
C1239  O1329   1.421   .     S
C1239  C1509   1.541   1_455 S
C1240  O1338   1.300   .     A
C1240  O1337   1.293   .     A
C1241  C1242   1.521   .     S
C1241  H1293   1.111   .     S
C1241  H1291   1.107   .     S
C1241  C1373   1.541   .     S
C1242  H1295   1.108   .     S
C1242  H1428   1.110   .     S
C1242  H2234   1.108   1_545 S
C1243  H1298   1.112   .     S
C1243  H1297   1.110   .     S
C1243  C1244   1.535   .     S
C1243  O1330   1.421   .     S
C1244  C1245   1.527   .     S
C1244  H1299   1.107   .     S
C1244  H1434   1.111   .     S
C1245  H1304   1.111   .     S
C1245  H1301   1.111   .     S
C1245  H1302   1.110   .     S
C1246  H1305   1.110   .     S
C1246  C1247   1.533   .     S
C1246  H1306   1.114   .     S
C1246  O1331   1.419   .     S
C1247  C1248   1.527   .     S
C1247  H1307   1.108   .     S
C1247  H1442   1.111   .     S
C1248  H1309   1.111   .     S
C1248  H1310   1.110   .     S
C1248  H1311   1.111   .     S
C1249  C1250   1.535   .     S
C1249  O1332   1.422   .     S
C1249  H1312   1.109   .     S
C1249  H1313   1.115   .     S
C1250  C1252   1.525   .     S
C1250  H1583   1.105   1_455 S
C1250  H1584   1.111   1_455 S
C1251  N1324   1.364   .     A
C1251  H1259   1.078   .     S
C1251  C2059   1.415   1_545 S
C1252  H1317   1.111   .     S
C1252  H1586   1.108   1_455 S
C1252  H1721   1.111   .     S
C1253  H1270   1.081   .     S
C1253  N1323   1.366   .     A
C1253  C1656   1.416   .     S
C1254  H1281   1.079   .     S
C1254  N1324   1.367   .     A
C1254  C2057   1.416   1_545 S
C1255  N1323   1.365   .     A
C1255  H1292   1.080   .     S
C1255  C1653   1.415   .     S
C1256  O1329   1.379   .     S
C1256  C1477   1.389   1_455 S
Cu1257 O1334   1.970   .     S
Cu1257 O1325   1.965   .     S
Cu1257 O1336   1.971   .     S
Cu1257 Cu1258  2.677   .     S
Cu1257 O1338   1.973   .     S
Cu1257 N1323   2.012   .     S
Cu1258 O1335   1.970   .     S
Cu1258 O1339   1.973   .     S
Cu1258 O1337   1.971   .     S
Cu1258 O1333   1.965   .     S
Cu1258 N1324   2.012   .     S
H1265  C2032   1.111   1_545 S
H1268  C1633   1.112   .     S
H1279  C2039   1.110   1_545 S
H1280  C2039   1.111   1_545 S
H1287  C1640   1.110   .     S
H1288  C1640   1.109   .     S
H1294  C1510   1.110   1_455 S
H1296  C1912   1.108   1_455 S
H1300  C1512   1.111   1_455 S
H1308  C1515   1.111   1_455 S
H1315  C1384   1.105   .     S
H1316  C1384   1.111   .     S
H1318  C1386   1.108   .     S
H1319  C2056   1.111   1_545 S
C1341  O1469   1.297   .     A
C1341  O1459   1.290   .     A
C1341  C1359   1.464   .     S
C1342  C1358   1.408   .     A
C1342  O1464   1.388   .     S
C1342  C1478   1.388   .     S
C1343  C1358   1.405   .     A
C1343  O1465   1.387   .     S
C1343  C1524   1.389   .     S
C1344  C1359   1.415   .     A
C1344  O1466   1.383   .     S
C1345  C1356   1.398   .     A
C1345  C1349   1.389   .     A
C1345  H1437   1.082   .     S
C1346  C1357   1.399   .     A
C1346  C1350   1.391   .     A
C1346  H1448   1.081   .     S
C1347  C1351   1.390   .     A
C1347  H1454   1.082   .     S
C1347  C1357   1.399   .     A
C1348  C1353   1.392   .     A
C1348  H1455   1.082   .     S
C1348  C1356   1.398   .     A
C1349  O1474   1.383   .     S
C1349  C1354   1.418   .     A
C1350  C1355   1.423   .     A
C1350  O1460   1.384   .     S
C1351  C1355   1.416   .     A
C1351  O1461   1.383   .     S
C1352  O1467   1.289   .     A
C1352  O1468   1.286   .     A
C1352  C1358   1.443   .     S
C1353  C1354   1.420   .     A
C1353  O1462   1.384   .     S
C1354  C1363   1.478   .     S
C1355  C1374   1.476   .     S
C1357  C150    1.476   1_556 S
C1359  C1390   1.412   .     A
C1360  H1394   1.114   .     S
C1360  H1456   1.109   .     S
C1360  C1361   1.542   .     S
C1360  O1474   1.421   .     S
C1361  C1362   1.526   .     S
C1361  H1395   1.108   .     S
C1361  H1396   1.111   .     S
C1362  H1397   1.110   .     S
C1362  H1398   1.110   .     S
C1362  H1801   1.111   .     S
C1363  O1473   1.296   .     A
C1363  O1470   1.298   .     A
C1364  H1401   1.117   .     S
C1364  O1460   1.420   .     S
C1364  C1365   1.542   .     S
C1364  H1400   1.111   .     S
C1365  H1403   1.107   .     S
C1365  C1366   1.527   .     S
C1365  H2206   1.112   1_545 S
C1366  H1406   1.110   .     S
C1366  H1407   1.109   .     S
C1366  H1405   1.109   .     S
C1367  O1461   1.420   .     S
C1367  H1408   1.109   .     S
C1367  H1409   1.115   .     S
C1367  C1368   1.542   .     S
C1368  C1369   1.525   .     S
C1368  H1411   1.111   .     S
C1368  H1410   1.108   .     S
C1369  H1412   1.109   .     S
C1369  H1815   1.110   .     S
C1369  H1816   1.111   .     S
C1370  C1371   1.539   .     S
C1370  H1417   1.116   .     S
C1370  O1462   1.420   .     S
C1370  H1416   1.111   .     S
C1371  H1418   1.106   .     S
C1371  C1372   1.523   .     S
C1371  H1419   1.110   .     S
C1372  H1420   1.110   .     S
C1372  H2225   1.110   1_545 S
C1372  H2226   1.109   1_545 S
C1373  H1424   1.114   .     S
C1373  H1423   1.106   .     S
C1373  O1463   1.421   .     S
C1374  O1472   1.300   .     A
C1374  O1471   1.293   .     A
C1375  C1376   1.521   .     S
C1375  H1427   1.111   .     S
C1375  H1425   1.107   .     S
C1375  C1507   1.541   .     S
C1376  H1429   1.108   .     S
C1376  H1562   1.110   .     S
C1376  H2368   1.108   1_545 S
C1377  H1432   1.112   .     S
C1377  H1431   1.110   .     S
C1377  C1378   1.535   .     S
C1377  O1464   1.421   .     S
C1378  C1379   1.527   .     S
C1378  H1433   1.107   .     S
C1378  H1568   1.111   .     S
C1379  H1438   1.111   .     S
C1379  H1435   1.111   .     S
C1379  H1436   1.110   .     S
C1380  H1439   1.110   .     S
C1380  C1381   1.533   .     S
C1380  H1440   1.114   .     S
C1380  O1465   1.419   .     S
C1381  C1382   1.527   .     S
C1381  H1441   1.108   .     S
C1381  H1576   1.111   .     S
C1382  H1443   1.111   .     S
C1382  H1444   1.110   .     S
C1382  H1445   1.111   .     S
C1383  C1384   1.535   .     S
C1383  O1466   1.422   .     S
C1383  H1446   1.109   .     S
C1383  H1447   1.115   .     S
C1384  C1386   1.525   .     S
C1385  N1458   1.364   .     A
C1385  H1393   1.078   .     S
C1385  C2193   1.415   1_545 S
C1386  H1451   1.111   .     S
C1386  H1855   1.111   .     S
C1387  H1404   1.081   .     S
C1387  N1457   1.366   .     A
C1387  C1790   1.416   .     S
C1388  H1415   1.079   .     S
C1388  N1458   1.367   .     A
C1388  C2191   1.416   1_545 S
C1389  N1457   1.365   .     A
C1389  H1426   1.080   .     S
C1389  C1787   1.415   .     S
C1390  O1463   1.379   .     S
Cu1391 O1468   1.970   .     S
Cu1391 O1459   1.965   .     S
Cu1391 O1470   1.971   .     S
Cu1391 Cu1392  2.677   .     S
Cu1391 O1472   1.973   .     S
Cu1391 N1457   2.012   .     S
Cu1392 O1469   1.970   .     S
Cu1392 O1473   1.973   .     S
Cu1392 O1471   1.971   .     S
Cu1392 O1467   1.965   .     S
Cu1392 N1458   2.012   .     S
H1399  C2166   1.111   1_545 S
H1402  C1767   1.112   .     S
H1413  C2173   1.110   1_545 S
H1414  C2173   1.111   1_545 S
H1421  C1774   1.110   .     S
H1422  C1774   1.109   .     S
H1430  C1644   1.108   .     S
H1449  C1518   1.105   .     S
H1450  C1518   1.111   .     S
H1452  C1520   1.108   .     S
H1453  C2190   1.111   1_545 S
C1475  O1603   1.297   .     A
C1475  O1593   1.290   .     A
C1475  C1493   1.464   .     S
C1476  C1492   1.408   .     A
C1476  O1598   1.388   .     S
C1476  C1210   1.388   1_655 S
C1477  C1492   1.405   .     A
C1477  O1599   1.387   .     S
C1477  C1256   1.389   1_655 S
C1478  C1493   1.415   .     A
C1478  O1600   1.383   .     S
C1479  C1490   1.398   .     A
C1479  C1483   1.389   .     A
C1479  H1571   1.082   .     S
C1480  C1491   1.399   .     A
C1480  C1484   1.391   .     A
C1480  H1582   1.081   .     S
C1481  C1485   1.390   .     A
C1481  H1588   1.082   .     S
C1481  C1491   1.399   .     A
C1482  C1487   1.392   .     A
C1482  H1589   1.082   .     S
C1482  C1490   1.398   .     A
C1483  O1608   1.383   .     S
C1483  C1488   1.418   .     A
C1484  C1489   1.423   .     A
C1484  O1594   1.384   .     S
C1485  C1489   1.416   .     A
C1485  O1595   1.383   .     S
C1486  O1601   1.289   .     A
C1486  O1602   1.286   .     A
C1486  C1492   1.443   .     S
C1487  C1488   1.420   .     A
C1487  O1596   1.384   .     S
C1488  C1497   1.478   .     S
C1489  C1508   1.476   .     S
C1491  C284    1.476   1_556 S
C1493  C1524   1.412   .     A
C1494  H1528   1.114   .     S
C1494  H1590   1.109   .     S
C1494  C1495   1.542   .     S
C1494  O1608   1.421   .     S
C1495  C1496   1.526   .     S
C1495  H1529   1.108   .     S
C1495  H1530   1.111   .     S
C1496  H1531   1.110   .     S
C1496  H1532   1.110   .     S
C1496  H1935   1.111   .     S
C1497  O1607   1.296   .     A
C1497  O1604   1.298   .     A
C1498  H1535   1.117   .     S
C1498  O1594   1.420   .     S
C1498  C1499   1.542   .     S
C1498  H1534   1.111   .     S
C1499  H1537   1.107   .     S
C1499  C1500   1.527   .     S
C1499  H2340   1.112   1_545 S
C1500  H1540   1.110   .     S
C1500  H1541   1.109   .     S
C1500  H1539   1.109   .     S
C1501  O1595   1.420   .     S
C1501  H1542   1.109   .     S
C1501  H1543   1.115   .     S
C1501  C1502   1.542   .     S
C1502  C1503   1.525   .     S
C1502  H1545   1.111   .     S
C1502  H1544   1.108   .     S
C1503  H1546   1.109   .     S
C1503  H1949   1.110   .     S
C1503  H1950   1.111   .     S
C1504  C1505   1.539   .     S
C1504  H1551   1.116   .     S
C1504  O1596   1.420   .     S
C1504  H1550   1.111   .     S
C1505  H1552   1.106   .     S
C1505  C1506   1.523   .     S
C1505  H1553   1.110   .     S
C1506  H1554   1.110   .     S
C1506  H2359   1.110   1_545 S
C1506  H2360   1.109   1_545 S
C1507  H1558   1.114   .     S
C1507  H1557   1.106   .     S
C1507  O1597   1.421   .     S
C1508  O1606   1.300   .     A
C1508  O1605   1.293   .     A
C1509  C1510   1.521   .     S
C1509  H1561   1.111   .     S
C1509  H1559   1.107   .     S
C1509  C1239   1.541   1_655 S
C1510  H1563   1.108   .     S
C1510  H1294   1.110   1_655 S
C1510  H2100   1.108   1_645 S
C1511  H1566   1.112   .     S
C1511  H1565   1.110   .     S
C1511  C1512   1.535   .     S
C1511  O1598   1.421   .     S
C1512  C1513   1.527   .     S
C1512  H1567   1.107   .     S
C1512  H1300   1.111   1_655 S
C1513  H1572   1.111   .     S
C1513  H1569   1.111   .     S
C1513  H1570   1.110   .     S
C1514  H1573   1.110   .     S
C1514  C1515   1.533   .     S
C1514  H1574   1.114   .     S
C1514  O1599   1.419   .     S
C1515  C1516   1.527   .     S
C1515  H1575   1.108   .     S
C1515  H1308   1.111   1_655 S
C1516  H1577   1.111   .     S
C1516  H1578   1.110   .     S
C1516  H1579   1.111   .     S
C1517  C1518   1.535   .     S
C1517  O1600   1.422   .     S
C1517  H1580   1.109   .     S
C1517  H1581   1.115   .     S
C1518  C1520   1.525   .     S
C1519  N1592   1.364   .     A
C1519  H1527   1.078   .     S
C1519  C2327   1.415   1_545 S
C1520  H1585   1.111   .     S
C1520  H1989   1.111   .     S
C1521  H1538   1.081   .     S
C1521  N1591   1.366   .     A
C1521  C1924   1.416   .     S
C1522  H1549   1.079   .     S
C1522  N1592   1.367   .     A
C1522  C2325   1.416   1_545 S
C1523  N1591   1.365   .     A
C1523  H1560   1.080   .     S
C1523  C1921   1.415   .     S
C1524  O1597   1.379   .     S
Cu1525 O1602   1.970   .     S
Cu1525 O1593   1.965   .     S
Cu1525 O1604   1.971   .     S
Cu1525 Cu1526  2.677   .     S
Cu1525 O1606   1.973   .     S
Cu1525 N1591   2.012   .     S
Cu1526 O1603   1.970   .     S
Cu1526 O1607   1.973   .     S
Cu1526 O1605   1.971   .     S
Cu1526 O1601   1.965   .     S
Cu1526 N1592   2.012   .     S
H1533  C2300   1.111   1_545 S
H1536  C1901   1.112   .     S
H1547  C2307   1.110   1_545 S
H1548  C2307   1.111   1_545 S
H1555  C1908   1.110   .     S
H1556  C1908   1.109   .     S
H1564  C1778   1.108   .     S
H1583  C1250   1.105   1_655 S
H1584  C1250   1.111   1_655 S
H1586  C1252   1.108   1_655 S
H1587  C2324   1.111   1_545 S
C1609  O1737   1.297   .     A
C1609  O1727   1.290   .     A
C1609  C1627   1.464   .     S
C1610  C1626   1.408   .     A
C1610  O1732   1.388   .     S
C1610  C1746   1.388   .     S
C1611  C1626   1.405   .     A
C1611  O1733   1.387   .     S
C1611  C1792   1.389   .     S
C1612  C1627   1.415   .     A
C1612  O1734   1.383   .     S
C1612  C1878   1.388   1_455 S
C1613  C1624   1.398   .     A
C1613  C1617   1.389   .     A
C1613  H1705   1.082   .     S
C1614  C1625   1.399   .     A
C1614  C1618   1.391   .     A
C1614  H1716   1.081   .     S
C1615  C1619   1.390   .     A
C1615  H1722   1.082   .     S
C1615  C1625   1.399   .     A
C1616  C1621   1.392   .     A
C1616  H1723   1.082   .     S
C1616  C1624   1.398   .     A
C1617  O1742   1.383   .     S
C1617  C1622   1.418   .     A
C1618  C1623   1.423   .     A
C1618  O1728   1.384   .     S
C1619  C1623   1.416   .     A
C1619  O1729   1.383   .     S
C1620  O1735   1.289   .     A
C1620  O1736   1.286   .     A
C1620  C1626   1.443   .     S
C1621  C1622   1.420   .     A
C1621  O1730   1.384   .     S
C1622  C1631   1.478   .     S
C1623  C1642   1.476   .     S
C1625  C418    1.476   1_556 S
C1627  C1658   1.412   .     A
C1628  H1662   1.114   .     S
C1628  H1724   1.109   .     S
C1628  C1629   1.542   .     S
C1628  O1742   1.421   .     S
C1629  C1630   1.526   .     S
C1629  H1663   1.108   .     S
C1629  H1664   1.111   .     S
C1630  H1665   1.110   .     S
C1630  H1666   1.110   .     S
C1630  H2069   1.111   .     S
C1631  O1741   1.296   .     A
C1631  O1738   1.298   .     A
C1632  H1669   1.117   .     S
C1632  O1728   1.420   .     S
C1632  C1633   1.542   .     S
C1632  H1668   1.111   .     S
C1633  H1671   1.107   .     S
C1633  C1634   1.527   .     S
C1634  H1674   1.110   .     S
C1634  H1675   1.109   .     S
C1634  H1673   1.109   .     S
C1635  O1729   1.420   .     S
C1635  H1676   1.109   .     S
C1635  H1677   1.115   .     S
C1635  C1636   1.542   .     S
C1636  C1637   1.525   .     S
C1636  H1679   1.111   .     S
C1636  H1678   1.108   .     S
C1637  H1680   1.109   .     S
C1637  H2083   1.110   .     S
C1637  H2084   1.111   .     S
C1638  C1639   1.539   .     S
C1638  H1685   1.116   .     S
C1638  O1730   1.420   .     S
C1638  H1684   1.111   .     S
C1639  H1686   1.106   .     S
C1639  C1640   1.523   .     S
C1639  H1687   1.110   .     S
C1640  H1688   1.110   .     S
C1641  H1692   1.114   .     S
C1641  H1691   1.106   .     S
C1641  O1731   1.421   .     S
C1641  C1911   1.541   1_455 S
C1642  O1740   1.300   .     A
C1642  O1739   1.293   .     A
C1643  C1644   1.521   .     S
C1643  H1695   1.111   .     S
C1643  H1693   1.107   .     S
C1643  C1775   1.541   .     S
C1644  H1697   1.108   .     S
C1644  H1830   1.110   .     S
C1645  H1700   1.112   .     S
C1645  H1699   1.110   .     S
C1645  C1646   1.535   .     S
C1645  O1732   1.421   .     S
C1646  C1647   1.527   .     S
C1646  H1701   1.107   .     S
C1646  H1836   1.111   .     S
C1647  H1706   1.111   .     S
C1647  H1703   1.111   .     S
C1647  H1704   1.110   .     S
C1648  H1707   1.110   .     S
C1648  C1649   1.533   .     S
C1648  H1708   1.114   .     S
C1648  O1733   1.419   .     S
C1649  C1650   1.527   .     S
C1649  H1709   1.108   .     S
C1649  H1844   1.111   .     S
C1650  H1711   1.111   .     S
C1650  H1712   1.110   .     S
C1650  H1713   1.111   .     S
C1651  C1652   1.535   .     S
C1651  O1734   1.422   .     S
C1651  H1714   1.109   .     S
C1651  H1715   1.115   .     S
C1652  C1654   1.525   .     S
C1652  H1985   1.105   1_455 S
C1652  H1986   1.111   1_455 S
C1653  N1726   1.364   .     A
C1653  H1661   1.078   .     S
C1654  H1719   1.111   .     S
C1654  H1988   1.108   1_455 S
C1654  H2123   1.111   .     S
C1655  H1672   1.081   .     S
C1655  N1725   1.366   .     A
C1655  C2058   1.416   .     S
C1656  H1683   1.079   .     S
C1656  N1726   1.367   .     A
C1657  N1725   1.365   .     A
C1657  H1694   1.080   .     S
C1657  C2055   1.415   .     S
C1658  O1731   1.379   .     S
C1658  C1879   1.389   1_455 S
Cu1659 O1736   1.970   .     S
Cu1659 O1727   1.965   .     S
Cu1659 O1738   1.971   .     S
Cu1659 Cu1660  2.677   .     S
Cu1659 O1740   1.973   .     S
Cu1659 N1725   2.012   .     S
Cu1660 O1737   1.970   .     S
Cu1660 O1741   1.973   .     S
Cu1660 O1739   1.971   .     S
Cu1660 O1735   1.965   .     S
Cu1660 N1726   2.012   .     S
H1670  C2035   1.112   .     S
H1689  C2042   1.110   .     S
H1690  C2042   1.109   .     S
H1696  C1912   1.110   1_455 S
H1698  C2314   1.108   1_455 S
H1702  C1914   1.111   1_455 S
H1710  C1917   1.111   1_455 S
H1717  C1786   1.105   .     S
H1718  C1786   1.111   .     S
H1720  C1788   1.108   .     S
C1743  O1871   1.297   .     A
C1743  O1861   1.290   .     A
C1743  C1761   1.464   .     S
C1744  C1760   1.408   .     A
C1744  O1866   1.388   .     S
C1744  C1880   1.388   .     S
C1745  C1760   1.405   .     A
C1745  O1867   1.387   .     S
C1745  C1926   1.389   .     S
C1746  C1761   1.415   .     A
C1746  O1868   1.383   .     S
C1747  C1758   1.398   .     A
C1747  C1751   1.389   .     A
C1747  H1839   1.082   .     S
C1748  C1759   1.399   .     A
C1748  C1752   1.391   .     A
C1748  H1850   1.081   .     S
C1749  C1753   1.390   .     A
C1749  H1856   1.082   .     S
C1749  C1759   1.399   .     A
C1750  C1755   1.392   .     A
C1750  H1857   1.082   .     S
C1750  C1758   1.398   .     A
C1751  O1876   1.383   .     S
C1751  C1756   1.418   .     A
C1752  C1757   1.423   .     A
C1752  O1862   1.384   .     S
C1753  C1757   1.416   .     A
C1753  O1863   1.383   .     S
C1754  O1869   1.289   .     A
C1754  O1870   1.286   .     A
C1754  C1760   1.443   .     S
C1755  C1756   1.420   .     A
C1755  O1864   1.384   .     S
C1756  C1765   1.478   .     S
C1757  C1776   1.476   .     S
C1759  C552    1.476   1_556 S
C1761  C1792   1.412   .     A
C1762  H1796   1.114   .     S
C1762  H1858   1.109   .     S
C1762  C1763   1.542   .     S
C1762  O1876   1.421   .     S
C1763  C1764   1.526   .     S
C1763  H1797   1.108   .     S
C1763  H1798   1.111   .     S
C1764  H1799   1.110   .     S
C1764  H1800   1.110   .     S
C1764  H2203   1.111   .     S
C1765  O1875   1.296   .     A
C1765  O1872   1.298   .     A
C1766  H1803   1.117   .     S
C1766  O1862   1.420   .     S
C1766  C1767   1.542   .     S
C1766  H1802   1.111   .     S
C1767  H1805   1.107   .     S
C1767  C1768   1.527   .     S
C1768  H1808   1.110   .     S
C1768  H1809   1.109   .     S
C1768  H1807   1.109   .     S
C1769  O1863   1.420   .     S
C1769  H1810   1.109   .     S
C1769  H1811   1.115   .     S
C1769  C1770   1.542   .     S
C1770  C1771   1.525   .     S
C1770  H1813   1.111   .     S
C1770  H1812   1.108   .     S
C1771  H1814   1.109   .     S
C1771  H2217   1.110   .     S
C1771  H2218   1.111   .     S
C1772  C1773   1.539   .     S
C1772  H1819   1.116   .     S
C1772  O1864   1.420   .     S
C1772  H1818   1.111   .     S
C1773  H1820   1.106   .     S
C1773  C1774   1.523   .     S
C1773  H1821   1.110   .     S
C1774  H1822   1.110   .     S
C1775  H1826   1.114   .     S
C1775  H1825   1.106   .     S
C1775  O1865   1.421   .     S
C1776  O1874   1.300   .     A
C1776  O1873   1.293   .     A
C1777  C1778   1.521   .     S
C1777  H1829   1.111   .     S
C1777  H1827   1.107   .     S
C1777  C1909   1.541   .     S
C1778  H1831   1.108   .     S
C1778  H1964   1.110   .     S
C1779  H1834   1.112   .     S
C1779  H1833   1.110   .     S
C1779  C1780   1.535   .     S
C1779  O1866   1.421   .     S
C1780  C1781   1.527   .     S
C1780  H1835   1.107   .     S
C1780  H1970   1.111   .     S
C1781  H1840   1.111   .     S
C1781  H1837   1.111   .     S
C1781  H1838   1.110   .     S
C1782  H1841   1.110   .     S
C1782  C1783   1.533   .     S
C1782  H1842   1.114   .     S
C1782  O1867   1.419   .     S
C1783  C1784   1.527   .     S
C1783  H1843   1.108   .     S
C1783  H1978   1.111   .     S
C1784  H1845   1.111   .     S
C1784  H1846   1.110   .     S
C1784  H1847   1.111   .     S
C1785  C1786   1.535   .     S
C1785  O1868   1.422   .     S
C1785  H1848   1.109   .     S
C1785  H1849   1.115   .     S
C1786  C1788   1.525   .     S
C1787  N1860   1.364   .     A
C1787  H1795   1.078   .     S
C1788  H1853   1.111   .     S
C1788  H2257   1.111   .     S
C1789  H1806   1.081   .     S
C1789  N1859   1.366   .     A
C1789  C2192   1.416   .     S
C1790  H1817   1.079   .     S
C1790  N1860   1.367   .     A
C1791  N1859   1.365   .     A
C1791  H1828   1.080   .     S
C1791  C2189   1.415   .     S
C1792  O1865   1.379   .     S
Cu1793 O1870   1.970   .     S
Cu1793 O1861   1.965   .     S
Cu1793 O1872   1.971   .     S
Cu1793 Cu1794  2.677   .     S
Cu1793 O1874   1.973   .     S
Cu1793 N1859   2.012   .     S
Cu1794 O1871   1.970   .     S
Cu1794 O1875   1.973   .     S
Cu1794 O1873   1.971   .     S
Cu1794 O1869   1.965   .     S
Cu1794 N1860   2.012   .     S
H1804  C2169   1.112   .     S
H1823  C2176   1.110   .     S
H1824  C2176   1.109   .     S
H1832  C2046   1.108   .     S
H1851  C1920   1.105   .     S
H1852  C1920   1.111   .     S
H1854  C1922   1.108   .     S
C1877  O2005   1.297   .     A
C1877  O1995   1.290   .     A
C1877  C1895   1.464   .     S
C1878  C1894   1.408   .     A
C1878  O2000   1.388   .     S
C1878  C1612   1.388   1_655 S
C1879  C1894   1.405   .     A
C1879  O2001   1.387   .     S
C1879  C1658   1.389   1_655 S
C1880  C1895   1.415   .     A
C1880  O2002   1.383   .     S
C1881  C1892   1.398   .     A
C1881  C1885   1.389   .     A
C1881  H1973   1.082   .     S
C1882  C1893   1.399   .     A
C1882  C1886   1.391   .     A
C1882  H1984   1.081   .     S
C1883  C1887   1.390   .     A
C1883  H1990   1.082   .     S
C1883  C1893   1.399   .     A
C1884  C1889   1.392   .     A
C1884  H1991   1.082   .     S
C1884  C1892   1.398   .     A
C1885  O2010   1.383   .     S
C1885  C1890   1.418   .     A
C1886  C1891   1.423   .     A
C1886  O1996   1.384   .     S
C1887  C1891   1.416   .     A
C1887  O1997   1.383   .     S
C1888  O2003   1.289   .     A
C1888  O2004   1.286   .     A
C1888  C1894   1.443   .     S
C1889  C1890   1.420   .     A
C1889  O1998   1.384   .     S
C1890  C1899   1.478   .     S
C1891  C1910   1.476   .     S
C1893  C686    1.476   1_556 S
C1895  C1926   1.412   .     A
C1896  H1930   1.114   .     S
C1896  H1992   1.109   .     S
C1896  C1897   1.542   .     S
C1896  O2010   1.421   .     S
C1897  C1898   1.526   .     S
C1897  H1931   1.108   .     S
C1897  H1932   1.111   .     S
C1898  H1933   1.110   .     S
C1898  H1934   1.110   .     S
C1898  H2337   1.111   .     S
C1899  O2009   1.296   .     A
C1899  O2006   1.298   .     A
C1900  H1937   1.117   .     S
C1900  O1996   1.420   .     S
C1900  C1901   1.542   .     S
C1900  H1936   1.111   .     S
C1901  H1939   1.107   .     S
C1901  C1902   1.527   .     S
C1902  H1942   1.110   .     S
C1902  H1943   1.109   .     S
C1902  H1941   1.109   .     S
C1903  O1997   1.420   .     S
C1903  H1944   1.109   .     S
C1903  H1945   1.115   .     S
C1903  C1904   1.542   .     S
C1904  C1905   1.525   .     S
C1904  H1947   1.111   .     S
C1904  H1946   1.108   .     S
C1905  H1948   1.109   .     S
C1905  H2351   1.110   .     S
C1905  H2352   1.111   .     S
C1906  C1907   1.539   .     S
C1906  H1953   1.116   .     S
C1906  O1998   1.420   .     S
C1906  H1952   1.111   .     S
C1907  H1954   1.106   .     S
C1907  C1908   1.523   .     S
C1907  H1955   1.110   .     S
C1908  H1956   1.110   .     S
C1909  H1960   1.114   .     S
C1909  H1959   1.106   .     S
C1909  O1999   1.421   .     S
C1910  O2008   1.300   .     A
C1910  O2007   1.293   .     A
C1911  C1912   1.521   .     S
C1911  H1963   1.111   .     S
C1911  H1961   1.107   .     S
C1911  C1641   1.541   1_655 S
C1912  H1965   1.108   .     S
C1912  H1696   1.110   1_655 S
C1912  H1296   1.108   1_655 S
C1913  H1968   1.112   .     S
C1913  H1967   1.110   .     S
C1913  C1914   1.535   .     S
C1913  O2000   1.421   .     S
C1914  C1915   1.527   .     S
C1914  H1969   1.107   .     S
C1914  H1702   1.111   1_655 S
C1915  H1974   1.111   .     S
C1915  H1971   1.111   .     S
C1915  H1972   1.110   .     S
C1916  H1975   1.110   .     S
C1916  C1917   1.533   .     S
C1916  H1976   1.114   .     S
C1916  O2001   1.419   .     S
C1917  C1918   1.527   .     S
C1917  H1977   1.108   .     S
C1917  H1710   1.111   1_655 S
C1918  H1979   1.111   .     S
C1918  H1980   1.110   .     S
C1918  H1981   1.111   .     S
C1919  C1920   1.535   .     S
C1919  O2002   1.422   .     S
C1919  H1982   1.109   .     S
C1919  H1983   1.115   .     S
C1920  C1922   1.525   .     S
C1921  N1994   1.364   .     A
C1921  H1929   1.078   .     S
C1922  H1987   1.111   .     S
C1922  H2391   1.111   .     S
C1923  H1940   1.081   .     S
C1923  N1993   1.366   .     A
C1923  C2326   1.416   .     S
C1924  H1951   1.079   .     S
C1924  N1994   1.367   .     A
C1925  N1993   1.365   .     A
C1925  H1962   1.080   .     S
C1925  C2323   1.415   .     S
C1926  O1999   1.379   .     S
Cu1927 O2004   1.970   .     S
Cu1927 O1995   1.965   .     S
Cu1927 O2006   1.971   .     S
Cu1927 Cu1928  2.677   .     S
Cu1927 O2008   1.973   .     S
Cu1927 N1993   2.012   .     S
Cu1928 O2005   1.970   .     S
Cu1928 O2009   1.973   .     S
Cu1928 O2007   1.971   .     S
Cu1928 O2003   1.965   .     S
Cu1928 N1994   2.012   .     S
H1938  C2303   1.112   .     S
H1957  C2310   1.110   .     S
H1958  C2310   1.109   .     S
H1966  C2180   1.108   .     S
H1985  C1652   1.105   1_655 S
H1986  C1652   1.111   1_655 S
H1988  C1654   1.108   1_655 S
C2011  O2139   1.297   .     A
C2011  O2129   1.290   .     A
C2011  C2029   1.464   .     S
C2012  C2028   1.408   .     A
C2012  O2134   1.388   .     S
C2012  C2148   1.388   .     S
C2013  C2028   1.405   .     A
C2013  O2135   1.387   .     S
C2013  C2194   1.389   .     S
C2014  C2029   1.415   .     A
C2014  O2136   1.383   .     S
C2014  C2280   1.388   1_455 S
C2015  C2026   1.398   .     A
C2015  C2019   1.389   .     A
C2015  H2107   1.082   .     S
C2016  C2027   1.399   .     A
C2016  C2020   1.391   .     A
C2016  H2118   1.081   .     S
C2017  C2021   1.390   .     A
C2017  H2124   1.082   .     S
C2017  C2027   1.399   .     A
C2018  C2023   1.392   .     A
C2018  H2125   1.082   .     S
C2018  C2026   1.398   .     A
C2019  O2144   1.383   .     S
C2019  C2024   1.418   .     A
C2020  C2025   1.423   .     A
C2020  O2130   1.384   .     S
C2021  C2025   1.416   .     A
C2021  O2131   1.383   .     S
C2022  O2137   1.289   .     A
C2022  O2138   1.286   .     A
C2022  C2028   1.443   .     S
C2023  C2024   1.420   .     A
C2023  O2132   1.384   .     S
C2024  C2033   1.478   .     S
C2025  C2044   1.476   .     S
C2027  C820    1.476   1_556 S
C2029  C2060   1.412   .     A
C2030  H2064   1.114   .     S
C2030  H2126   1.109   .     S
C2030  C2031   1.542   .     S
C2030  O2144   1.421   .     S
C2031  C2032   1.526   .     S
C2031  H2065   1.108   .     S
C2031  H2066   1.111   .     S
C2032  H2067   1.110   .     S
C2032  H2068   1.110   .     S
C2032  H1265   1.111   1_565 S
C2033  O2143   1.296   .     A
C2033  O2140   1.298   .     A
C2034  H2071   1.117   .     S
C2034  O2130   1.420   .     S
C2034  C2035   1.542   .     S
C2034  H2070   1.111   .     S
C2035  H2073   1.107   .     S
C2035  C2036   1.527   .     S
C2036  H2076   1.110   .     S
C2036  H2077   1.109   .     S
C2036  H2075   1.109   .     S
C2037  O2131   1.420   .     S
C2037  H2078   1.109   .     S
C2037  H2079   1.115   .     S
C2037  C2038   1.542   .     S
C2038  C2039   1.525   .     S
C2038  H2081   1.111   .     S
C2038  H2080   1.108   .     S
C2039  H2082   1.109   .     S
C2039  H1279   1.110   1_565 S
C2039  H1280   1.111   1_565 S
C2040  C2041   1.539   .     S
C2040  H2087   1.116   .     S
C2040  O2132   1.420   .     S
C2040  H2086   1.111   .     S
C2041  H2088   1.106   .     S
C2041  C2042   1.523   .     S
C2041  H2089   1.110   .     S
C2042  H2090   1.110   .     S
C2043  H2094   1.114   .     S
C2043  H2093   1.106   .     S
C2043  O2133   1.421   .     S
C2043  C2313   1.541   1_455 S
C2044  O2142   1.300   .     A
C2044  O2141   1.293   .     A
C2045  C2046   1.521   .     S
C2045  H2097   1.111   .     S
C2045  H2095   1.107   .     S
C2045  C2177   1.541   .     S
C2046  H2099   1.108   .     S
C2046  H2232   1.110   .     S
C2047  H2102   1.112   .     S
C2047  H2101   1.110   .     S
C2047  C2048   1.535   .     S
C2047  O2134   1.421   .     S
C2048  C2049   1.527   .     S
C2048  H2103   1.107   .     S
C2048  H2238   1.111   .     S
C2049  H2108   1.111   .     S
C2049  H2105   1.111   .     S
C2049  H2106   1.110   .     S
C2050  H2109   1.110   .     S
C2050  C2051   1.533   .     S
C2050  H2110   1.114   .     S
C2050  O2135   1.419   .     S
C2051  C2052   1.527   .     S
C2051  H2111   1.108   .     S
C2051  H2246   1.111   .     S
C2052  H2113   1.111   .     S
C2052  H2114   1.110   .     S
C2052  H2115   1.111   .     S
C2053  C2054   1.535   .     S
C2053  O2136   1.422   .     S
C2053  H2116   1.109   .     S
C2053  H2117   1.115   .     S
C2054  C2056   1.525   .     S
C2054  H2387   1.105   1_455 S
C2054  H2388   1.111   1_455 S
C2055  N2128   1.364   .     A
C2055  H2063   1.078   .     S
C2056  H2121   1.111   .     S
C2056  H2390   1.108   1_455 S
C2056  H1319   1.111   1_565 S
C2057  H2074   1.081   .     S
C2057  N2127   1.366   .     A
C2057  C1254   1.416   1_565 S
C2058  H2085   1.079   .     S
C2058  N2128   1.367   .     A
C2059  N2127   1.365   .     A
C2059  H2096   1.080   .     S
C2059  C1251   1.415   1_565 S
C2060  O2133   1.379   .     S
C2060  C2281   1.389   1_455 S
Cu2061 O2138   1.970   .     S
Cu2061 O2129   1.965   .     S
Cu2061 O2140   1.971   .     S
Cu2061 Cu2062  2.677   .     S
Cu2061 O2142   1.973   .     S
Cu2061 N2127   2.012   .     S
Cu2062 O2139   1.970   .     S
Cu2062 O2143   1.973   .     S
Cu2062 O2141   1.971   .     S
Cu2062 O2137   1.965   .     S
Cu2062 N2128   2.012   .     S
H2072  C1231   1.112   1_565 S
H2091  C1238   1.110   1_565 S
H2092  C1238   1.109   1_565 S
H2098  C2314   1.110   1_455 S
H2100  C1510   1.108   1_465 S
H2104  C2316   1.111   1_455 S
H2112  C2319   1.111   1_455 S
H2119  C2188   1.105   .     S
H2120  C2188   1.111   .     S
H2122  C2190   1.108   .     S
C2145  O2273   1.297   .     A
C2145  O2263   1.290   .     A
C2145  C2163   1.464   .     S
C2146  C2162   1.408   .     A
C2146  O2268   1.388   .     S
C2146  C2282   1.388   .     S
C2147  C2162   1.405   .     A
C2147  O2269   1.387   .     S
C2147  C2328   1.389   .     S
C2148  C2163   1.415   .     A
C2148  O2270   1.383   .     S
C2149  C2160   1.398   .     A
C2149  C2153   1.389   .     A
C2149  H2241   1.082   .     S
C2150  C2161   1.399   .     A
C2150  C2154   1.391   .     A
C2150  H2252   1.081   .     S
C2151  C2155   1.390   .     A
C2151  H2258   1.082   .     S
C2151  C2161   1.399   .     A
C2152  C2157   1.392   .     A
C2152  H2259   1.082   .     S
C2152  C2160   1.398   .     A
C2153  O2278   1.383   .     S
C2153  C2158   1.418   .     A
C2154  C2159   1.423   .     A
C2154  O2264   1.384   .     S
C2155  C2159   1.416   .     A
C2155  O2265   1.383   .     S
C2156  O2271   1.289   .     A
C2156  O2272   1.286   .     A
C2156  C2162   1.443   .     S
C2157  C2158   1.420   .     A
C2157  O2266   1.384   .     S
C2158  C2167   1.478   .     S
C2159  C2178   1.476   .     S
C2161  C954    1.476   1_556 S
C2163  C2194   1.412   .     A
C2164  H2198   1.114   .     S
C2164  H2260   1.109   .     S
C2164  C2165   1.542   .     S
C2164  O2278   1.421   .     S
C2165  C2166   1.526   .     S
C2165  H2199   1.108   .     S
C2165  H2200   1.111   .     S
C2166  H2201   1.110   .     S
C2166  H2202   1.110   .     S
C2166  H1399   1.111   1_565 S
C2167  O2277   1.296   .     A
C2167  O2274   1.298   .     A
C2168  H2205   1.117   .     S
C2168  O2264   1.420   .     S
C2168  C2169   1.542   .     S
C2168  H2204   1.111   .     S
C2169  H2207   1.107   .     S
C2169  C2170   1.527   .     S
C2170  H2210   1.110   .     S
C2170  H2211   1.109   .     S
C2170  H2209   1.109   .     S
C2171  O2265   1.420   .     S
C2171  H2212   1.109   .     S
C2171  H2213   1.115   .     S
C2171  C2172   1.542   .     S
C2172  C2173   1.525   .     S
C2172  H2215   1.111   .     S
C2172  H2214   1.108   .     S
C2173  H2216   1.109   .     S
C2173  H1413   1.110   1_565 S
C2173  H1414   1.111   1_565 S
C2174  C2175   1.539   .     S
C2174  H2221   1.116   .     S
C2174  O2266   1.420   .     S
C2174  H2220   1.111   .     S
C2175  H2222   1.106   .     S
C2175  C2176   1.523   .     S
C2175  H2223   1.110   .     S
C2176  H2224   1.110   .     S
C2177  H2228   1.114   .     S
C2177  H2227   1.106   .     S
C2177  O2267   1.421   .     S
C2178  O2276   1.300   .     A
C2178  O2275   1.293   .     A
C2179  C2180   1.521   .     S
C2179  H2231   1.111   .     S
C2179  H2229   1.107   .     S
C2179  C2311   1.541   .     S
C2180  H2233   1.108   .     S
C2180  H2366   1.110   .     S
C2181  H2236   1.112   .     S
C2181  H2235   1.110   .     S
C2181  C2182   1.535   .     S
C2181  O2268   1.421   .     S
C2182  C2183   1.527   .     S
C2182  H2237   1.107   .     S
C2182  H2372   1.111   .     S
C2183  H2242   1.111   .     S
C2183  H2239   1.111   .     S
C2183  H2240   1.110   .     S
C2184  H2243   1.110   .     S
C2184  C2185   1.533   .     S
C2184  H2244   1.114   .     S
C2184  O2269   1.419   .     S
C2185  C2186   1.527   .     S
C2185  H2245   1.108   .     S
C2185  H2380   1.111   .     S
C2186  H2247   1.111   .     S
C2186  H2248   1.110   .     S
C2186  H2249   1.111   .     S
C2187  C2188   1.535   .     S
C2187  O2270   1.422   .     S
C2187  H2250   1.109   .     S
C2187  H2251   1.115   .     S
C2188  C2190   1.525   .     S
C2189  N2262   1.364   .     A
C2189  H2197   1.078   .     S
C2190  H2255   1.111   .     S
C2190  H1453   1.111   1_565 S
C2191  H2208   1.081   .     S
C2191  N2261   1.366   .     A
C2191  C1388   1.416   1_565 S
C2192  H2219   1.079   .     S
C2192  N2262   1.367   .     A
C2193  N2261   1.365   .     A
C2193  H2230   1.080   .     S
C2193  C1385   1.415   1_565 S
C2194  O2267   1.379   .     S
Cu2195 O2272   1.970   .     S
Cu2195 O2263   1.965   .     S
Cu2195 O2274   1.971   .     S
Cu2195 Cu2196  2.677   .     S
Cu2195 O2276   1.973   .     S
Cu2195 N2261   2.012   .     S
Cu2196 O2273   1.970   .     S
Cu2196 O2277   1.973   .     S
Cu2196 O2275   1.971   .     S
Cu2196 O2271   1.965   .     S
Cu2196 N2262   2.012   .     S
H2206  C1365   1.112   1_565 S
H2225  C1372   1.110   1_565 S
H2226  C1372   1.109   1_565 S
H2234  C1242   1.108   1_565 S
H2253  C2322   1.105   .     S
H2254  C2322   1.111   .     S
H2256  C2324   1.108   .     S
C2279  O2407   1.297   .     A
C2279  O2397   1.290   .     A
C2279  C2297   1.464   .     S
C2280  C2296   1.408   .     A
C2280  O2402   1.388   .     S
C2280  C2014   1.388   1_655 S
C2281  C2296   1.405   .     A
C2281  O2403   1.387   .     S
C2281  C2060   1.389   1_655 S
C2282  C2297   1.415   .     A
C2282  O2404   1.383   .     S
C2283  C2294   1.398   .     A
C2283  C2287   1.389   .     A
C2283  H2375   1.082   .     S
C2284  C2295   1.399   .     A
C2284  C2288   1.391   .     A
C2284  H2386   1.081   .     S
C2285  C2289   1.390   .     A
C2285  H2392   1.082   .     S
C2285  C2295   1.399   .     A
C2286  C2291   1.392   .     A
C2286  H2393   1.082   .     S
C2286  C2294   1.398   .     A
C2287  O2412   1.383   .     S
C2287  C2292   1.418   .     A
C2288  C2293   1.423   .     A
C2288  O2398   1.384   .     S
C2289  C2293   1.416   .     A
C2289  O2399   1.383   .     S
C2290  O2405   1.289   .     A
C2290  O2406   1.286   .     A
C2290  C2296   1.443   .     S
C2291  C2292   1.420   .     A
C2291  O2400   1.384   .     S
C2292  C2301   1.478   .     S
C2293  C2312   1.476   .     S
C2295  C1088   1.476   1_556 S
C2297  C2328   1.412   .     A
C2298  H2332   1.114   .     S
C2298  H2394   1.109   .     S
C2298  C2299   1.542   .     S
C2298  O2412   1.421   .     S
C2299  C2300   1.526   .     S
C2299  H2333   1.108   .     S
C2299  H2334   1.111   .     S
C2300  H2335   1.110   .     S
C2300  H2336   1.110   .     S
C2300  H1533   1.111   1_565 S
C2301  O2411   1.296   .     A
C2301  O2408   1.298   .     A
C2302  H2339   1.117   .     S
C2302  O2398   1.420   .     S
C2302  C2303   1.542   .     S
C2302  H2338   1.111   .     S
C2303  H2341   1.107   .     S
C2303  C2304   1.527   .     S
C2304  H2344   1.110   .     S
C2304  H2345   1.109   .     S
C2304  H2343   1.109   .     S
C2305  O2399   1.420   .     S
C2305  H2346   1.109   .     S
C2305  H2347   1.115   .     S
C2305  C2306   1.542   .     S
C2306  C2307   1.525   .     S
C2306  H2349   1.111   .     S
C2306  H2348   1.108   .     S
C2307  H2350   1.109   .     S
C2307  H1547   1.110   1_565 S
C2307  H1548   1.111   1_565 S
C2308  C2309   1.539   .     S
C2308  H2355   1.116   .     S
C2308  O2400   1.420   .     S
C2308  H2354   1.111   .     S
C2309  H2356   1.106   .     S
C2309  C2310   1.523   .     S
C2309  H2357   1.110   .     S
C2310  H2358   1.110   .     S
C2311  H2362   1.114   .     S
C2311  H2361   1.106   .     S
C2311  O2401   1.421   .     S
C2312  O2410   1.300   .     A
C2312  O2409   1.293   .     A
C2313  C2314   1.521   .     S
C2313  H2365   1.111   .     S
C2313  H2363   1.107   .     S
C2313  C2043   1.541   1_655 S
C2314  H2367   1.108   .     S
C2314  H2098   1.110   1_655 S
C2314  H1698   1.108   1_655 S
C2315  H2370   1.112   .     S
C2315  H2369   1.110   .     S
C2315  C2316   1.535   .     S
C2315  O2402   1.421   .     S
C2316  C2317   1.527   .     S
C2316  H2371   1.107   .     S
C2316  H2104   1.111   1_655 S
C2317  H2376   1.111   .     S
C2317  H2373   1.111   .     S
C2317  H2374   1.110   .     S
C2318  H2377   1.110   .     S
C2318  C2319   1.533   .     S
C2318  H2378   1.114   .     S
C2318  O2403   1.419   .     S
C2319  C2320   1.527   .     S
C2319  H2379   1.108   .     S
C2319  H2112   1.111   1_655 S
C2320  H2381   1.111   .     S
C2320  H2382   1.110   .     S
C2320  H2383   1.111   .     S
C2321  C2322   1.535   .     S
C2321  O2404   1.422   .     S
C2321  H2384   1.109   .     S
C2321  H2385   1.115   .     S
C2322  C2324   1.525   .     S
C2323  N2396   1.364   .     A
C2323  H2331   1.078   .     S
C2324  H2389   1.111   .     S
C2324  H1587   1.111   1_565 S
C2325  H2342   1.081   .     S
C2325  N2395   1.366   .     A
C2325  C1522   1.416   1_565 S
C2326  H2353   1.079   .     S
C2326  N2396   1.367   .     A
C2327  N2395   1.365   .     A
C2327  H2364   1.080   .     S
C2327  C1519   1.415   1_565 S
C2328  O2401   1.379   .     S
Cu2329 O2406   1.970   .     S
Cu2329 O2397   1.965   .     S
Cu2329 O2408   1.971   .     S
Cu2329 Cu2330  2.677   .     S
Cu2329 O2410   1.973   .     S
Cu2329 N2395   2.012   .     S
Cu2330 O2407   1.970   .     S
Cu2330 O2411   1.973   .     S
Cu2330 O2409   1.971   .     S
Cu2330 O2405   1.965   .     S
Cu2330 N2396   2.012   .     S
H2340  C1499   1.112   1_565 S
H2359  C1506   1.110   1_565 S
H2360  C1506   1.109   1_565 S
H2368  C1376   1.108   1_565 S
H2387  C2054   1.105   1_655 S
H2388  C2054   1.111   1_655 S
H2390  C2056   1.108   1_655 S
