data_str_m2_o10_o18_pcu_sym.85
_audit_creation_date              2020-01-03
_audit_creation_method            'Materials Studio'
_symmetry_space_group_name_H-M    'P1'
_symmetry_Int_Tables_number       1
_symmetry_cell_setting            triclinic
loop_
_symmetry_equiv_pos_as_xyz
  x,y,z
_cell_length_a                    22.2959
_cell_length_b                    26.0693
_cell_length_c                    31.5939
_cell_angle_alpha                 94.2758
_cell_angle_beta                  75.1819
_cell_angle_gamma                 103.1636
loop_
_atom_site_label
_atom_site_type_symbol
_atom_site_fract_x
_atom_site_fract_y
_atom_site_fract_z
_atom_site_U_iso_or_equiv
_atom_site_adp_type
_atom_site_occupancy
Br1    Br    0.08066   0.06490   0.07762   0.00000  Uiso   1.00
Br2    Br    0.25266   0.26844   0.42239   0.00000  Uiso   1.00
C3     C     0.18170   0.26673   0.25131   0.00000  Uiso   1.00
C4     C     0.20527   0.17050   0.16680   0.00000  Uiso   1.00
C5     C     0.10477   0.15823   0.38098   0.00000  Uiso   1.00
C6     C     0.22856   0.17510   0.11902   0.00000  Uiso   1.00
C7     C     0.02258   0.12567   0.44510   0.00000  Uiso   1.00
C8     C     0.31075   0.20767   0.05490   0.00000  Uiso   1.00
C9     C     0.04068   0.13817   0.40083   0.00000  Uiso   1.00
C10    C     0.29266   0.19516   0.09917   0.00000  Uiso   1.00
C11    C     0.14898   0.17019   0.40673   0.00000  Uiso   1.00
C12    C     0.18435   0.16315   0.09327   0.00000  Uiso   1.00
C13    C     0.13058   0.16370   0.45216   0.00000  Uiso   1.00
C14    C     0.15163   0.06660   0.24869   0.00000  Uiso   1.00
C15    C     0.20275   0.16963   0.04784   0.00000  Uiso   1.00
C16    C     0.06776   0.13614   0.47030   0.00000  Uiso   1.00
C17    C     0.26557   0.19719   0.02970   0.00000  Uiso   1.00
C18    C     0.17476   0.17808   0.47886   0.00000  Uiso   1.00
C19    C     0.15857   0.15526   0.02115   0.00000  Uiso   1.00
C20    C     0.09892   0.11903   0.03479   0.00000  Uiso   1.00
C21    C     0.23441   0.21431   0.46521   0.00000  Uiso   1.00
C22    C     0.05272   0.11416   0.01144   0.00000  Uiso   1.00
C23    C     0.28061   0.21917   0.48856   0.00000  Uiso   1.00
C24    C     0.19018   0.32269   0.25194   0.00000  Uiso   1.00
C25    C     0.14315   0.01064   0.24806   0.00000  Uiso   1.00
C26    C     0.12806   0.16284   0.33320   0.00000  Uiso   1.00
Cu27   Cu    0.10737   0.16108   0.24517   0.00000  Uiso   1.00
Cu28   Cu    0.22596   0.17225   0.25484   0.00000  Uiso   1.00
H29    H     0.00660   0.08843   0.02349   0.00000  Uiso   1.00
H30    H     0.09782   0.32017   0.24441   0.00000  Uiso   1.00
H31    H     0.00135   0.20508   0.28448   0.00000  Uiso   1.00
H32    H     0.33199   0.12826   0.21552   0.00000  Uiso   1.00
H33    H     0.32673   0.24491   0.47651   0.00000  Uiso   1.00
H34    H     0.13459   0.15295   0.10948   0.00000  Uiso   1.00
H35    H     0.19875   0.18039   0.39052   0.00000  Uiso   1.00
H36    H     0.32771   0.20482   0.11839   0.00000  Uiso   1.00
H37    H     0.00562   0.12852   0.38161   0.00000  Uiso   1.00
H38    H     0.30722   0.10588   0.45921   0.00000  Uiso   1.00
H39    H     0.02611   0.22746   0.04079   0.00000  Uiso   1.00
H40    H     0.23551   0.01316   0.25559   0.00000  Uiso   1.00
N41    N     0.31506   0.18068   0.26212   0.00000  Uiso   1.00
N42    N     0.01827   0.15265   0.23788   0.00000  Uiso   1.00
O43    O     0.12815   0.23809   0.24686   0.00000  Uiso   1.00
O44    O     0.20518   0.09524   0.25314   0.00000  Uiso   1.00
O45    O     0.22829   0.24753   0.25503   0.00000  Uiso   1.00
O46    O     0.10504   0.08580   0.24498   0.00000  Uiso   1.00
O47    O     0.08851   0.15930   0.30855   0.00000  Uiso   1.00
O48    O     0.24482   0.17403   0.19146   0.00000  Uiso   1.00
O49    O     0.18866   0.16874   0.31671   0.00000  Uiso   1.00
O50    O     0.14468   0.16460   0.18329   0.00000  Uiso   1.00
Br51   Br    0.41399   0.06490   0.07762   0.00000  Uiso   1.00
Br52   Br    0.58600   0.26844   0.42239   0.00000  Uiso   1.00
C53    C     0.51504   0.26673   0.25131   0.00000  Uiso   1.00
C54    C     0.53860   0.17050   0.16680   0.00000  Uiso   1.00
C55    C     0.43810   0.15823   0.38098   0.00000  Uiso   1.00
C56    C     0.56190   0.17510   0.11902   0.00000  Uiso   1.00
C57    C     0.35591   0.12567   0.44510   0.00000  Uiso   1.00
C58    C     0.64409   0.20767   0.05490   0.00000  Uiso   1.00
C59    C     0.37401   0.13817   0.40083   0.00000  Uiso   1.00
C60    C     0.62599   0.19516   0.09917   0.00000  Uiso   1.00
C61    C     0.48232   0.17019   0.40673   0.00000  Uiso   1.00
C62    C     0.51768   0.16315   0.09327   0.00000  Uiso   1.00
C63    C     0.46392   0.16370   0.45216   0.00000  Uiso   1.00
C64    C     0.48496   0.06660   0.24869   0.00000  Uiso   1.00
C65    C     0.53608   0.16963   0.04784   0.00000  Uiso   1.00
C66    C     0.40109   0.13614   0.47030   0.00000  Uiso   1.00
C67    C     0.59890   0.19719   0.02970   0.00000  Uiso   1.00
C68    C     0.50809   0.17808   0.47886   0.00000  Uiso   1.00
C69    C     0.49191   0.15526   0.02115   0.00000  Uiso   1.00
C70    C     0.43225   0.11903   0.03479   0.00000  Uiso   1.00
C71    C     0.56774   0.21431   0.46521   0.00000  Uiso   1.00
C72    C     0.38606   0.11416   0.01144   0.00000  Uiso   1.00
C73    C     0.61394   0.21917   0.48856   0.00000  Uiso   1.00
C74    C     0.52352   0.32269   0.25194   0.00000  Uiso   1.00
C75    C     0.47648   0.01064   0.24806   0.00000  Uiso   1.00
C76    C     0.46140   0.16284   0.33320   0.00000  Uiso   1.00
Cu77   Cu    0.44071   0.16108   0.24517   0.00000  Uiso   1.00
Cu78   Cu    0.55929   0.17225   0.25484   0.00000  Uiso   1.00
H79    H     0.33993   0.08843   0.02349   0.00000  Uiso   1.00
H80    H     0.43116   0.32017   0.24441   0.00000  Uiso   1.00
H81    H     0.33468   0.20508   0.28448   0.00000  Uiso   1.00
H82    H     0.66532   0.12826   0.21552   0.00000  Uiso   1.00
H83    H     0.66006   0.24491   0.47651   0.00000  Uiso   1.00
H84    H     0.46792   0.15295   0.10948   0.00000  Uiso   1.00
H85    H     0.53208   0.18039   0.39052   0.00000  Uiso   1.00
H86    H     0.66104   0.20482   0.11839   0.00000  Uiso   1.00
H87    H     0.33896   0.12852   0.38161   0.00000  Uiso   1.00
H88    H     0.64055   0.10588   0.45921   0.00000  Uiso   1.00
H89    H     0.35945   0.22746   0.04079   0.00000  Uiso   1.00
H90    H     0.56884   0.01316   0.25559   0.00000  Uiso   1.00
N91    N     0.64839   0.18068   0.26212   0.00000  Uiso   1.00
N92    N     0.35161   0.15265   0.23788   0.00000  Uiso   1.00
O93    O     0.46148   0.23809   0.24686   0.00000  Uiso   1.00
O94    O     0.53852   0.09524   0.25314   0.00000  Uiso   1.00
O95    O     0.56163   0.24753   0.25503   0.00000  Uiso   1.00
O96    O     0.43837   0.08580   0.24498   0.00000  Uiso   1.00
O97    O     0.42185   0.15930   0.30855   0.00000  Uiso   1.00
O98    O     0.57815   0.17403   0.19146   0.00000  Uiso   1.00
O99    O     0.52199   0.16874   0.31671   0.00000  Uiso   1.00
O100   O     0.47801   0.16460   0.18329   0.00000  Uiso   1.00
Br101  Br    0.74732   0.06490   0.07762   0.00000  Uiso   1.00
Br102  Br    0.91933   0.26844   0.42239   0.00000  Uiso   1.00
C103   C     0.84837   0.26673   0.25131   0.00000  Uiso   1.00
C104   C     0.87194   0.17050   0.16680   0.00000  Uiso   1.00
C105   C     0.77144   0.15823   0.38098   0.00000  Uiso   1.00
C106   C     0.89523   0.17510   0.11902   0.00000  Uiso   1.00
C107   C     0.68924   0.12567   0.44510   0.00000  Uiso   1.00
C108   C     0.97742   0.20767   0.05490   0.00000  Uiso   1.00
C109   C     0.70734   0.13817   0.40083   0.00000  Uiso   1.00
C110   C     0.95932   0.19516   0.09917   0.00000  Uiso   1.00
C111   C     0.81565   0.17019   0.40673   0.00000  Uiso   1.00
C112   C     0.85102   0.16315   0.09327   0.00000  Uiso   1.00
C113   C     0.79725   0.16370   0.45216   0.00000  Uiso   1.00
C114   C     0.81830   0.06660   0.24869   0.00000  Uiso   1.00
C115   C     0.86942   0.16963   0.04784   0.00000  Uiso   1.00
C116   C     0.73443   0.13614   0.47030   0.00000  Uiso   1.00
C117   C     0.93224   0.19719   0.02970   0.00000  Uiso   1.00
C118   C     0.84142   0.17808   0.47886   0.00000  Uiso   1.00
C119   C     0.82524   0.15526   0.02115   0.00000  Uiso   1.00
C120   C     0.76559   0.11903   0.03479   0.00000  Uiso   1.00
C121   C     0.90108   0.21431   0.46521   0.00000  Uiso   1.00
C122   C     0.71939   0.11416   0.01144   0.00000  Uiso   1.00
C123   C     0.94727   0.21917   0.48856   0.00000  Uiso   1.00
C124   C     0.85685   0.32269   0.25194   0.00000  Uiso   1.00
C125   C     0.80982   0.01064   0.24806   0.00000  Uiso   1.00
C126   C     0.79473   0.16284   0.33320   0.00000  Uiso   1.00
Cu127  Cu    0.77404   0.16108   0.24517   0.00000  Uiso   1.00
Cu128  Cu    0.89263   0.17225   0.25484   0.00000  Uiso   1.00
H129   H     0.67326   0.08843   0.02349   0.00000  Uiso   1.00
H130   H     0.76449   0.32017   0.24441   0.00000  Uiso   1.00
H131   H     0.66801   0.20508   0.28448   0.00000  Uiso   1.00
H132   H     0.99865   0.12826   0.21552   0.00000  Uiso   1.00
H133   H     0.99340   0.24491   0.47651   0.00000  Uiso   1.00
H134   H     0.80125   0.15295   0.10948   0.00000  Uiso   1.00
H135   H     0.86541   0.18039   0.39052   0.00000  Uiso   1.00
H136   H     0.99437   0.20482   0.11839   0.00000  Uiso   1.00
H137   H     0.67229   0.12852   0.38161   0.00000  Uiso   1.00
H138   H     0.97388   0.10588   0.45921   0.00000  Uiso   1.00
H139   H     0.69278   0.22746   0.04079   0.00000  Uiso   1.00
H140   H     0.90218   0.01316   0.25559   0.00000  Uiso   1.00
N141   N     0.98173   0.18068   0.26212   0.00000  Uiso   1.00
N142   N     0.68494   0.15265   0.23788   0.00000  Uiso   1.00
O143   O     0.79482   0.23809   0.24686   0.00000  Uiso   1.00
O144   O     0.87185   0.09524   0.25314   0.00000  Uiso   1.00
O145   O     0.89496   0.24753   0.25503   0.00000  Uiso   1.00
O146   O     0.77171   0.08580   0.24498   0.00000  Uiso   1.00
O147   O     0.75518   0.15930   0.30855   0.00000  Uiso   1.00
O148   O     0.91149   0.17403   0.19146   0.00000  Uiso   1.00
O149   O     0.85532   0.16874   0.31671   0.00000  Uiso   1.00
O150   O     0.81134   0.16460   0.18329   0.00000  Uiso   1.00
Br151  Br    0.08066   0.39823   0.07762   0.00000  Uiso   1.00
Br152  Br    0.25266   0.60177   0.42239   0.00000  Uiso   1.00
C153   C     0.18170   0.60006   0.25131   0.00000  Uiso   1.00
C154   C     0.20527   0.50383   0.16680   0.00000  Uiso   1.00
C155   C     0.10477   0.49157   0.38098   0.00000  Uiso   1.00
C156   C     0.22856   0.50843   0.11902   0.00000  Uiso   1.00
C157   C     0.02258   0.45900   0.44510   0.00000  Uiso   1.00
C158   C     0.31075   0.54100   0.05490   0.00000  Uiso   1.00
C159   C     0.04068   0.47150   0.40083   0.00000  Uiso   1.00
C160   C     0.29266   0.52850   0.09917   0.00000  Uiso   1.00
C161   C     0.14898   0.50352   0.40673   0.00000  Uiso   1.00
C162   C     0.18435   0.49648   0.09327   0.00000  Uiso   1.00
C163   C     0.13058   0.49703   0.45216   0.00000  Uiso   1.00
C164   C     0.15163   0.39994   0.24869   0.00000  Uiso   1.00
C165   C     0.20275   0.50297   0.04784   0.00000  Uiso   1.00
C166   C     0.06776   0.46947   0.47030   0.00000  Uiso   1.00
C167   C     0.26557   0.53053   0.02970   0.00000  Uiso   1.00
C168   C     0.17476   0.51141   0.47886   0.00000  Uiso   1.00
C169   C     0.15857   0.48859   0.02115   0.00000  Uiso   1.00
C170   C     0.09892   0.45236   0.03479   0.00000  Uiso   1.00
C171   C     0.23441   0.54764   0.46521   0.00000  Uiso   1.00
C172   C     0.05272   0.44750   0.01144   0.00000  Uiso   1.00
C173   C     0.28061   0.55250   0.48856   0.00000  Uiso   1.00
C174   C     0.19018   0.65603   0.25194   0.00000  Uiso   1.00
C175   C     0.14315   0.34397   0.24806   0.00000  Uiso   1.00
C176   C     0.12806   0.49617   0.33320   0.00000  Uiso   1.00
Cu177  Cu    0.10737   0.49441   0.24517   0.00000  Uiso   1.00
Cu178  Cu    0.22596   0.50559   0.25484   0.00000  Uiso   1.00
H179   H     0.00660   0.42176   0.02349   0.00000  Uiso   1.00
H180   H     0.09782   0.65350   0.24441   0.00000  Uiso   1.00
H181   H     0.00135   0.53841   0.28448   0.00000  Uiso   1.00
H182   H     0.33199   0.46159   0.21552   0.00000  Uiso   1.00
H183   H     0.32673   0.57824   0.47651   0.00000  Uiso   1.00
H184   H     0.13459   0.48628   0.10948   0.00000  Uiso   1.00
H185   H     0.19875   0.51372   0.39052   0.00000  Uiso   1.00
H186   H     0.32771   0.53815   0.11839   0.00000  Uiso   1.00
H187   H     0.00562   0.46185   0.38161   0.00000  Uiso   1.00
H188   H     0.30722   0.43921   0.45921   0.00000  Uiso   1.00
H189   H     0.02611   0.56079   0.04079   0.00000  Uiso   1.00
H190   H     0.23551   0.34650   0.25559   0.00000  Uiso   1.00
N191   N     0.31506   0.51401   0.26212   0.00000  Uiso   1.00
N192   N     0.01827   0.48599   0.23788   0.00000  Uiso   1.00
O193   O     0.12815   0.57142   0.24686   0.00000  Uiso   1.00
O194   O     0.20518   0.42858   0.25314   0.00000  Uiso   1.00
O195   O     0.22829   0.58086   0.25503   0.00000  Uiso   1.00
O196   O     0.10504   0.41914   0.24498   0.00000  Uiso   1.00
O197   O     0.08851   0.49263   0.30855   0.00000  Uiso   1.00
O198   O     0.24482   0.50737   0.19146   0.00000  Uiso   1.00
O199   O     0.18866   0.50207   0.31671   0.00000  Uiso   1.00
O200   O     0.14468   0.49793   0.18329   0.00000  Uiso   1.00
Br201  Br    0.41399   0.39823   0.07762   0.00000  Uiso   1.00
Br202  Br    0.58600   0.60177   0.42239   0.00000  Uiso   1.00
C203   C     0.51504   0.60006   0.25131   0.00000  Uiso   1.00
C204   C     0.53860   0.50383   0.16680   0.00000  Uiso   1.00
C205   C     0.43810   0.49157   0.38098   0.00000  Uiso   1.00
C206   C     0.56190   0.50843   0.11902   0.00000  Uiso   1.00
C207   C     0.35591   0.45900   0.44510   0.00000  Uiso   1.00
C208   C     0.64409   0.54100   0.05490   0.00000  Uiso   1.00
C209   C     0.37401   0.47150   0.40083   0.00000  Uiso   1.00
C210   C     0.62599   0.52850   0.09917   0.00000  Uiso   1.00
C211   C     0.48232   0.50352   0.40673   0.00000  Uiso   1.00
C212   C     0.51768   0.49648   0.09327   0.00000  Uiso   1.00
C213   C     0.46392   0.49703   0.45216   0.00000  Uiso   1.00
C214   C     0.48496   0.39994   0.24869   0.00000  Uiso   1.00
C215   C     0.53608   0.50297   0.04784   0.00000  Uiso   1.00
C216   C     0.40109   0.46947   0.47030   0.00000  Uiso   1.00
C217   C     0.59890   0.53053   0.02970   0.00000  Uiso   1.00
C218   C     0.50809   0.51141   0.47886   0.00000  Uiso   1.00
C219   C     0.49191   0.48859   0.02115   0.00000  Uiso   1.00
C220   C     0.43225   0.45236   0.03479   0.00000  Uiso   1.00
C221   C     0.56774   0.54764   0.46521   0.00000  Uiso   1.00
C222   C     0.38606   0.44750   0.01144   0.00000  Uiso   1.00
C223   C     0.61394   0.55250   0.48856   0.00000  Uiso   1.00
C224   C     0.52352   0.65603   0.25194   0.00000  Uiso   1.00
C225   C     0.47648   0.34397   0.24806   0.00000  Uiso   1.00
C226   C     0.46140   0.49617   0.33320   0.00000  Uiso   1.00
Cu227  Cu    0.44071   0.49441   0.24517   0.00000  Uiso   1.00
Cu228  Cu    0.55929   0.50559   0.25484   0.00000  Uiso   1.00
H229   H     0.33993   0.42176   0.02349   0.00000  Uiso   1.00
H230   H     0.43116   0.65350   0.24441   0.00000  Uiso   1.00
H231   H     0.33468   0.53841   0.28448   0.00000  Uiso   1.00
H232   H     0.66532   0.46159   0.21552   0.00000  Uiso   1.00
H233   H     0.66006   0.57824   0.47651   0.00000  Uiso   1.00
H234   H     0.46792   0.48628   0.10948   0.00000  Uiso   1.00
H235   H     0.53208   0.51372   0.39052   0.00000  Uiso   1.00
H236   H     0.66104   0.53815   0.11839   0.00000  Uiso   1.00
H237   H     0.33896   0.46185   0.38161   0.00000  Uiso   1.00
H238   H     0.64055   0.43921   0.45921   0.00000  Uiso   1.00
H239   H     0.35945   0.56079   0.04079   0.00000  Uiso   1.00
H240   H     0.56884   0.34650   0.25559   0.00000  Uiso   1.00
N241   N     0.64839   0.51401   0.26212   0.00000  Uiso   1.00
N242   N     0.35161   0.48599   0.23788   0.00000  Uiso   1.00
O243   O     0.46148   0.57142   0.24686   0.00000  Uiso   1.00
O244   O     0.53852   0.42858   0.25314   0.00000  Uiso   1.00
O245   O     0.56163   0.58086   0.25503   0.00000  Uiso   1.00
O246   O     0.43837   0.41914   0.24498   0.00000  Uiso   1.00
O247   O     0.42185   0.49263   0.30855   0.00000  Uiso   1.00
O248   O     0.57815   0.50737   0.19146   0.00000  Uiso   1.00
O249   O     0.52199   0.50207   0.31671   0.00000  Uiso   1.00
O250   O     0.47801   0.49793   0.18329   0.00000  Uiso   1.00
Br251  Br    0.74732   0.39823   0.07762   0.00000  Uiso   1.00
Br252  Br    0.91933   0.60177   0.42239   0.00000  Uiso   1.00
C253   C     0.84837   0.60006   0.25131   0.00000  Uiso   1.00
C254   C     0.87194   0.50383   0.16680   0.00000  Uiso   1.00
C255   C     0.77144   0.49157   0.38098   0.00000  Uiso   1.00
C256   C     0.89523   0.50843   0.11902   0.00000  Uiso   1.00
C257   C     0.68924   0.45900   0.44510   0.00000  Uiso   1.00
C258   C     0.97742   0.54100   0.05490   0.00000  Uiso   1.00
C259   C     0.70734   0.47150   0.40083   0.00000  Uiso   1.00
C260   C     0.95932   0.52850   0.09917   0.00000  Uiso   1.00
C261   C     0.81565   0.50352   0.40673   0.00000  Uiso   1.00
C262   C     0.85102   0.49648   0.09327   0.00000  Uiso   1.00
C263   C     0.79725   0.49703   0.45216   0.00000  Uiso   1.00
C264   C     0.81830   0.39994   0.24869   0.00000  Uiso   1.00
C265   C     0.86942   0.50297   0.04784   0.00000  Uiso   1.00
C266   C     0.73443   0.46947   0.47030   0.00000  Uiso   1.00
C267   C     0.93224   0.53053   0.02970   0.00000  Uiso   1.00
C268   C     0.84142   0.51141   0.47886   0.00000  Uiso   1.00
C269   C     0.82524   0.48859   0.02115   0.00000  Uiso   1.00
C270   C     0.76559   0.45236   0.03479   0.00000  Uiso   1.00
C271   C     0.90108   0.54764   0.46521   0.00000  Uiso   1.00
C272   C     0.71939   0.44750   0.01144   0.00000  Uiso   1.00
C273   C     0.94727   0.55250   0.48856   0.00000  Uiso   1.00
C274   C     0.85685   0.65603   0.25194   0.00000  Uiso   1.00
C275   C     0.80982   0.34397   0.24806   0.00000  Uiso   1.00
C276   C     0.79473   0.49617   0.33320   0.00000  Uiso   1.00
Cu277  Cu    0.77404   0.49441   0.24517   0.00000  Uiso   1.00
Cu278  Cu    0.89263   0.50559   0.25484   0.00000  Uiso   1.00
H279   H     0.67326   0.42176   0.02349   0.00000  Uiso   1.00
H280   H     0.76449   0.65350   0.24441   0.00000  Uiso   1.00
H281   H     0.66801   0.53841   0.28448   0.00000  Uiso   1.00
H282   H     0.99865   0.46159   0.21552   0.00000  Uiso   1.00
H283   H     0.99340   0.57824   0.47651   0.00000  Uiso   1.00
H284   H     0.80125   0.48628   0.10948   0.00000  Uiso   1.00
H285   H     0.86541   0.51372   0.39052   0.00000  Uiso   1.00
H286   H     0.99437   0.53815   0.11839   0.00000  Uiso   1.00
H287   H     0.67229   0.46185   0.38161   0.00000  Uiso   1.00
H288   H     0.97388   0.43921   0.45921   0.00000  Uiso   1.00
H289   H     0.69278   0.56079   0.04079   0.00000  Uiso   1.00
H290   H     0.90218   0.34650   0.25559   0.00000  Uiso   1.00
N291   N     0.98173   0.51401   0.26212   0.00000  Uiso   1.00
N292   N     0.68494   0.48599   0.23788   0.00000  Uiso   1.00
O293   O     0.79482   0.57142   0.24686   0.00000  Uiso   1.00
O294   O     0.87185   0.42858   0.25314   0.00000  Uiso   1.00
O295   O     0.89496   0.58086   0.25503   0.00000  Uiso   1.00
O296   O     0.77171   0.41914   0.24498   0.00000  Uiso   1.00
O297   O     0.75518   0.49263   0.30855   0.00000  Uiso   1.00
O298   O     0.91149   0.50737   0.19146   0.00000  Uiso   1.00
O299   O     0.85532   0.50207   0.31671   0.00000  Uiso   1.00
O300   O     0.81134   0.49793   0.18329   0.00000  Uiso   1.00
Br301  Br    0.08066   0.73157   0.07762   0.00000  Uiso   1.00
Br302  Br    0.25266   0.93511   0.42239   0.00000  Uiso   1.00
C303   C     0.18170   0.93340   0.25131   0.00000  Uiso   1.00
C304   C     0.20527   0.83716   0.16680   0.00000  Uiso   1.00
C305   C     0.10477   0.82490   0.38098   0.00000  Uiso   1.00
C306   C     0.22856   0.84177   0.11902   0.00000  Uiso   1.00
C307   C     0.02258   0.79233   0.44510   0.00000  Uiso   1.00
C308   C     0.31075   0.87434   0.05490   0.00000  Uiso   1.00
C309   C     0.04068   0.80484   0.40083   0.00000  Uiso   1.00
C310   C     0.29266   0.86183   0.09917   0.00000  Uiso   1.00
C311   C     0.14898   0.83685   0.40673   0.00000  Uiso   1.00
C312   C     0.18435   0.82981   0.09327   0.00000  Uiso   1.00
C313   C     0.13058   0.83037   0.45216   0.00000  Uiso   1.00
C314   C     0.15163   0.73327   0.24869   0.00000  Uiso   1.00
C315   C     0.20275   0.83630   0.04784   0.00000  Uiso   1.00
C316   C     0.06776   0.80281   0.47030   0.00000  Uiso   1.00
C317   C     0.26557   0.86386   0.02970   0.00000  Uiso   1.00
C318   C     0.17476   0.84474   0.47886   0.00000  Uiso   1.00
C319   C     0.15857   0.82192   0.02115   0.00000  Uiso   1.00
C320   C     0.09892   0.78570   0.03479   0.00000  Uiso   1.00
C321   C     0.23441   0.88097   0.46521   0.00000  Uiso   1.00
C322   C     0.05272   0.78083   0.01144   0.00000  Uiso   1.00
C323   C     0.28061   0.88584   0.48856   0.00000  Uiso   1.00
C324   C     0.19018   0.98936   0.25194   0.00000  Uiso   1.00
C325   C     0.14315   0.67731   0.24806   0.00000  Uiso   1.00
C326   C     0.12806   0.82950   0.33320   0.00000  Uiso   1.00
Cu327  Cu    0.10737   0.82775   0.24517   0.00000  Uiso   1.00
Cu328  Cu    0.22596   0.83892   0.25484   0.00000  Uiso   1.00
H329   H     0.00660   0.75510   0.02349   0.00000  Uiso   1.00
H330   H     0.09782   0.98684   0.24441   0.00000  Uiso   1.00
H331   H     0.00135   0.87174   0.28448   0.00000  Uiso   1.00
H332   H     0.33199   0.79492   0.21552   0.00000  Uiso   1.00
H333   H     0.32673   0.91158   0.47651   0.00000  Uiso   1.00
H334   H     0.13459   0.81961   0.10948   0.00000  Uiso   1.00
H335   H     0.19875   0.84706   0.39052   0.00000  Uiso   1.00
H336   H     0.32771   0.87149   0.11839   0.00000  Uiso   1.00
H337   H     0.00562   0.79519   0.38161   0.00000  Uiso   1.00
H338   H     0.30722   0.77254   0.45921   0.00000  Uiso   1.00
H339   H     0.02611   0.89413   0.04079   0.00000  Uiso   1.00
H340   H     0.23551   0.67983   0.25559   0.00000  Uiso   1.00
N341   N     0.31506   0.84735   0.26212   0.00000  Uiso   1.00
N342   N     0.01827   0.81932   0.23788   0.00000  Uiso   1.00
O343   O     0.12815   0.90476   0.24686   0.00000  Uiso   1.00
O344   O     0.20518   0.76191   0.25314   0.00000  Uiso   1.00
O345   O     0.22829   0.91420   0.25503   0.00000  Uiso   1.00
O346   O     0.10504   0.75247   0.24498   0.00000  Uiso   1.00
O347   O     0.08851   0.82597   0.30855   0.00000  Uiso   1.00
O348   O     0.24482   0.84070   0.19146   0.00000  Uiso   1.00
O349   O     0.18866   0.83540   0.31671   0.00000  Uiso   1.00
O350   O     0.14468   0.83126   0.18329   0.00000  Uiso   1.00
Br351  Br    0.41399   0.73157   0.07762   0.00000  Uiso   1.00
Br352  Br    0.58600   0.93511   0.42239   0.00000  Uiso   1.00
C353   C     0.51504   0.93340   0.25131   0.00000  Uiso   1.00
C354   C     0.53860   0.83716   0.16680   0.00000  Uiso   1.00
C355   C     0.43810   0.82490   0.38098   0.00000  Uiso   1.00
C356   C     0.56190   0.84177   0.11902   0.00000  Uiso   1.00
C357   C     0.35591   0.79233   0.44510   0.00000  Uiso   1.00
C358   C     0.64409   0.87434   0.05490   0.00000  Uiso   1.00
C359   C     0.37401   0.80484   0.40083   0.00000  Uiso   1.00
C360   C     0.62599   0.86183   0.09917   0.00000  Uiso   1.00
C361   C     0.48232   0.83685   0.40673   0.00000  Uiso   1.00
C362   C     0.51768   0.82981   0.09327   0.00000  Uiso   1.00
C363   C     0.46392   0.83037   0.45216   0.00000  Uiso   1.00
C364   C     0.48496   0.73327   0.24869   0.00000  Uiso   1.00
C365   C     0.53608   0.83630   0.04784   0.00000  Uiso   1.00
C366   C     0.40109   0.80281   0.47030   0.00000  Uiso   1.00
C367   C     0.59890   0.86386   0.02970   0.00000  Uiso   1.00
C368   C     0.50809   0.84474   0.47886   0.00000  Uiso   1.00
C369   C     0.49191   0.82192   0.02115   0.00000  Uiso   1.00
C370   C     0.43225   0.78570   0.03479   0.00000  Uiso   1.00
C371   C     0.56774   0.88097   0.46521   0.00000  Uiso   1.00
C372   C     0.38606   0.78083   0.01144   0.00000  Uiso   1.00
C373   C     0.61394   0.88584   0.48856   0.00000  Uiso   1.00
C374   C     0.52352   0.98936   0.25194   0.00000  Uiso   1.00
C375   C     0.47648   0.67731   0.24806   0.00000  Uiso   1.00
C376   C     0.46140   0.82950   0.33320   0.00000  Uiso   1.00
Cu377  Cu    0.44071   0.82775   0.24517   0.00000  Uiso   1.00
Cu378  Cu    0.55929   0.83892   0.25484   0.00000  Uiso   1.00
H379   H     0.33993   0.75510   0.02349   0.00000  Uiso   1.00
H380   H     0.43116   0.98684   0.24441   0.00000  Uiso   1.00
H381   H     0.33468   0.87174   0.28448   0.00000  Uiso   1.00
H382   H     0.66532   0.79492   0.21552   0.00000  Uiso   1.00
H383   H     0.66006   0.91158   0.47651   0.00000  Uiso   1.00
H384   H     0.46792   0.81961   0.10948   0.00000  Uiso   1.00
H385   H     0.53208   0.84706   0.39052   0.00000  Uiso   1.00
H386   H     0.66104   0.87149   0.11839   0.00000  Uiso   1.00
H387   H     0.33896   0.79519   0.38161   0.00000  Uiso   1.00
H388   H     0.64055   0.77254   0.45921   0.00000  Uiso   1.00
H389   H     0.35945   0.89413   0.04079   0.00000  Uiso   1.00
H390   H     0.56884   0.67983   0.25559   0.00000  Uiso   1.00
N391   N     0.64839   0.84735   0.26212   0.00000  Uiso   1.00
N392   N     0.35161   0.81932   0.23788   0.00000  Uiso   1.00
O393   O     0.46148   0.90476   0.24686   0.00000  Uiso   1.00
O394   O     0.53852   0.76191   0.25314   0.00000  Uiso   1.00
O395   O     0.56163   0.91420   0.25503   0.00000  Uiso   1.00
O396   O     0.43837   0.75247   0.24498   0.00000  Uiso   1.00
O397   O     0.42185   0.82597   0.30855   0.00000  Uiso   1.00
O398   O     0.57815   0.84070   0.19146   0.00000  Uiso   1.00
O399   O     0.52199   0.83540   0.31671   0.00000  Uiso   1.00
O400   O     0.47801   0.83126   0.18329   0.00000  Uiso   1.00
Br401  Br    0.74732   0.73157   0.07762   0.00000  Uiso   1.00
Br402  Br    0.91933   0.93511   0.42239   0.00000  Uiso   1.00
C403   C     0.84837   0.93340   0.25131   0.00000  Uiso   1.00
C404   C     0.87194   0.83716   0.16680   0.00000  Uiso   1.00
C405   C     0.77144   0.82490   0.38098   0.00000  Uiso   1.00
C406   C     0.89523   0.84177   0.11902   0.00000  Uiso   1.00
C407   C     0.68924   0.79233   0.44510   0.00000  Uiso   1.00
C408   C     0.97742   0.87434   0.05490   0.00000  Uiso   1.00
C409   C     0.70734   0.80484   0.40083   0.00000  Uiso   1.00
C410   C     0.95932   0.86183   0.09917   0.00000  Uiso   1.00
C411   C     0.81565   0.83685   0.40673   0.00000  Uiso   1.00
C412   C     0.85102   0.82981   0.09327   0.00000  Uiso   1.00
C413   C     0.79725   0.83037   0.45216   0.00000  Uiso   1.00
C414   C     0.81830   0.73327   0.24869   0.00000  Uiso   1.00
C415   C     0.86942   0.83630   0.04784   0.00000  Uiso   1.00
C416   C     0.73443   0.80281   0.47030   0.00000  Uiso   1.00
C417   C     0.93224   0.86386   0.02970   0.00000  Uiso   1.00
C418   C     0.84142   0.84474   0.47886   0.00000  Uiso   1.00
C419   C     0.82524   0.82192   0.02115   0.00000  Uiso   1.00
C420   C     0.76559   0.78570   0.03479   0.00000  Uiso   1.00
C421   C     0.90108   0.88097   0.46521   0.00000  Uiso   1.00
C422   C     0.71939   0.78083   0.01144   0.00000  Uiso   1.00
C423   C     0.94727   0.88584   0.48856   0.00000  Uiso   1.00
C424   C     0.85685   0.98936   0.25194   0.00000  Uiso   1.00
C425   C     0.80982   0.67731   0.24806   0.00000  Uiso   1.00
C426   C     0.79473   0.82950   0.33320   0.00000  Uiso   1.00
Cu427  Cu    0.77404   0.82775   0.24517   0.00000  Uiso   1.00
Cu428  Cu    0.89263   0.83892   0.25484   0.00000  Uiso   1.00
H429   H     0.67326   0.75510   0.02349   0.00000  Uiso   1.00
H430   H     0.76449   0.98684   0.24441   0.00000  Uiso   1.00
H431   H     0.66801   0.87174   0.28448   0.00000  Uiso   1.00
H432   H     0.99865   0.79492   0.21552   0.00000  Uiso   1.00
H433   H     0.99340   0.91158   0.47651   0.00000  Uiso   1.00
H434   H     0.80125   0.81961   0.10948   0.00000  Uiso   1.00
H435   H     0.86541   0.84706   0.39052   0.00000  Uiso   1.00
H436   H     0.99437   0.87149   0.11839   0.00000  Uiso   1.00
H437   H     0.67229   0.79519   0.38161   0.00000  Uiso   1.00
H438   H     0.97388   0.77254   0.45921   0.00000  Uiso   1.00
H439   H     0.69278   0.89413   0.04079   0.00000  Uiso   1.00
H440   H     0.90218   0.67983   0.25559   0.00000  Uiso   1.00
N441   N     0.98173   0.84735   0.26212   0.00000  Uiso   1.00
N442   N     0.68494   0.81932   0.23788   0.00000  Uiso   1.00
O443   O     0.79482   0.90476   0.24686   0.00000  Uiso   1.00
O444   O     0.87185   0.76191   0.25314   0.00000  Uiso   1.00
O445   O     0.89496   0.91420   0.25503   0.00000  Uiso   1.00
O446   O     0.77171   0.75247   0.24498   0.00000  Uiso   1.00
O447   O     0.75518   0.82597   0.30855   0.00000  Uiso   1.00
O448   O     0.91149   0.84070   0.19146   0.00000  Uiso   1.00
O449   O     0.85532   0.83540   0.31671   0.00000  Uiso   1.00
O450   O     0.81134   0.83126   0.18329   0.00000  Uiso   1.00
Br451  Br    0.08066   0.06490   0.57762   0.00000  Uiso   1.00
Br452  Br    0.25266   0.26844   0.92239   0.00000  Uiso   1.00
C453   C     0.18170   0.26673   0.75131   0.00000  Uiso   1.00
C454   C     0.20527   0.17050   0.66680   0.00000  Uiso   1.00
C455   C     0.10477   0.15823   0.88098   0.00000  Uiso   1.00
C456   C     0.22856   0.17510   0.61902   0.00000  Uiso   1.00
C457   C     0.02258   0.12567   0.94510   0.00000  Uiso   1.00
C458   C     0.31075   0.20767   0.55490   0.00000  Uiso   1.00
C459   C     0.04068   0.13817   0.90083   0.00000  Uiso   1.00
C460   C     0.29266   0.19516   0.59917   0.00000  Uiso   1.00
C461   C     0.14898   0.17019   0.90673   0.00000  Uiso   1.00
C462   C     0.18435   0.16315   0.59327   0.00000  Uiso   1.00
C463   C     0.13058   0.16370   0.95216   0.00000  Uiso   1.00
C464   C     0.15163   0.06660   0.74869   0.00000  Uiso   1.00
C465   C     0.20275   0.16963   0.54784   0.00000  Uiso   1.00
C466   C     0.06776   0.13614   0.97030   0.00000  Uiso   1.00
C467   C     0.26557   0.19719   0.52970   0.00000  Uiso   1.00
C468   C     0.17476   0.17808   0.97886   0.00000  Uiso   1.00
C469   C     0.15857   0.15526   0.52115   0.00000  Uiso   1.00
C470   C     0.09892   0.11903   0.53479   0.00000  Uiso   1.00
C471   C     0.23441   0.21431   0.96521   0.00000  Uiso   1.00
C472   C     0.05272   0.11416   0.51144   0.00000  Uiso   1.00
C473   C     0.28061   0.21917   0.98856   0.00000  Uiso   1.00
C474   C     0.19018   0.32269   0.75194   0.00000  Uiso   1.00
C475   C     0.14315   0.01064   0.74806   0.00000  Uiso   1.00
C476   C     0.12806   0.16284   0.83320   0.00000  Uiso   1.00
Cu477  Cu    0.10737   0.16108   0.74517   0.00000  Uiso   1.00
Cu478  Cu    0.22596   0.17225   0.75484   0.00000  Uiso   1.00
H479   H     0.00660   0.08843   0.52349   0.00000  Uiso   1.00
H480   H     0.09782   0.32017   0.74441   0.00000  Uiso   1.00
H481   H     0.00135   0.20508   0.78448   0.00000  Uiso   1.00
H482   H     0.33199   0.12826   0.71552   0.00000  Uiso   1.00
H483   H     0.32673   0.24491   0.97651   0.00000  Uiso   1.00
H484   H     0.13459   0.15295   0.60948   0.00000  Uiso   1.00
H485   H     0.19875   0.18039   0.89052   0.00000  Uiso   1.00
H486   H     0.32771   0.20482   0.61839   0.00000  Uiso   1.00
H487   H     0.00562   0.12852   0.88161   0.00000  Uiso   1.00
H488   H     0.30722   0.10588   0.95921   0.00000  Uiso   1.00
H489   H     0.02611   0.22746   0.54079   0.00000  Uiso   1.00
H490   H     0.23551   0.01316   0.75559   0.00000  Uiso   1.00
N491   N     0.31506   0.18068   0.76212   0.00000  Uiso   1.00
N492   N     0.01827   0.15265   0.73788   0.00000  Uiso   1.00
O493   O     0.12815   0.23809   0.74686   0.00000  Uiso   1.00
O494   O     0.20518   0.09524   0.75314   0.00000  Uiso   1.00
O495   O     0.22829   0.24753   0.75503   0.00000  Uiso   1.00
O496   O     0.10504   0.08580   0.74498   0.00000  Uiso   1.00
O497   O     0.08851   0.15930   0.80855   0.00000  Uiso   1.00
O498   O     0.24482   0.17403   0.69146   0.00000  Uiso   1.00
O499   O     0.18866   0.16874   0.81671   0.00000  Uiso   1.00
O500   O     0.14468   0.16460   0.68329   0.00000  Uiso   1.00
Br501  Br    0.41399   0.06490   0.57762   0.00000  Uiso   1.00
Br502  Br    0.58600   0.26844   0.92239   0.00000  Uiso   1.00
C503   C     0.51504   0.26673   0.75131   0.00000  Uiso   1.00
C504   C     0.53860   0.17050   0.66680   0.00000  Uiso   1.00
C505   C     0.43810   0.15823   0.88098   0.00000  Uiso   1.00
C506   C     0.56190   0.17510   0.61902   0.00000  Uiso   1.00
C507   C     0.35591   0.12567   0.94510   0.00000  Uiso   1.00
C508   C     0.64409   0.20767   0.55490   0.00000  Uiso   1.00
C509   C     0.37401   0.13817   0.90083   0.00000  Uiso   1.00
C510   C     0.62599   0.19516   0.59917   0.00000  Uiso   1.00
C511   C     0.48232   0.17019   0.90673   0.00000  Uiso   1.00
C512   C     0.51768   0.16315   0.59327   0.00000  Uiso   1.00
C513   C     0.46392   0.16370   0.95216   0.00000  Uiso   1.00
C514   C     0.48496   0.06660   0.74869   0.00000  Uiso   1.00
C515   C     0.53608   0.16963   0.54784   0.00000  Uiso   1.00
C516   C     0.40109   0.13614   0.97030   0.00000  Uiso   1.00
C517   C     0.59890   0.19719   0.52970   0.00000  Uiso   1.00
C518   C     0.50809   0.17808   0.97886   0.00000  Uiso   1.00
C519   C     0.49191   0.15526   0.52115   0.00000  Uiso   1.00
C520   C     0.43225   0.11903   0.53479   0.00000  Uiso   1.00
C521   C     0.56774   0.21431   0.96521   0.00000  Uiso   1.00
C522   C     0.38606   0.11416   0.51144   0.00000  Uiso   1.00
C523   C     0.61394   0.21917   0.98856   0.00000  Uiso   1.00
C524   C     0.52352   0.32269   0.75194   0.00000  Uiso   1.00
C525   C     0.47648   0.01064   0.74806   0.00000  Uiso   1.00
C526   C     0.46140   0.16284   0.83320   0.00000  Uiso   1.00
Cu527  Cu    0.44071   0.16108   0.74517   0.00000  Uiso   1.00
Cu528  Cu    0.55929   0.17225   0.75484   0.00000  Uiso   1.00
H529   H     0.33993   0.08843   0.52349   0.00000  Uiso   1.00
H530   H     0.43116   0.32017   0.74441   0.00000  Uiso   1.00
H531   H     0.33468   0.20508   0.78448   0.00000  Uiso   1.00
H532   H     0.66532   0.12826   0.71552   0.00000  Uiso   1.00
H533   H     0.66006   0.24491   0.97651   0.00000  Uiso   1.00
H534   H     0.46792   0.15295   0.60948   0.00000  Uiso   1.00
H535   H     0.53208   0.18039   0.89052   0.00000  Uiso   1.00
H536   H     0.66104   0.20482   0.61839   0.00000  Uiso   1.00
H537   H     0.33896   0.12852   0.88161   0.00000  Uiso   1.00
H538   H     0.64055   0.10588   0.95921   0.00000  Uiso   1.00
H539   H     0.35945   0.22746   0.54079   0.00000  Uiso   1.00
H540   H     0.56884   0.01316   0.75559   0.00000  Uiso   1.00
N541   N     0.64839   0.18068   0.76212   0.00000  Uiso   1.00
N542   N     0.35161   0.15265   0.73788   0.00000  Uiso   1.00
O543   O     0.46148   0.23809   0.74686   0.00000  Uiso   1.00
O544   O     0.53852   0.09524   0.75314   0.00000  Uiso   1.00
O545   O     0.56163   0.24753   0.75503   0.00000  Uiso   1.00
O546   O     0.43837   0.08580   0.74498   0.00000  Uiso   1.00
O547   O     0.42185   0.15930   0.80855   0.00000  Uiso   1.00
O548   O     0.57815   0.17403   0.69146   0.00000  Uiso   1.00
O549   O     0.52199   0.16874   0.81671   0.00000  Uiso   1.00
O550   O     0.47801   0.16460   0.68329   0.00000  Uiso   1.00
Br551  Br    0.74732   0.06490   0.57762   0.00000  Uiso   1.00
Br552  Br    0.91933   0.26844   0.92239   0.00000  Uiso   1.00
C553   C     0.84837   0.26673   0.75131   0.00000  Uiso   1.00
C554   C     0.87194   0.17050   0.66680   0.00000  Uiso   1.00
C555   C     0.77144   0.15823   0.88098   0.00000  Uiso   1.00
C556   C     0.89523   0.17510   0.61902   0.00000  Uiso   1.00
C557   C     0.68924   0.12567   0.94510   0.00000  Uiso   1.00
C558   C     0.97742   0.20767   0.55490   0.00000  Uiso   1.00
C559   C     0.70734   0.13817   0.90083   0.00000  Uiso   1.00
C560   C     0.95932   0.19516   0.59917   0.00000  Uiso   1.00
C561   C     0.81565   0.17019   0.90673   0.00000  Uiso   1.00
C562   C     0.85102   0.16315   0.59327   0.00000  Uiso   1.00
C563   C     0.79725   0.16370   0.95216   0.00000  Uiso   1.00
C564   C     0.81830   0.06660   0.74869   0.00000  Uiso   1.00
C565   C     0.86942   0.16963   0.54784   0.00000  Uiso   1.00
C566   C     0.73443   0.13614   0.97030   0.00000  Uiso   1.00
C567   C     0.93224   0.19719   0.52970   0.00000  Uiso   1.00
C568   C     0.84142   0.17808   0.97886   0.00000  Uiso   1.00
C569   C     0.82524   0.15526   0.52115   0.00000  Uiso   1.00
C570   C     0.76559   0.11903   0.53479   0.00000  Uiso   1.00
C571   C     0.90108   0.21431   0.96521   0.00000  Uiso   1.00
C572   C     0.71939   0.11416   0.51144   0.00000  Uiso   1.00
C573   C     0.94727   0.21917   0.98856   0.00000  Uiso   1.00
C574   C     0.85685   0.32269   0.75194   0.00000  Uiso   1.00
C575   C     0.80982   0.01064   0.74806   0.00000  Uiso   1.00
C576   C     0.79473   0.16284   0.83320   0.00000  Uiso   1.00
Cu577  Cu    0.77404   0.16108   0.74517   0.00000  Uiso   1.00
Cu578  Cu    0.89263   0.17225   0.75484   0.00000  Uiso   1.00
H579   H     0.67326   0.08843   0.52349   0.00000  Uiso   1.00
H580   H     0.76449   0.32017   0.74441   0.00000  Uiso   1.00
H581   H     0.66801   0.20508   0.78448   0.00000  Uiso   1.00
H582   H     0.99865   0.12826   0.71552   0.00000  Uiso   1.00
H583   H     0.99340   0.24491   0.97651   0.00000  Uiso   1.00
H584   H     0.80125   0.15295   0.60948   0.00000  Uiso   1.00
H585   H     0.86541   0.18039   0.89052   0.00000  Uiso   1.00
H586   H     0.99437   0.20482   0.61839   0.00000  Uiso   1.00
H587   H     0.67229   0.12852   0.88161   0.00000  Uiso   1.00
H588   H     0.97388   0.10588   0.95921   0.00000  Uiso   1.00
H589   H     0.69278   0.22746   0.54079   0.00000  Uiso   1.00
H590   H     0.90218   0.01316   0.75559   0.00000  Uiso   1.00
N591   N     0.98173   0.18068   0.76212   0.00000  Uiso   1.00
N592   N     0.68494   0.15265   0.73788   0.00000  Uiso   1.00
O593   O     0.79482   0.23809   0.74686   0.00000  Uiso   1.00
O594   O     0.87185   0.09524   0.75314   0.00000  Uiso   1.00
O595   O     0.89496   0.24753   0.75503   0.00000  Uiso   1.00
O596   O     0.77171   0.08580   0.74498   0.00000  Uiso   1.00
O597   O     0.75518   0.15930   0.80855   0.00000  Uiso   1.00
O598   O     0.91149   0.17403   0.69146   0.00000  Uiso   1.00
O599   O     0.85532   0.16874   0.81671   0.00000  Uiso   1.00
O600   O     0.81134   0.16460   0.68329   0.00000  Uiso   1.00
Br601  Br    0.08066   0.39823   0.57762   0.00000  Uiso   1.00
Br602  Br    0.25266   0.60177   0.92239   0.00000  Uiso   1.00
C603   C     0.18170   0.60006   0.75131   0.00000  Uiso   1.00
C604   C     0.20527   0.50383   0.66680   0.00000  Uiso   1.00
C605   C     0.10477   0.49157   0.88098   0.00000  Uiso   1.00
C606   C     0.22856   0.50843   0.61902   0.00000  Uiso   1.00
C607   C     0.02258   0.45900   0.94510   0.00000  Uiso   1.00
C608   C     0.31075   0.54100   0.55490   0.00000  Uiso   1.00
C609   C     0.04068   0.47150   0.90083   0.00000  Uiso   1.00
C610   C     0.29266   0.52850   0.59917   0.00000  Uiso   1.00
C611   C     0.14898   0.50352   0.90673   0.00000  Uiso   1.00
C612   C     0.18435   0.49648   0.59327   0.00000  Uiso   1.00
C613   C     0.13058   0.49703   0.95216   0.00000  Uiso   1.00
C614   C     0.15163   0.39994   0.74869   0.00000  Uiso   1.00
C615   C     0.20275   0.50297   0.54784   0.00000  Uiso   1.00
C616   C     0.06776   0.46947   0.97030   0.00000  Uiso   1.00
C617   C     0.26557   0.53053   0.52970   0.00000  Uiso   1.00
C618   C     0.17476   0.51141   0.97886   0.00000  Uiso   1.00
C619   C     0.15857   0.48859   0.52115   0.00000  Uiso   1.00
C620   C     0.09892   0.45236   0.53479   0.00000  Uiso   1.00
C621   C     0.23441   0.54764   0.96521   0.00000  Uiso   1.00
C622   C     0.05272   0.44750   0.51144   0.00000  Uiso   1.00
C623   C     0.28061   0.55250   0.98856   0.00000  Uiso   1.00
C624   C     0.19018   0.65603   0.75194   0.00000  Uiso   1.00
C625   C     0.14315   0.34397   0.74806   0.00000  Uiso   1.00
C626   C     0.12806   0.49617   0.83320   0.00000  Uiso   1.00
Cu627  Cu    0.10737   0.49441   0.74517   0.00000  Uiso   1.00
Cu628  Cu    0.22596   0.50559   0.75484   0.00000  Uiso   1.00
H629   H     0.00660   0.42176   0.52349   0.00000  Uiso   1.00
H630   H     0.09782   0.65350   0.74441   0.00000  Uiso   1.00
H631   H     0.00135   0.53841   0.78448   0.00000  Uiso   1.00
H632   H     0.33199   0.46159   0.71552   0.00000  Uiso   1.00
H633   H     0.32673   0.57824   0.97651   0.00000  Uiso   1.00
H634   H     0.13459   0.48628   0.60948   0.00000  Uiso   1.00
H635   H     0.19875   0.51372   0.89052   0.00000  Uiso   1.00
H636   H     0.32771   0.53815   0.61839   0.00000  Uiso   1.00
H637   H     0.00562   0.46185   0.88161   0.00000  Uiso   1.00
H638   H     0.30722   0.43921   0.95921   0.00000  Uiso   1.00
H639   H     0.02611   0.56079   0.54079   0.00000  Uiso   1.00
H640   H     0.23551   0.34650   0.75559   0.00000  Uiso   1.00
N641   N     0.31506   0.51401   0.76212   0.00000  Uiso   1.00
N642   N     0.01827   0.48599   0.73788   0.00000  Uiso   1.00
O643   O     0.12815   0.57142   0.74686   0.00000  Uiso   1.00
O644   O     0.20518   0.42858   0.75314   0.00000  Uiso   1.00
O645   O     0.22829   0.58086   0.75503   0.00000  Uiso   1.00
O646   O     0.10504   0.41914   0.74498   0.00000  Uiso   1.00
O647   O     0.08851   0.49263   0.80855   0.00000  Uiso   1.00
O648   O     0.24482   0.50737   0.69146   0.00000  Uiso   1.00
O649   O     0.18866   0.50207   0.81671   0.00000  Uiso   1.00
O650   O     0.14468   0.49793   0.68329   0.00000  Uiso   1.00
Br651  Br    0.41399   0.39823   0.57762   0.00000  Uiso   1.00
Br652  Br    0.58600   0.60177   0.92239   0.00000  Uiso   1.00
C653   C     0.51504   0.60006   0.75131   0.00000  Uiso   1.00
C654   C     0.53860   0.50383   0.66680   0.00000  Uiso   1.00
C655   C     0.43810   0.49157   0.88098   0.00000  Uiso   1.00
C656   C     0.56190   0.50843   0.61902   0.00000  Uiso   1.00
C657   C     0.35591   0.45900   0.94510   0.00000  Uiso   1.00
C658   C     0.64409   0.54100   0.55490   0.00000  Uiso   1.00
C659   C     0.37401   0.47150   0.90083   0.00000  Uiso   1.00
C660   C     0.62599   0.52850   0.59917   0.00000  Uiso   1.00
C661   C     0.48232   0.50352   0.90673   0.00000  Uiso   1.00
C662   C     0.51768   0.49648   0.59327   0.00000  Uiso   1.00
C663   C     0.46392   0.49703   0.95216   0.00000  Uiso   1.00
C664   C     0.48496   0.39994   0.74869   0.00000  Uiso   1.00
C665   C     0.53608   0.50297   0.54784   0.00000  Uiso   1.00
C666   C     0.40109   0.46947   0.97030   0.00000  Uiso   1.00
C667   C     0.59890   0.53053   0.52970   0.00000  Uiso   1.00
C668   C     0.50809   0.51141   0.97886   0.00000  Uiso   1.00
C669   C     0.49191   0.48859   0.52115   0.00000  Uiso   1.00
C670   C     0.43225   0.45236   0.53479   0.00000  Uiso   1.00
C671   C     0.56774   0.54764   0.96521   0.00000  Uiso   1.00
C672   C     0.38606   0.44750   0.51144   0.00000  Uiso   1.00
C673   C     0.61394   0.55250   0.98856   0.00000  Uiso   1.00
C674   C     0.52352   0.65603   0.75194   0.00000  Uiso   1.00
C675   C     0.47648   0.34397   0.74806   0.00000  Uiso   1.00
C676   C     0.46140   0.49617   0.83320   0.00000  Uiso   1.00
Cu677  Cu    0.44071   0.49441   0.74517   0.00000  Uiso   1.00
Cu678  Cu    0.55929   0.50559   0.75484   0.00000  Uiso   1.00
H679   H     0.33993   0.42176   0.52349   0.00000  Uiso   1.00
H680   H     0.43116   0.65350   0.74441   0.00000  Uiso   1.00
H681   H     0.33468   0.53841   0.78448   0.00000  Uiso   1.00
H682   H     0.66532   0.46159   0.71552   0.00000  Uiso   1.00
H683   H     0.66006   0.57824   0.97651   0.00000  Uiso   1.00
H684   H     0.46792   0.48628   0.60948   0.00000  Uiso   1.00
H685   H     0.53208   0.51372   0.89052   0.00000  Uiso   1.00
H686   H     0.66104   0.53815   0.61839   0.00000  Uiso   1.00
H687   H     0.33896   0.46185   0.88161   0.00000  Uiso   1.00
H688   H     0.64055   0.43921   0.95921   0.00000  Uiso   1.00
H689   H     0.35945   0.56079   0.54079   0.00000  Uiso   1.00
H690   H     0.56884   0.34650   0.75559   0.00000  Uiso   1.00
N691   N     0.64839   0.51401   0.76212   0.00000  Uiso   1.00
N692   N     0.35161   0.48599   0.73788   0.00000  Uiso   1.00
O693   O     0.46148   0.57142   0.74686   0.00000  Uiso   1.00
O694   O     0.53852   0.42858   0.75314   0.00000  Uiso   1.00
O695   O     0.56163   0.58086   0.75503   0.00000  Uiso   1.00
O696   O     0.43837   0.41914   0.74498   0.00000  Uiso   1.00
O697   O     0.42185   0.49263   0.80855   0.00000  Uiso   1.00
O698   O     0.57815   0.50737   0.69146   0.00000  Uiso   1.00
O699   O     0.52199   0.50207   0.81671   0.00000  Uiso   1.00
O700   O     0.47801   0.49793   0.68329   0.00000  Uiso   1.00
Br701  Br    0.74732   0.39823   0.57762   0.00000  Uiso   1.00
Br702  Br    0.91933   0.60177   0.92239   0.00000  Uiso   1.00
C703   C     0.84837   0.60006   0.75131   0.00000  Uiso   1.00
C704   C     0.87194   0.50383   0.66680   0.00000  Uiso   1.00
C705   C     0.77144   0.49157   0.88098   0.00000  Uiso   1.00
C706   C     0.89523   0.50843   0.61902   0.00000  Uiso   1.00
C707   C     0.68924   0.45900   0.94510   0.00000  Uiso   1.00
C708   C     0.97742   0.54100   0.55490   0.00000  Uiso   1.00
C709   C     0.70734   0.47150   0.90083   0.00000  Uiso   1.00
C710   C     0.95932   0.52850   0.59917   0.00000  Uiso   1.00
C711   C     0.81565   0.50352   0.90673   0.00000  Uiso   1.00
C712   C     0.85102   0.49648   0.59327   0.00000  Uiso   1.00
C713   C     0.79725   0.49703   0.95216   0.00000  Uiso   1.00
C714   C     0.81830   0.39994   0.74869   0.00000  Uiso   1.00
C715   C     0.86942   0.50297   0.54784   0.00000  Uiso   1.00
C716   C     0.73443   0.46947   0.97030   0.00000  Uiso   1.00
C717   C     0.93224   0.53053   0.52970   0.00000  Uiso   1.00
C718   C     0.84142   0.51141   0.97886   0.00000  Uiso   1.00
C719   C     0.82524   0.48859   0.52115   0.00000  Uiso   1.00
C720   C     0.76559   0.45236   0.53479   0.00000  Uiso   1.00
C721   C     0.90108   0.54764   0.96521   0.00000  Uiso   1.00
C722   C     0.71939   0.44750   0.51144   0.00000  Uiso   1.00
C723   C     0.94727   0.55250   0.98856   0.00000  Uiso   1.00
C724   C     0.85685   0.65603   0.75194   0.00000  Uiso   1.00
C725   C     0.80982   0.34397   0.74806   0.00000  Uiso   1.00
C726   C     0.79473   0.49617   0.83320   0.00000  Uiso   1.00
Cu727  Cu    0.77404   0.49441   0.74517   0.00000  Uiso   1.00
Cu728  Cu    0.89263   0.50559   0.75484   0.00000  Uiso   1.00
H729   H     0.67326   0.42176   0.52349   0.00000  Uiso   1.00
H730   H     0.76449   0.65350   0.74441   0.00000  Uiso   1.00
H731   H     0.66801   0.53841   0.78448   0.00000  Uiso   1.00
H732   H     0.99865   0.46159   0.71552   0.00000  Uiso   1.00
H733   H     0.99340   0.57824   0.97651   0.00000  Uiso   1.00
H734   H     0.80125   0.48628   0.60948   0.00000  Uiso   1.00
H735   H     0.86541   0.51372   0.89052   0.00000  Uiso   1.00
H736   H     0.99437   0.53815   0.61839   0.00000  Uiso   1.00
H737   H     0.67229   0.46185   0.88161   0.00000  Uiso   1.00
H738   H     0.97388   0.43921   0.95921   0.00000  Uiso   1.00
H739   H     0.69278   0.56079   0.54079   0.00000  Uiso   1.00
H740   H     0.90218   0.34650   0.75559   0.00000  Uiso   1.00
N741   N     0.98173   0.51401   0.76212   0.00000  Uiso   1.00
N742   N     0.68494   0.48599   0.73788   0.00000  Uiso   1.00
O743   O     0.79482   0.57142   0.74686   0.00000  Uiso   1.00
O744   O     0.87185   0.42858   0.75314   0.00000  Uiso   1.00
O745   O     0.89496   0.58086   0.75503   0.00000  Uiso   1.00
O746   O     0.77171   0.41914   0.74498   0.00000  Uiso   1.00
O747   O     0.75518   0.49263   0.80855   0.00000  Uiso   1.00
O748   O     0.91149   0.50737   0.69146   0.00000  Uiso   1.00
O749   O     0.85532   0.50207   0.81671   0.00000  Uiso   1.00
O750   O     0.81134   0.49793   0.68329   0.00000  Uiso   1.00
Br751  Br    0.08066   0.73157   0.57762   0.00000  Uiso   1.00
Br752  Br    0.25266   0.93511   0.92239   0.00000  Uiso   1.00
C753   C     0.18170   0.93340   0.75131   0.00000  Uiso   1.00
C754   C     0.20527   0.83716   0.66680   0.00000  Uiso   1.00
C755   C     0.10477   0.82490   0.88098   0.00000  Uiso   1.00
C756   C     0.22856   0.84177   0.61902   0.00000  Uiso   1.00
C757   C     0.02258   0.79233   0.94510   0.00000  Uiso   1.00
C758   C     0.31075   0.87434   0.55490   0.00000  Uiso   1.00
C759   C     0.04068   0.80484   0.90083   0.00000  Uiso   1.00
C760   C     0.29266   0.86183   0.59917   0.00000  Uiso   1.00
C761   C     0.14898   0.83685   0.90673   0.00000  Uiso   1.00
C762   C     0.18435   0.82981   0.59327   0.00000  Uiso   1.00
C763   C     0.13058   0.83037   0.95216   0.00000  Uiso   1.00
C764   C     0.15163   0.73327   0.74869   0.00000  Uiso   1.00
C765   C     0.20275   0.83630   0.54784   0.00000  Uiso   1.00
C766   C     0.06776   0.80281   0.97030   0.00000  Uiso   1.00
C767   C     0.26557   0.86386   0.52970   0.00000  Uiso   1.00
C768   C     0.17476   0.84474   0.97886   0.00000  Uiso   1.00
C769   C     0.15857   0.82192   0.52115   0.00000  Uiso   1.00
C770   C     0.09892   0.78570   0.53479   0.00000  Uiso   1.00
C771   C     0.23441   0.88097   0.96521   0.00000  Uiso   1.00
C772   C     0.05272   0.78083   0.51144   0.00000  Uiso   1.00
C773   C     0.28061   0.88584   0.98856   0.00000  Uiso   1.00
C774   C     0.19018   0.98936   0.75194   0.00000  Uiso   1.00
C775   C     0.14315   0.67731   0.74806   0.00000  Uiso   1.00
C776   C     0.12806   0.82950   0.83320   0.00000  Uiso   1.00
Cu777  Cu    0.10737   0.82775   0.74517   0.00000  Uiso   1.00
Cu778  Cu    0.22596   0.83892   0.75484   0.00000  Uiso   1.00
H779   H     0.00660   0.75510   0.52349   0.00000  Uiso   1.00
H780   H     0.09782   0.98684   0.74441   0.00000  Uiso   1.00
H781   H     0.00135   0.87174   0.78448   0.00000  Uiso   1.00
H782   H     0.33199   0.79492   0.71552   0.00000  Uiso   1.00
H783   H     0.32673   0.91158   0.97651   0.00000  Uiso   1.00
H784   H     0.13459   0.81961   0.60948   0.00000  Uiso   1.00
H785   H     0.19875   0.84706   0.89052   0.00000  Uiso   1.00
H786   H     0.32771   0.87149   0.61839   0.00000  Uiso   1.00
H787   H     0.00562   0.79519   0.88161   0.00000  Uiso   1.00
H788   H     0.30722   0.77254   0.95921   0.00000  Uiso   1.00
H789   H     0.02611   0.89413   0.54079   0.00000  Uiso   1.00
H790   H     0.23551   0.67983   0.75559   0.00000  Uiso   1.00
N791   N     0.31506   0.84735   0.76212   0.00000  Uiso   1.00
N792   N     0.01827   0.81932   0.73788   0.00000  Uiso   1.00
O793   O     0.12815   0.90476   0.74686   0.00000  Uiso   1.00
O794   O     0.20518   0.76191   0.75314   0.00000  Uiso   1.00
O795   O     0.22829   0.91420   0.75503   0.00000  Uiso   1.00
O796   O     0.10504   0.75247   0.74498   0.00000  Uiso   1.00
O797   O     0.08851   0.82597   0.80855   0.00000  Uiso   1.00
O798   O     0.24482   0.84070   0.69146   0.00000  Uiso   1.00
O799   O     0.18866   0.83540   0.81671   0.00000  Uiso   1.00
O800   O     0.14468   0.83126   0.68329   0.00000  Uiso   1.00
Br801  Br    0.41399   0.73157   0.57762   0.00000  Uiso   1.00
Br802  Br    0.58600   0.93511   0.92239   0.00000  Uiso   1.00
C803   C     0.51504   0.93340   0.75131   0.00000  Uiso   1.00
C804   C     0.53860   0.83716   0.66680   0.00000  Uiso   1.00
C805   C     0.43810   0.82490   0.88098   0.00000  Uiso   1.00
C806   C     0.56190   0.84177   0.61902   0.00000  Uiso   1.00
C807   C     0.35591   0.79233   0.94510   0.00000  Uiso   1.00
C808   C     0.64409   0.87434   0.55490   0.00000  Uiso   1.00
C809   C     0.37401   0.80484   0.90083   0.00000  Uiso   1.00
C810   C     0.62599   0.86183   0.59917   0.00000  Uiso   1.00
C811   C     0.48232   0.83685   0.90673   0.00000  Uiso   1.00
C812   C     0.51768   0.82981   0.59327   0.00000  Uiso   1.00
C813   C     0.46392   0.83037   0.95216   0.00000  Uiso   1.00
C814   C     0.48496   0.73327   0.74869   0.00000  Uiso   1.00
C815   C     0.53608   0.83630   0.54784   0.00000  Uiso   1.00
C816   C     0.40109   0.80281   0.97030   0.00000  Uiso   1.00
C817   C     0.59890   0.86386   0.52970   0.00000  Uiso   1.00
C818   C     0.50809   0.84474   0.97886   0.00000  Uiso   1.00
C819   C     0.49191   0.82192   0.52115   0.00000  Uiso   1.00
C820   C     0.43225   0.78570   0.53479   0.00000  Uiso   1.00
C821   C     0.56774   0.88097   0.96521   0.00000  Uiso   1.00
C822   C     0.38606   0.78083   0.51144   0.00000  Uiso   1.00
C823   C     0.61394   0.88584   0.98856   0.00000  Uiso   1.00
C824   C     0.52352   0.98936   0.75194   0.00000  Uiso   1.00
C825   C     0.47648   0.67731   0.74806   0.00000  Uiso   1.00
C826   C     0.46140   0.82950   0.83320   0.00000  Uiso   1.00
Cu827  Cu    0.44071   0.82775   0.74517   0.00000  Uiso   1.00
Cu828  Cu    0.55929   0.83892   0.75484   0.00000  Uiso   1.00
H829   H     0.33993   0.75510   0.52349   0.00000  Uiso   1.00
H830   H     0.43116   0.98684   0.74441   0.00000  Uiso   1.00
H831   H     0.33468   0.87174   0.78448   0.00000  Uiso   1.00
H832   H     0.66532   0.79492   0.71552   0.00000  Uiso   1.00
H833   H     0.66006   0.91158   0.97651   0.00000  Uiso   1.00
H834   H     0.46792   0.81961   0.60948   0.00000  Uiso   1.00
H835   H     0.53208   0.84706   0.89052   0.00000  Uiso   1.00
H836   H     0.66104   0.87149   0.61839   0.00000  Uiso   1.00
H837   H     0.33896   0.79519   0.88161   0.00000  Uiso   1.00
H838   H     0.64055   0.77254   0.95921   0.00000  Uiso   1.00
H839   H     0.35945   0.89413   0.54079   0.00000  Uiso   1.00
H840   H     0.56884   0.67983   0.75559   0.00000  Uiso   1.00
N841   N     0.64839   0.84735   0.76212   0.00000  Uiso   1.00
N842   N     0.35161   0.81932   0.73788   0.00000  Uiso   1.00
O843   O     0.46148   0.90476   0.74686   0.00000  Uiso   1.00
O844   O     0.53852   0.76191   0.75314   0.00000  Uiso   1.00
O845   O     0.56163   0.91420   0.75503   0.00000  Uiso   1.00
O846   O     0.43837   0.75247   0.74498   0.00000  Uiso   1.00
O847   O     0.42185   0.82597   0.80855   0.00000  Uiso   1.00
O848   O     0.57815   0.84070   0.69146   0.00000  Uiso   1.00
O849   O     0.52199   0.83540   0.81671   0.00000  Uiso   1.00
O850   O     0.47801   0.83126   0.68329   0.00000  Uiso   1.00
Br851  Br    0.74732   0.73157   0.57762   0.00000  Uiso   1.00
Br852  Br    0.91933   0.93511   0.92239   0.00000  Uiso   1.00
C853   C     0.84837   0.93340   0.75131   0.00000  Uiso   1.00
C854   C     0.87194   0.83716   0.66680   0.00000  Uiso   1.00
C855   C     0.77144   0.82490   0.88098   0.00000  Uiso   1.00
C856   C     0.89523   0.84177   0.61902   0.00000  Uiso   1.00
C857   C     0.68924   0.79233   0.94510   0.00000  Uiso   1.00
C858   C     0.97742   0.87434   0.55490   0.00000  Uiso   1.00
C859   C     0.70734   0.80484   0.90083   0.00000  Uiso   1.00
C860   C     0.95932   0.86183   0.59917   0.00000  Uiso   1.00
C861   C     0.81565   0.83685   0.90673   0.00000  Uiso   1.00
C862   C     0.85102   0.82981   0.59327   0.00000  Uiso   1.00
C863   C     0.79725   0.83037   0.95216   0.00000  Uiso   1.00
C864   C     0.81830   0.73327   0.74869   0.00000  Uiso   1.00
C865   C     0.86942   0.83630   0.54784   0.00000  Uiso   1.00
C866   C     0.73443   0.80281   0.97030   0.00000  Uiso   1.00
C867   C     0.93224   0.86386   0.52970   0.00000  Uiso   1.00
C868   C     0.84142   0.84474   0.97886   0.00000  Uiso   1.00
C869   C     0.82524   0.82192   0.52115   0.00000  Uiso   1.00
C870   C     0.76559   0.78570   0.53479   0.00000  Uiso   1.00
C871   C     0.90108   0.88097   0.96521   0.00000  Uiso   1.00
C872   C     0.71939   0.78083   0.51144   0.00000  Uiso   1.00
C873   C     0.94727   0.88584   0.98856   0.00000  Uiso   1.00
C874   C     0.85685   0.98936   0.75194   0.00000  Uiso   1.00
C875   C     0.80982   0.67731   0.74806   0.00000  Uiso   1.00
C876   C     0.79473   0.82950   0.83320   0.00000  Uiso   1.00
Cu877  Cu    0.77404   0.82775   0.74517   0.00000  Uiso   1.00
Cu878  Cu    0.89263   0.83892   0.75484   0.00000  Uiso   1.00
H879   H     0.67326   0.75510   0.52349   0.00000  Uiso   1.00
H880   H     0.76449   0.98684   0.74441   0.00000  Uiso   1.00
H881   H     0.66801   0.87174   0.78448   0.00000  Uiso   1.00
H882   H     0.99865   0.79492   0.71552   0.00000  Uiso   1.00
H883   H     0.99340   0.91158   0.97651   0.00000  Uiso   1.00
H884   H     0.80125   0.81961   0.60948   0.00000  Uiso   1.00
H885   H     0.86541   0.84706   0.89052   0.00000  Uiso   1.00
H886   H     0.99437   0.87149   0.61839   0.00000  Uiso   1.00
H887   H     0.67229   0.79519   0.88161   0.00000  Uiso   1.00
H888   H     0.97388   0.77254   0.95921   0.00000  Uiso   1.00
H889   H     0.69278   0.89413   0.54079   0.00000  Uiso   1.00
H890   H     0.90218   0.67983   0.75559   0.00000  Uiso   1.00
N891   N     0.98173   0.84735   0.76212   0.00000  Uiso   1.00
N892   N     0.68494   0.81932   0.73788   0.00000  Uiso   1.00
O893   O     0.79482   0.90476   0.74686   0.00000  Uiso   1.00
O894   O     0.87185   0.76191   0.75314   0.00000  Uiso   1.00
O895   O     0.89496   0.91420   0.75503   0.00000  Uiso   1.00
O896   O     0.77171   0.75247   0.74498   0.00000  Uiso   1.00
O897   O     0.75518   0.82597   0.80855   0.00000  Uiso   1.00
O898   O     0.91149   0.84070   0.69146   0.00000  Uiso   1.00
O899   O     0.85532   0.83540   0.81671   0.00000  Uiso   1.00
O900   O     0.81134   0.83126   0.68329   0.00000  Uiso   1.00
loop_
_geom_bond_atom_site_label_1
_geom_bond_atom_site_label_2
_geom_bond_distance
_geom_bond_site_symmetry_2
_ccdc_geom_bond_type
Br1    C20     1.931   .     S
Br2    C21     1.931   .     S
C3     O45     1.285   .     A
C3     O43     1.291   .     A
C3     C24     1.427   .     S
C4     C6      1.470   .     S
C4     O48     1.302   .     A
C4     O50     1.295   .     A
C5     C9      1.400   .     A
C5     C11     1.401   .     A
C5     C26     1.470   .     S
C6     C10     1.400   .     A
C6     C12     1.401   .     A
C7     C16     1.406   .     A
C7     C9      1.395   .     A
C7     H138    1.084   1_455 S
C8     C10     1.395   .     A
C8     C17     1.406   .     A
C8     H89     1.084   .     S
C9     H37     1.083   .     S
C10    H36     1.083   .     S
C11    C13     1.400   .     A
C11    H35     1.077   .     S
C12    C15     1.400   .     A
C12    H34     1.077   .     S
C13    C18     1.425   .     A
C13    C16     1.414   .     A
C14    O46     1.285   .     A
C14    C25     1.427   .     S
C14    O44     1.291   .     A
C15    C19     1.425   .     A
C15    C17     1.414   .     A
C16    C472    1.390   .     S
C17    C473    1.390   1_554 S
C18    C21     1.429   .     A
C18    C469    1.429   .     S
C19    C20     1.429   .     A
C19    C468    1.429   1_554 S
C20    C22     1.392   .     A
C21    C23     1.392   .     A
C22    H29     1.085   .     S
C22    C466    1.390   1_554 S
C23    H33     1.085   .     S
C23    C467    1.390   .     S
C24    C175    1.328   .     S
C24    H190    1.088   .     S
C25    C324    1.328   1_545 S
C25    H330    1.088   1_545 S
C26    O47     1.302   .     A
C26    O49     1.295   .     A
Cu27   O50     1.919   .     S
Cu27   N42     2.019   .     S
Cu27   O46     1.951   .     S
Cu27   O43     1.955   .     S
Cu27   Cu28    2.687   .     S
Cu27   O47     1.940   .     S
Cu28   O45     1.951   .     S
Cu28   N41     2.019   .     S
Cu28   O48     1.940   .     S
Cu28   O44     1.955   .     S
Cu28   O49     1.919   .     S
H30    C175    1.088   .     S
H31    N141    1.029   1_455 S
H32    N92     1.029   .     S
H38    C57     1.084   .     S
H39    C108    1.084   1_455 S
H40    C324    1.088   1_545 S
N41    H81     1.029   .     S
N41    N92     1.286   .     S
N42    H132    1.029   1_455 S
N42    N141    1.286   1_455 S
Br51   C70     1.931   .     S
Br52   C71     1.931   .     S
C53    O95     1.285   .     A
C53    O93     1.291   .     A
C53    C74     1.427   .     S
C54    C56     1.470   .     S
C54    O98     1.302   .     A
C54    O100    1.295   .     A
C55    C59     1.400   .     A
C55    C61     1.401   .     A
C55    C76     1.470   .     S
C56    C60     1.400   .     A
C56    C62     1.401   .     A
C57    C66     1.406   .     A
C57    C59     1.395   .     A
C58    C60     1.395   .     A
C58    C67     1.406   .     A
C58    H139    1.084   .     S
C59    H87     1.083   .     S
C60    H86     1.083   .     S
C61    C63     1.400   .     A
C61    H85     1.077   .     S
C62    C65     1.400   .     A
C62    H84     1.077   .     S
C63    C68     1.425   .     A
C63    C66     1.414   .     A
C64    O96     1.285   .     A
C64    C75     1.427   .     S
C64    O94     1.291   .     A
C65    C69     1.425   .     A
C65    C67     1.414   .     A
C66    C522    1.390   .     S
C67    C523    1.390   1_554 S
C68    C71     1.429   .     A
C68    C519    1.429   .     S
C69    C70     1.429   .     A
C69    C518    1.429   1_554 S
C70    C72     1.392   .     A
C71    C73     1.392   .     A
C72    H79     1.085   .     S
C72    C516    1.390   1_554 S
C73    H83     1.085   .     S
C73    C517    1.390   .     S
C74    C225    1.328   .     S
C74    H240    1.088   .     S
C75    C374    1.328   1_545 S
C75    H380    1.088   1_545 S
C76    O97     1.302   .     A
C76    O99     1.295   .     A
Cu77   O100    1.919   .     S
Cu77   N92     2.019   .     S
Cu77   O96     1.951   .     S
Cu77   O93     1.955   .     S
Cu77   Cu78    2.687   .     S
Cu77   O97     1.940   .     S
Cu78   O95     1.951   .     S
Cu78   N91     2.019   .     S
Cu78   O98     1.940   .     S
Cu78   O94     1.955   .     S
Cu78   O99     1.919   .     S
H80    C225    1.088   .     S
H82    N142    1.029   .     S
H88    C107    1.084   .     S
H90    C374    1.088   1_545 S
N91    H131    1.029   .     S
N91    N142    1.286   .     S
Br101  C120    1.931   .     S
Br102  C121    1.931   .     S
C103   O145    1.285   .     A
C103   O143    1.291   .     A
C103   C124    1.427   .     S
C104   C106    1.470   .     S
C104   O148    1.302   .     A
C104   O150    1.295   .     A
C105   C109    1.400   .     A
C105   C111    1.401   .     A
C105   C126    1.470   .     S
C106   C110    1.400   .     A
C106   C112    1.401   .     A
C107   C116    1.406   .     A
C107   C109    1.395   .     A
C108   C110    1.395   .     A
C108   C117    1.406   .     A
C108   H39     1.084   1_655 S
C109   H137    1.083   .     S
C110   H136    1.083   .     S
C111   C113    1.400   .     A
C111   H135    1.077   .     S
C112   C115    1.400   .     A
C112   H134    1.077   .     S
C113   C118    1.425   .     A
C113   C116    1.414   .     A
C114   O146    1.285   .     A
C114   C125    1.427   .     S
C114   O144    1.291   .     A
C115   C119    1.425   .     A
C115   C117    1.414   .     A
C116   C572    1.390   .     S
C117   C573    1.390   1_554 S
C118   C121    1.429   .     A
C118   C569    1.429   .     S
C119   C120    1.429   .     A
C119   C568    1.429   1_554 S
C120   C122    1.392   .     A
C121   C123    1.392   .     A
C122   H129    1.085   .     S
C122   C566    1.390   1_554 S
C123   H133    1.085   .     S
C123   C567    1.390   .     S
C124   C275    1.328   .     S
C124   H290    1.088   .     S
C125   C424    1.328   1_545 S
C125   H430    1.088   1_545 S
C126   O147    1.302   .     A
C126   O149    1.295   .     A
Cu127  O150    1.919   .     S
Cu127  N142    2.019   .     S
Cu127  O146    1.951   .     S
Cu127  O143    1.955   .     S
Cu127  Cu128   2.687   .     S
Cu127  O147    1.940   .     S
Cu128  O145    1.951   .     S
Cu128  N141    2.019   .     S
Cu128  O148    1.940   .     S
Cu128  O144    1.955   .     S
Cu128  O149    1.919   .     S
H130   C275    1.088   .     S
H132   N42     1.029   1_655 S
H138   C7      1.084   1_655 S
H140   C424    1.088   1_545 S
N141   H31     1.029   1_655 S
N141   N42     1.286   1_655 S
Br151  C170    1.931   .     S
Br152  C171    1.931   .     S
C153   O195    1.285   .     A
C153   O193    1.291   .     A
C153   C174    1.427   .     S
C154   C156    1.470   .     S
C154   O198    1.302   .     A
C154   O200    1.295   .     A
C155   C159    1.400   .     A
C155   C161    1.401   .     A
C155   C176    1.470   .     S
C156   C160    1.400   .     A
C156   C162    1.401   .     A
C157   C166    1.406   .     A
C157   C159    1.395   .     A
C157   H288    1.084   1_455 S
C158   C160    1.395   .     A
C158   C167    1.406   .     A
C158   H239    1.084   .     S
C159   H187    1.083   .     S
C160   H186    1.083   .     S
C161   C163    1.400   .     A
C161   H185    1.077   .     S
C162   C165    1.400   .     A
C162   H184    1.077   .     S
C163   C168    1.425   .     A
C163   C166    1.414   .     A
C164   O196    1.285   .     A
C164   C175    1.427   .     S
C164   O194    1.291   .     A
C165   C169    1.425   .     A
C165   C167    1.414   .     A
C166   C622    1.390   .     S
C167   C623    1.390   1_554 S
C168   C171    1.429   .     A
C168   C619    1.429   .     S
C169   C170    1.429   .     A
C169   C618    1.429   1_554 S
C170   C172    1.392   .     A
C171   C173    1.392   .     A
C172   H179    1.085   .     S
C172   C616    1.390   1_554 S
C173   H183    1.085   .     S
C173   C617    1.390   .     S
C174   C325    1.328   .     S
C174   H340    1.088   .     S
C176   O197    1.302   .     A
C176   O199    1.295   .     A
Cu177  O200    1.919   .     S
Cu177  N192    2.019   .     S
Cu177  O196    1.951   .     S
Cu177  O193    1.955   .     S
Cu177  Cu178   2.687   .     S
Cu177  O197    1.940   .     S
Cu178  O195    1.951   .     S
Cu178  N191    2.019   .     S
Cu178  O198    1.940   .     S
Cu178  O194    1.955   .     S
Cu178  O199    1.919   .     S
H180   C325    1.088   .     S
H181   N291    1.029   1_455 S
H182   N242    1.029   .     S
H188   C207    1.084   .     S
H189   C258    1.084   1_455 S
N191   H231    1.029   .     S
N191   N242    1.286   .     S
N192   H282    1.029   1_455 S
N192   N291    1.286   1_455 S
Br201  C220    1.931   .     S
Br202  C221    1.931   .     S
C203   O245    1.285   .     A
C203   O243    1.291   .     A
C203   C224    1.427   .     S
C204   C206    1.470   .     S
C204   O248    1.302   .     A
C204   O250    1.295   .     A
C205   C209    1.400   .     A
C205   C211    1.401   .     A
C205   C226    1.470   .     S
C206   C210    1.400   .     A
C206   C212    1.401   .     A
C207   C216    1.406   .     A
C207   C209    1.395   .     A
C208   C210    1.395   .     A
C208   C217    1.406   .     A
C208   H289    1.084   .     S
C209   H237    1.083   .     S
C210   H236    1.083   .     S
C211   C213    1.400   .     A
C211   H235    1.077   .     S
C212   C215    1.400   .     A
C212   H234    1.077   .     S
C213   C218    1.425   .     A
C213   C216    1.414   .     A
C214   O246    1.285   .     A
C214   C225    1.427   .     S
C214   O244    1.291   .     A
C215   C219    1.425   .     A
C215   C217    1.414   .     A
C216   C672    1.390   .     S
C217   C673    1.390   1_554 S
C218   C221    1.429   .     A
C218   C669    1.429   .     S
C219   C220    1.429   .     A
C219   C668    1.429   1_554 S
C220   C222    1.392   .     A
C221   C223    1.392   .     A
C222   H229    1.085   .     S
C222   C666    1.390   1_554 S
C223   H233    1.085   .     S
C223   C667    1.390   .     S
C224   C375    1.328   .     S
C224   H390    1.088   .     S
C226   O247    1.302   .     A
C226   O249    1.295   .     A
Cu227  O250    1.919   .     S
Cu227  N242    2.019   .     S
Cu227  O246    1.951   .     S
Cu227  O243    1.955   .     S
Cu227  Cu228   2.687   .     S
Cu227  O247    1.940   .     S
Cu228  O245    1.951   .     S
Cu228  N241    2.019   .     S
Cu228  O248    1.940   .     S
Cu228  O244    1.955   .     S
Cu228  O249    1.919   .     S
H230   C375    1.088   .     S
H232   N292    1.029   .     S
H238   C257    1.084   .     S
N241   H281    1.029   .     S
N241   N292    1.286   .     S
Br251  C270    1.931   .     S
Br252  C271    1.931   .     S
C253   O295    1.285   .     A
C253   O293    1.291   .     A
C253   C274    1.427   .     S
C254   C256    1.470   .     S
C254   O298    1.302   .     A
C254   O300    1.295   .     A
C255   C259    1.400   .     A
C255   C261    1.401   .     A
C255   C276    1.470   .     S
C256   C260    1.400   .     A
C256   C262    1.401   .     A
C257   C266    1.406   .     A
C257   C259    1.395   .     A
C258   C260    1.395   .     A
C258   C267    1.406   .     A
C258   H189    1.084   1_655 S
C259   H287    1.083   .     S
C260   H286    1.083   .     S
C261   C263    1.400   .     A
C261   H285    1.077   .     S
C262   C265    1.400   .     A
C262   H284    1.077   .     S
C263   C268    1.425   .     A
C263   C266    1.414   .     A
C264   O296    1.285   .     A
C264   C275    1.427   .     S
C264   O294    1.291   .     A
C265   C269    1.425   .     A
C265   C267    1.414   .     A
C266   C722    1.390   .     S
C267   C723    1.390   1_554 S
C268   C271    1.429   .     A
C268   C719    1.429   .     S
C269   C270    1.429   .     A
C269   C718    1.429   1_554 S
C270   C272    1.392   .     A
C271   C273    1.392   .     A
C272   H279    1.085   .     S
C272   C716    1.390   1_554 S
C273   H283    1.085   .     S
C273   C717    1.390   .     S
C274   C425    1.328   .     S
C274   H440    1.088   .     S
C276   O297    1.302   .     A
C276   O299    1.295   .     A
Cu277  O300    1.919   .     S
Cu277  N292    2.019   .     S
Cu277  O296    1.951   .     S
Cu277  O293    1.955   .     S
Cu277  Cu278   2.687   .     S
Cu277  O297    1.940   .     S
Cu278  O295    1.951   .     S
Cu278  N291    2.019   .     S
Cu278  O298    1.940   .     S
Cu278  O294    1.955   .     S
Cu278  O299    1.919   .     S
H280   C425    1.088   .     S
H282   N192    1.029   1_655 S
H288   C157    1.084   1_655 S
N291   H181    1.029   1_655 S
N291   N192    1.286   1_655 S
Br301  C320    1.931   .     S
Br302  C321    1.931   .     S
C303   O345    1.285   .     A
C303   O343    1.291   .     A
C303   C324    1.427   .     S
C304   C306    1.470   .     S
C304   O348    1.302   .     A
C304   O350    1.295   .     A
C305   C309    1.400   .     A
C305   C311    1.401   .     A
C305   C326    1.470   .     S
C306   C310    1.400   .     A
C306   C312    1.401   .     A
C307   C316    1.406   .     A
C307   C309    1.395   .     A
C307   H438    1.084   1_455 S
C308   C310    1.395   .     A
C308   C317    1.406   .     A
C308   H389    1.084   .     S
C309   H337    1.083   .     S
C310   H336    1.083   .     S
C311   C313    1.400   .     A
C311   H335    1.077   .     S
C312   C315    1.400   .     A
C312   H334    1.077   .     S
C313   C318    1.425   .     A
C313   C316    1.414   .     A
C314   O346    1.285   .     A
C314   C325    1.427   .     S
C314   O344    1.291   .     A
C315   C319    1.425   .     A
C315   C317    1.414   .     A
C316   C772    1.390   .     S
C317   C773    1.390   1_554 S
C318   C321    1.429   .     A
C318   C769    1.429   .     S
C319   C320    1.429   .     A
C319   C768    1.429   1_554 S
C320   C322    1.392   .     A
C321   C323    1.392   .     A
C322   H329    1.085   .     S
C322   C766    1.390   1_554 S
C323   H333    1.085   .     S
C323   C767    1.390   .     S
C324   C25     1.328   1_565 S
C324   H40     1.088   1_565 S
C326   O347    1.302   .     A
C326   O349    1.295   .     A
Cu327  O350    1.919   .     S
Cu327  N342    2.019   .     S
Cu327  O346    1.951   .     S
Cu327  O343    1.955   .     S
Cu327  Cu328   2.687   .     S
Cu327  O347    1.940   .     S
Cu328  O345    1.951   .     S
Cu328  N341    2.019   .     S
Cu328  O348    1.940   .     S
Cu328  O344    1.955   .     S
Cu328  O349    1.919   .     S
H330   C25     1.088   1_565 S
H331   N441    1.029   1_455 S
H332   N392    1.029   .     S
H338   C357    1.084   .     S
H339   C408    1.084   1_455 S
N341   H381    1.029   .     S
N341   N392    1.286   .     S
N342   H432    1.029   1_455 S
N342   N441    1.286   1_455 S
Br351  C370    1.931   .     S
Br352  C371    1.931   .     S
C353   O395    1.285   .     A
C353   O393    1.291   .     A
C353   C374    1.427   .     S
C354   C356    1.470   .     S
C354   O398    1.302   .     A
C354   O400    1.295   .     A
C355   C359    1.400   .     A
C355   C361    1.401   .     A
C355   C376    1.470   .     S
C356   C360    1.400   .     A
C356   C362    1.401   .     A
C357   C366    1.406   .     A
C357   C359    1.395   .     A
C358   C360    1.395   .     A
C358   C367    1.406   .     A
C358   H439    1.084   .     S
C359   H387    1.083   .     S
C360   H386    1.083   .     S
C361   C363    1.400   .     A
C361   H385    1.077   .     S
C362   C365    1.400   .     A
C362   H384    1.077   .     S
C363   C368    1.425   .     A
C363   C366    1.414   .     A
C364   O396    1.285   .     A
C364   C375    1.427   .     S
C364   O394    1.291   .     A
C365   C369    1.425   .     A
C365   C367    1.414   .     A
C366   C822    1.390   .     S
C367   C823    1.390   1_554 S
C368   C371    1.429   .     A
C368   C819    1.429   .     S
C369   C370    1.429   .     A
C369   C818    1.429   1_554 S
C370   C372    1.392   .     A
C371   C373    1.392   .     A
C372   H379    1.085   .     S
C372   C816    1.390   1_554 S
C373   H383    1.085   .     S
C373   C817    1.390   .     S
C374   C75     1.328   1_565 S
C374   H90     1.088   1_565 S
C376   O397    1.302   .     A
C376   O399    1.295   .     A
Cu377  O400    1.919   .     S
Cu377  N392    2.019   .     S
Cu377  O396    1.951   .     S
Cu377  O393    1.955   .     S
Cu377  Cu378   2.687   .     S
Cu377  O397    1.940   .     S
Cu378  O395    1.951   .     S
Cu378  N391    2.019   .     S
Cu378  O398    1.940   .     S
Cu378  O394    1.955   .     S
Cu378  O399    1.919   .     S
H380   C75     1.088   1_565 S
H382   N442    1.029   .     S
H388   C407    1.084   .     S
N391   H431    1.029   .     S
N391   N442    1.286   .     S
Br401  C420    1.931   .     S
Br402  C421    1.931   .     S
C403   O445    1.285   .     A
C403   O443    1.291   .     A
C403   C424    1.427   .     S
C404   C406    1.470   .     S
C404   O448    1.302   .     A
C404   O450    1.295   .     A
C405   C409    1.400   .     A
C405   C411    1.401   .     A
C405   C426    1.470   .     S
C406   C410    1.400   .     A
C406   C412    1.401   .     A
C407   C416    1.406   .     A
C407   C409    1.395   .     A
C408   C410    1.395   .     A
C408   C417    1.406   .     A
C408   H339    1.084   1_655 S
C409   H437    1.083   .     S
C410   H436    1.083   .     S
C411   C413    1.400   .     A
C411   H435    1.077   .     S
C412   C415    1.400   .     A
C412   H434    1.077   .     S
C413   C418    1.425   .     A
C413   C416    1.414   .     A
C414   O446    1.285   .     A
C414   C425    1.427   .     S
C414   O444    1.291   .     A
C415   C419    1.425   .     A
C415   C417    1.414   .     A
C416   C872    1.390   .     S
C417   C873    1.390   1_554 S
C418   C421    1.429   .     A
C418   C869    1.429   .     S
C419   C420    1.429   .     A
C419   C868    1.429   1_554 S
C420   C422    1.392   .     A
C421   C423    1.392   .     A
C422   H429    1.085   .     S
C422   C866    1.390   1_554 S
C423   H433    1.085   .     S
C423   C867    1.390   .     S
C424   C125    1.328   1_565 S
C424   H140    1.088   1_565 S
C426   O447    1.302   .     A
C426   O449    1.295   .     A
Cu427  O450    1.919   .     S
Cu427  N442    2.019   .     S
Cu427  O446    1.951   .     S
Cu427  O443    1.955   .     S
Cu427  Cu428   2.687   .     S
Cu427  O447    1.940   .     S
Cu428  O445    1.951   .     S
Cu428  N441    2.019   .     S
Cu428  O448    1.940   .     S
Cu428  O444    1.955   .     S
Cu428  O449    1.919   .     S
H430   C125    1.088   1_565 S
H432   N342    1.029   1_655 S
H438   C307    1.084   1_655 S
N441   H331    1.029   1_655 S
N441   N342    1.286   1_655 S
Br451  C470    1.931   .     S
Br452  C471    1.931   .     S
C453   O495    1.285   .     A
C453   O493    1.291   .     A
C453   C474    1.427   .     S
C454   C456    1.470   .     S
C454   O498    1.302   .     A
C454   O500    1.295   .     A
C455   C459    1.400   .     A
C455   C461    1.401   .     A
C455   C476    1.470   .     S
C456   C460    1.400   .     A
C456   C462    1.401   .     A
C457   C466    1.406   .     A
C457   C459    1.395   .     A
C457   H588    1.084   1_455 S
C458   C460    1.395   .     A
C458   C467    1.406   .     A
C458   H539    1.084   .     S
C459   H487    1.083   .     S
C460   H486    1.083   .     S
C461   C463    1.400   .     A
C461   H485    1.077   .     S
C462   C465    1.400   .     A
C462   H484    1.077   .     S
C463   C468    1.425   .     A
C463   C466    1.414   .     A
C464   O496    1.285   .     A
C464   C475    1.427   .     S
C464   O494    1.291   .     A
C465   C469    1.425   .     A
C465   C467    1.414   .     A
C466   C22     1.390   1_556 S
C468   C471    1.429   .     A
C468   C19     1.429   1_556 S
C469   C470    1.429   .     A
C470   C472    1.392   .     A
C471   C473    1.392   .     A
C472   H479    1.085   .     S
C473   H483    1.085   .     S
C473   C17     1.390   1_556 S
C474   C625    1.328   .     S
C474   H640    1.088   .     S
C475   C774    1.328   1_545 S
C475   H780    1.088   1_545 S
C476   O497    1.302   .     A
C476   O499    1.295   .     A
Cu477  O500    1.919   .     S
Cu477  N492    2.019   .     S
Cu477  O496    1.951   .     S
Cu477  O493    1.955   .     S
Cu477  Cu478   2.687   .     S
Cu477  O497    1.940   .     S
Cu478  O495    1.951   .     S
Cu478  N491    2.019   .     S
Cu478  O498    1.940   .     S
Cu478  O494    1.955   .     S
Cu478  O499    1.919   .     S
H480   C625    1.088   .     S
H481   N591    1.029   1_455 S
H482   N542    1.029   .     S
H488   C507    1.084   .     S
H489   C558    1.084   1_455 S
H490   C774    1.088   1_545 S
N491   H531    1.029   .     S
N491   N542    1.286   .     S
N492   H582    1.029   1_455 S
N492   N591    1.286   1_455 S
Br501  C520    1.931   .     S
Br502  C521    1.931   .     S
C503   O545    1.285   .     A
C503   O543    1.291   .     A
C503   C524    1.427   .     S
C504   C506    1.470   .     S
C504   O548    1.302   .     A
C504   O550    1.295   .     A
C505   C509    1.400   .     A
C505   C511    1.401   .     A
C505   C526    1.470   .     S
C506   C510    1.400   .     A
C506   C512    1.401   .     A
C507   C516    1.406   .     A
C507   C509    1.395   .     A
C508   C510    1.395   .     A
C508   C517    1.406   .     A
C508   H589    1.084   .     S
C509   H537    1.083   .     S
C510   H536    1.083   .     S
C511   C513    1.400   .     A
C511   H535    1.077   .     S
C512   C515    1.400   .     A
C512   H534    1.077   .     S
C513   C518    1.425   .     A
C513   C516    1.414   .     A
C514   O546    1.285   .     A
C514   C525    1.427   .     S
C514   O544    1.291   .     A
C515   C519    1.425   .     A
C515   C517    1.414   .     A
C516   C72     1.390   1_556 S
C518   C521    1.429   .     A
C518   C69     1.429   1_556 S
C519   C520    1.429   .     A
C520   C522    1.392   .     A
C521   C523    1.392   .     A
C522   H529    1.085   .     S
C523   H533    1.085   .     S
C523   C67     1.390   1_556 S
C524   C675    1.328   .     S
C524   H690    1.088   .     S
C525   C824    1.328   1_545 S
C525   H830    1.088   1_545 S
C526   O547    1.302   .     A
C526   O549    1.295   .     A
Cu527  O550    1.919   .     S
Cu527  N542    2.019   .     S
Cu527  O546    1.951   .     S
Cu527  O543    1.955   .     S
Cu527  Cu528   2.687   .     S
Cu527  O547    1.940   .     S
Cu528  O545    1.951   .     S
Cu528  N541    2.019   .     S
Cu528  O548    1.940   .     S
Cu528  O544    1.955   .     S
Cu528  O549    1.919   .     S
H530   C675    1.088   .     S
H532   N592    1.029   .     S
H538   C557    1.084   .     S
H540   C824    1.088   1_545 S
N541   H581    1.029   .     S
N541   N592    1.286   .     S
Br551  C570    1.931   .     S
Br552  C571    1.931   .     S
C553   O595    1.285   .     A
C553   O593    1.291   .     A
C553   C574    1.427   .     S
C554   C556    1.470   .     S
C554   O598    1.302   .     A
C554   O600    1.295   .     A
C555   C559    1.400   .     A
C555   C561    1.401   .     A
C555   C576    1.470   .     S
C556   C560    1.400   .     A
C556   C562    1.401   .     A
C557   C566    1.406   .     A
C557   C559    1.395   .     A
C558   C560    1.395   .     A
C558   C567    1.406   .     A
C558   H489    1.084   1_655 S
C559   H587    1.083   .     S
C560   H586    1.083   .     S
C561   C563    1.400   .     A
C561   H585    1.077   .     S
C562   C565    1.400   .     A
C562   H584    1.077   .     S
C563   C568    1.425   .     A
C563   C566    1.414   .     A
C564   O596    1.285   .     A
C564   C575    1.427   .     S
C564   O594    1.291   .     A
C565   C569    1.425   .     A
C565   C567    1.414   .     A
C566   C122    1.390   1_556 S
C568   C571    1.429   .     A
C568   C119    1.429   1_556 S
C569   C570    1.429   .     A
C570   C572    1.392   .     A
C571   C573    1.392   .     A
C572   H579    1.085   .     S
C573   H583    1.085   .     S
C573   C117    1.390   1_556 S
C574   C725    1.328   .     S
C574   H740    1.088   .     S
C575   C874    1.328   1_545 S
C575   H880    1.088   1_545 S
C576   O597    1.302   .     A
C576   O599    1.295   .     A
Cu577  O600    1.919   .     S
Cu577  N592    2.019   .     S
Cu577  O596    1.951   .     S
Cu577  O593    1.955   .     S
Cu577  Cu578   2.687   .     S
Cu577  O597    1.940   .     S
Cu578  O595    1.951   .     S
Cu578  N591    2.019   .     S
Cu578  O598    1.940   .     S
Cu578  O594    1.955   .     S
Cu578  O599    1.919   .     S
H580   C725    1.088   .     S
H582   N492    1.029   1_655 S
H588   C457    1.084   1_655 S
H590   C874    1.088   1_545 S
N591   H481    1.029   1_655 S
N591   N492    1.286   1_655 S
Br601  C620    1.931   .     S
Br602  C621    1.931   .     S
C603   O645    1.285   .     A
C603   O643    1.291   .     A
C603   C624    1.427   .     S
C604   C606    1.470   .     S
C604   O648    1.302   .     A
C604   O650    1.295   .     A
C605   C609    1.400   .     A
C605   C611    1.401   .     A
C605   C626    1.470   .     S
C606   C610    1.400   .     A
C606   C612    1.401   .     A
C607   C616    1.406   .     A
C607   C609    1.395   .     A
C607   H738    1.084   1_455 S
C608   C610    1.395   .     A
C608   C617    1.406   .     A
C608   H689    1.084   .     S
C609   H637    1.083   .     S
C610   H636    1.083   .     S
C611   C613    1.400   .     A
C611   H635    1.077   .     S
C612   C615    1.400   .     A
C612   H634    1.077   .     S
C613   C618    1.425   .     A
C613   C616    1.414   .     A
C614   O646    1.285   .     A
C614   C625    1.427   .     S
C614   O644    1.291   .     A
C615   C619    1.425   .     A
C615   C617    1.414   .     A
C616   C172    1.390   1_556 S
C618   C621    1.429   .     A
C618   C169    1.429   1_556 S
C619   C620    1.429   .     A
C620   C622    1.392   .     A
C621   C623    1.392   .     A
C622   H629    1.085   .     S
C623   H633    1.085   .     S
C623   C167    1.390   1_556 S
C624   C775    1.328   .     S
C624   H790    1.088   .     S
C626   O647    1.302   .     A
C626   O649    1.295   .     A
Cu627  O650    1.919   .     S
Cu627  N642    2.019   .     S
Cu627  O646    1.951   .     S
Cu627  O643    1.955   .     S
Cu627  Cu628   2.687   .     S
Cu627  O647    1.940   .     S
Cu628  O645    1.951   .     S
Cu628  N641    2.019   .     S
Cu628  O648    1.940   .     S
Cu628  O644    1.955   .     S
Cu628  O649    1.919   .     S
H630   C775    1.088   .     S
H631   N741    1.029   1_455 S
H632   N692    1.029   .     S
H638   C657    1.084   .     S
H639   C708    1.084   1_455 S
N641   H681    1.029   .     S
N641   N692    1.286   .     S
N642   H732    1.029   1_455 S
N642   N741    1.286   1_455 S
Br651  C670    1.931   .     S
Br652  C671    1.931   .     S
C653   O695    1.285   .     A
C653   O693    1.291   .     A
C653   C674    1.427   .     S
C654   C656    1.470   .     S
C654   O698    1.302   .     A
C654   O700    1.295   .     A
C655   C659    1.400   .     A
C655   C661    1.401   .     A
C655   C676    1.470   .     S
C656   C660    1.400   .     A
C656   C662    1.401   .     A
C657   C666    1.406   .     A
C657   C659    1.395   .     A
C658   C660    1.395   .     A
C658   C667    1.406   .     A
C658   H739    1.084   .     S
C659   H687    1.083   .     S
C660   H686    1.083   .     S
C661   C663    1.400   .     A
C661   H685    1.077   .     S
C662   C665    1.400   .     A
C662   H684    1.077   .     S
C663   C668    1.425   .     A
C663   C666    1.414   .     A
C664   O696    1.285   .     A
C664   C675    1.427   .     S
C664   O694    1.291   .     A
C665   C669    1.425   .     A
C665   C667    1.414   .     A
C666   C222    1.390   1_556 S
C668   C671    1.429   .     A
C668   C219    1.429   1_556 S
C669   C670    1.429   .     A
C670   C672    1.392   .     A
C671   C673    1.392   .     A
C672   H679    1.085   .     S
C673   H683    1.085   .     S
C673   C217    1.390   1_556 S
C674   C825    1.328   .     S
C674   H840    1.088   .     S
C676   O697    1.302   .     A
C676   O699    1.295   .     A
Cu677  O700    1.919   .     S
Cu677  N692    2.019   .     S
Cu677  O696    1.951   .     S
Cu677  O693    1.955   .     S
Cu677  Cu678   2.687   .     S
Cu677  O697    1.940   .     S
Cu678  O695    1.951   .     S
Cu678  N691    2.019   .     S
Cu678  O698    1.940   .     S
Cu678  O694    1.955   .     S
Cu678  O699    1.919   .     S
H680   C825    1.088   .     S
H682   N742    1.029   .     S
H688   C707    1.084   .     S
N691   H731    1.029   .     S
N691   N742    1.286   .     S
Br701  C720    1.931   .     S
Br702  C721    1.931   .     S
C703   O745    1.285   .     A
C703   O743    1.291   .     A
C703   C724    1.427   .     S
C704   C706    1.470   .     S
C704   O748    1.302   .     A
C704   O750    1.295   .     A
C705   C709    1.400   .     A
C705   C711    1.401   .     A
C705   C726    1.470   .     S
C706   C710    1.400   .     A
C706   C712    1.401   .     A
C707   C716    1.406   .     A
C707   C709    1.395   .     A
C708   C710    1.395   .     A
C708   C717    1.406   .     A
C708   H639    1.084   1_655 S
C709   H737    1.083   .     S
C710   H736    1.083   .     S
C711   C713    1.400   .     A
C711   H735    1.077   .     S
C712   C715    1.400   .     A
C712   H734    1.077   .     S
C713   C718    1.425   .     A
C713   C716    1.414   .     A
C714   O746    1.285   .     A
C714   C725    1.427   .     S
C714   O744    1.291   .     A
C715   C719    1.425   .     A
C715   C717    1.414   .     A
C716   C272    1.390   1_556 S
C718   C721    1.429   .     A
C718   C269    1.429   1_556 S
C719   C720    1.429   .     A
C720   C722    1.392   .     A
C721   C723    1.392   .     A
C722   H729    1.085   .     S
C723   H733    1.085   .     S
C723   C267    1.390   1_556 S
C724   C875    1.328   .     S
C724   H890    1.088   .     S
C726   O747    1.302   .     A
C726   O749    1.295   .     A
Cu727  O750    1.919   .     S
Cu727  N742    2.019   .     S
Cu727  O746    1.951   .     S
Cu727  O743    1.955   .     S
Cu727  Cu728   2.687   .     S
Cu727  O747    1.940   .     S
Cu728  O745    1.951   .     S
Cu728  N741    2.019   .     S
Cu728  O748    1.940   .     S
Cu728  O744    1.955   .     S
Cu728  O749    1.919   .     S
H730   C875    1.088   .     S
H732   N642    1.029   1_655 S
H738   C607    1.084   1_655 S
N741   H631    1.029   1_655 S
N741   N642    1.286   1_655 S
Br751  C770    1.931   .     S
Br752  C771    1.931   .     S
C753   O795    1.285   .     A
C753   O793    1.291   .     A
C753   C774    1.427   .     S
C754   C756    1.470   .     S
C754   O798    1.302   .     A
C754   O800    1.295   .     A
C755   C759    1.400   .     A
C755   C761    1.401   .     A
C755   C776    1.470   .     S
C756   C760    1.400   .     A
C756   C762    1.401   .     A
C757   C766    1.406   .     A
C757   C759    1.395   .     A
C757   H888    1.084   1_455 S
C758   C760    1.395   .     A
C758   C767    1.406   .     A
C758   H839    1.084   .     S
C759   H787    1.083   .     S
C760   H786    1.083   .     S
C761   C763    1.400   .     A
C761   H785    1.077   .     S
C762   C765    1.400   .     A
C762   H784    1.077   .     S
C763   C768    1.425   .     A
C763   C766    1.414   .     A
C764   O796    1.285   .     A
C764   C775    1.427   .     S
C764   O794    1.291   .     A
C765   C769    1.425   .     A
C765   C767    1.414   .     A
C766   C322    1.390   1_556 S
C768   C771    1.429   .     A
C768   C319    1.429   1_556 S
C769   C770    1.429   .     A
C770   C772    1.392   .     A
C771   C773    1.392   .     A
C772   H779    1.085   .     S
C773   H783    1.085   .     S
C773   C317    1.390   1_556 S
C774   C475    1.328   1_565 S
C774   H490    1.088   1_565 S
C776   O797    1.302   .     A
C776   O799    1.295   .     A
Cu777  O800    1.919   .     S
Cu777  N792    2.019   .     S
Cu777  O796    1.951   .     S
Cu777  O793    1.955   .     S
Cu777  Cu778   2.687   .     S
Cu777  O797    1.940   .     S
Cu778  O795    1.951   .     S
Cu778  N791    2.019   .     S
Cu778  O798    1.940   .     S
Cu778  O794    1.955   .     S
Cu778  O799    1.919   .     S
H780   C475    1.088   1_565 S
H781   N891    1.029   1_455 S
H782   N842    1.029   .     S
H788   C807    1.084   .     S
H789   C858    1.084   1_455 S
N791   H831    1.029   .     S
N791   N842    1.286   .     S
N792   H882    1.029   1_455 S
N792   N891    1.286   1_455 S
Br801  C820    1.931   .     S
Br802  C821    1.931   .     S
C803   O845    1.285   .     A
C803   O843    1.291   .     A
C803   C824    1.427   .     S
C804   C806    1.470   .     S
C804   O848    1.302   .     A
C804   O850    1.295   .     A
C805   C809    1.400   .     A
C805   C811    1.401   .     A
C805   C826    1.470   .     S
C806   C810    1.400   .     A
C806   C812    1.401   .     A
C807   C816    1.406   .     A
C807   C809    1.395   .     A
C808   C810    1.395   .     A
C808   C817    1.406   .     A
C808   H889    1.084   .     S
C809   H837    1.083   .     S
C810   H836    1.083   .     S
C811   C813    1.400   .     A
C811   H835    1.077   .     S
C812   C815    1.400   .     A
C812   H834    1.077   .     S
C813   C818    1.425   .     A
C813   C816    1.414   .     A
C814   O846    1.285   .     A
C814   C825    1.427   .     S
C814   O844    1.291   .     A
C815   C819    1.425   .     A
C815   C817    1.414   .     A
C816   C372    1.390   1_556 S
C818   C821    1.429   .     A
C818   C369    1.429   1_556 S
C819   C820    1.429   .     A
C820   C822    1.392   .     A
C821   C823    1.392   .     A
C822   H829    1.085   .     S
C823   H833    1.085   .     S
C823   C367    1.390   1_556 S
C824   C525    1.328   1_565 S
C824   H540    1.088   1_565 S
C826   O847    1.302   .     A
C826   O849    1.295   .     A
Cu827  O850    1.919   .     S
Cu827  N842    2.019   .     S
Cu827  O846    1.951   .     S
Cu827  O843    1.955   .     S
Cu827  Cu828   2.687   .     S
Cu827  O847    1.940   .     S
Cu828  O845    1.951   .     S
Cu828  N841    2.019   .     S
Cu828  O848    1.940   .     S
Cu828  O844    1.955   .     S
Cu828  O849    1.919   .     S
H830   C525    1.088   1_565 S
H832   N892    1.029   .     S
H838   C857    1.084   .     S
N841   H881    1.029   .     S
N841   N892    1.286   .     S
Br851  C870    1.931   .     S
Br852  C871    1.931   .     S
C853   O895    1.285   .     A
C853   O893    1.291   .     A
C853   C874    1.427   .     S
C854   C856    1.470   .     S
C854   O898    1.302   .     A
C854   O900    1.295   .     A
C855   C859    1.400   .     A
C855   C861    1.401   .     A
C855   C876    1.470   .     S
C856   C860    1.400   .     A
C856   C862    1.401   .     A
C857   C866    1.406   .     A
C857   C859    1.395   .     A
C858   C860    1.395   .     A
C858   C867    1.406   .     A
C858   H789    1.084   1_655 S
C859   H887    1.083   .     S
C860   H886    1.083   .     S
C861   C863    1.400   .     A
C861   H885    1.077   .     S
C862   C865    1.400   .     A
C862   H884    1.077   .     S
C863   C868    1.425   .     A
C863   C866    1.414   .     A
C864   O896    1.285   .     A
C864   C875    1.427   .     S
C864   O894    1.291   .     A
C865   C869    1.425   .     A
C865   C867    1.414   .     A
C866   C422    1.390   1_556 S
C868   C871    1.429   .     A
C868   C419    1.429   1_556 S
C869   C870    1.429   .     A
C870   C872    1.392   .     A
C871   C873    1.392   .     A
C872   H879    1.085   .     S
C873   H883    1.085   .     S
C873   C417    1.390   1_556 S
C874   C575    1.328   1_565 S
C874   H590    1.088   1_565 S
C876   O897    1.302   .     A
C876   O899    1.295   .     A
Cu877  O900    1.919   .     S
Cu877  N892    2.019   .     S
Cu877  O896    1.951   .     S
Cu877  O893    1.955   .     S
Cu877  Cu878   2.687   .     S
Cu877  O897    1.940   .     S
Cu878  O895    1.951   .     S
Cu878  N891    2.019   .     S
Cu878  O898    1.940   .     S
Cu878  O894    1.955   .     S
Cu878  O899    1.919   .     S
H880   C575    1.088   1_565 S
H882   N792    1.029   1_655 S
H888   C757    1.084   1_655 S
N891   H781    1.029   1_655 S
N891   N792    1.286   1_655 S
