data_str_m2_o10_o18_pcu_sym.84
_audit_creation_date              2020-01-03
_audit_creation_method            'Materials Studio'
_symmetry_space_group_name_H-M    'P1'
_symmetry_Int_Tables_number       1
_symmetry_cell_setting            triclinic
loop_
_symmetry_equiv_pos_as_xyz
  x,y,z
_cell_length_a                    22.2602
_cell_length_b                    26.1942
_cell_length_c                    31.6551
_cell_angle_alpha                 94.1305
_cell_angle_beta                  75.1287
_cell_angle_gamma                 102.6048
loop_
_atom_site_label
_atom_site_type_symbol
_atom_site_fract_x
_atom_site_fract_y
_atom_site_fract_z
_atom_site_U_iso_or_equiv
_atom_site_adp_type
_atom_site_occupancy
Br1    Br    0.22923   0.01924   0.30250   0.00000  Uiso   1.00
Br2    Br    0.10415   0.31409   0.19747   0.00000  Uiso   1.00
C3     C     0.18083   0.26648   0.25192   0.00000  Uiso   1.00
C4     C     0.20532   0.17072   0.16690   0.00000  Uiso   1.00
C5     C     0.10468   0.15858   0.38082   0.00000  Uiso   1.00
C6     C     0.22866   0.17805   0.11955   0.00000  Uiso   1.00
C7     C     0.02289   0.12658   0.44504   0.00000  Uiso   1.00
C8     C     0.30700   0.21953   0.05727   0.00000  Uiso   1.00
C9     C     0.04139   0.13624   0.40037   0.00000  Uiso   1.00
C10    C     0.28998   0.20584   0.10110   0.00000  Uiso   1.00
C11    C     0.14832   0.17369   0.40664   0.00000  Uiso   1.00
C12    C     0.18561   0.16208   0.09344   0.00000  Uiso   1.00
C13    C     0.13074   0.16523   0.45191   0.00000  Uiso   1.00
C14    C     0.15251   0.06685   0.24807   0.00000  Uiso   1.00
C15    C     0.20061   0.17697   0.04955   0.00000  Uiso   1.00
C16    C     0.06720   0.13989   0.47068   0.00000  Uiso   1.00
C17    C     0.26276   0.20587   0.03158   0.00000  Uiso   1.00
C18    C     0.17488   0.17953   0.47863   0.00000  Uiso   1.00
C19    C     0.15558   0.16477   0.02336   0.00000  Uiso   1.00
C20    C     0.09162   0.13931   0.04057   0.00000  Uiso   1.00
C21    C     0.23732   0.20871   0.46231   0.00000  Uiso   1.00
C22    C     0.04852   0.12743   0.01471   0.00000  Uiso   1.00
C23    C     0.28008   0.22158   0.48836   0.00000  Uiso   1.00
C24    C     0.18376   0.32120   0.25918   0.00000  Uiso   1.00
C25    C     0.14959   0.01214   0.24079   0.00000  Uiso   1.00
C26    C     0.12804   0.16297   0.33314   0.00000  Uiso   1.00
Cu27   Cu    0.10737   0.16108   0.24517   0.00000  Uiso   1.00
Cu28   Cu    0.22596   0.17225   0.25484   0.00000  Uiso   1.00
H29    H     0.33332   0.10816   0.02939   0.00000  Uiso   1.00
H30    H     0.33190   0.12832   0.21579   0.00000  Uiso   1.00
H31    H     0.14017   0.13862   0.10875   0.00000  Uiso   1.00
H32    H     0.19654   0.19020   0.39011   0.00000  Uiso   1.00
H33    H     0.32732   0.24406   0.47443   0.00000  Uiso   1.00
H34    H     0.32388   0.21857   0.12084   0.00000  Uiso   1.00
H35    H     0.00693   0.12441   0.38095   0.00000  Uiso   1.00
H36    H     0.30739   0.10788   0.45947   0.00000  Uiso   1.00
H37    H     0.02117   0.24164   0.04359   0.00000  Uiso   1.00
H38    H     0.07233   0.12873   0.07429   0.00000  Uiso   1.00
H39    H     0.25468   0.22361   0.42965   0.00000  Uiso   1.00
H40    H     0.00143   0.20502   0.28421   0.00000  Uiso   1.00
N41    N     0.31506   0.18068   0.26212   0.00000  Uiso   1.00
N42    N     0.01827   0.15265   0.23788   0.00000  Uiso   1.00
O43    O     0.12815   0.23809   0.24686   0.00000  Uiso   1.00
O44    O     0.20518   0.09524   0.25314   0.00000  Uiso   1.00
O45    O     0.22829   0.24753   0.25503   0.00000  Uiso   1.00
O46    O     0.10504   0.08580   0.24498   0.00000  Uiso   1.00
O47    O     0.08851   0.15930   0.30855   0.00000  Uiso   1.00
O48    O     0.24482   0.17403   0.19146   0.00000  Uiso   1.00
O49    O     0.18866   0.16874   0.31671   0.00000  Uiso   1.00
O50    O     0.14468   0.16460   0.18329   0.00000  Uiso   1.00
Br51   Br    0.56256   0.01924   0.30250   0.00000  Uiso   1.00
Br52   Br    0.43748   0.31409   0.19747   0.00000  Uiso   1.00
C53    C     0.51417   0.26648   0.25192   0.00000  Uiso   1.00
C54    C     0.53866   0.17072   0.16690   0.00000  Uiso   1.00
C55    C     0.43801   0.15858   0.38082   0.00000  Uiso   1.00
C56    C     0.56199   0.17805   0.11955   0.00000  Uiso   1.00
C57    C     0.35622   0.12658   0.44504   0.00000  Uiso   1.00
C58    C     0.64033   0.21953   0.05727   0.00000  Uiso   1.00
C59    C     0.37473   0.13624   0.40037   0.00000  Uiso   1.00
C60    C     0.62332   0.20584   0.10110   0.00000  Uiso   1.00
C61    C     0.48165   0.17369   0.40664   0.00000  Uiso   1.00
C62    C     0.51894   0.16208   0.09344   0.00000  Uiso   1.00
C63    C     0.46407   0.16523   0.45191   0.00000  Uiso   1.00
C64    C     0.48584   0.06685   0.24807   0.00000  Uiso   1.00
C65    C     0.53395   0.17697   0.04955   0.00000  Uiso   1.00
C66    C     0.40054   0.13989   0.47068   0.00000  Uiso   1.00
C67    C     0.59610   0.20587   0.03158   0.00000  Uiso   1.00
C68    C     0.50821   0.17953   0.47863   0.00000  Uiso   1.00
C69    C     0.48892   0.16477   0.02336   0.00000  Uiso   1.00
C70    C     0.42495   0.13931   0.04057   0.00000  Uiso   1.00
C71    C     0.57065   0.20871   0.46231   0.00000  Uiso   1.00
C72    C     0.38186   0.12743   0.01471   0.00000  Uiso   1.00
C73    C     0.61342   0.22158   0.48836   0.00000  Uiso   1.00
C74    C     0.51709   0.32120   0.25918   0.00000  Uiso   1.00
C75    C     0.48292   0.01214   0.24079   0.00000  Uiso   1.00
C76    C     0.46137   0.16297   0.33314   0.00000  Uiso   1.00
Cu77   Cu    0.44071   0.16108   0.24517   0.00000  Uiso   1.00
Cu78   Cu    0.55929   0.17225   0.25484   0.00000  Uiso   1.00
H79    H     0.66665   0.10816   0.02939   0.00000  Uiso   1.00
H80    H     0.66524   0.12832   0.21579   0.00000  Uiso   1.00
H81    H     0.47350   0.13862   0.10875   0.00000  Uiso   1.00
H82    H     0.52987   0.19020   0.39011   0.00000  Uiso   1.00
H83    H     0.66065   0.24406   0.47443   0.00000  Uiso   1.00
H84    H     0.65721   0.21857   0.12084   0.00000  Uiso   1.00
H85    H     0.34027   0.12441   0.38095   0.00000  Uiso   1.00
H86    H     0.64072   0.10788   0.45947   0.00000  Uiso   1.00
H87    H     0.35451   0.24164   0.04359   0.00000  Uiso   1.00
H88    H     0.40566   0.12873   0.07429   0.00000  Uiso   1.00
H89    H     0.58801   0.22361   0.42965   0.00000  Uiso   1.00
H90    H     0.33476   0.20502   0.28421   0.00000  Uiso   1.00
N91    N     0.64839   0.18068   0.26212   0.00000  Uiso   1.00
N92    N     0.35161   0.15265   0.23788   0.00000  Uiso   1.00
O93    O     0.46148   0.23809   0.24686   0.00000  Uiso   1.00
O94    O     0.53852   0.09524   0.25314   0.00000  Uiso   1.00
O95    O     0.56163   0.24753   0.25503   0.00000  Uiso   1.00
O96    O     0.43837   0.08580   0.24498   0.00000  Uiso   1.00
O97    O     0.42185   0.15930   0.30855   0.00000  Uiso   1.00
O98    O     0.57815   0.17403   0.19146   0.00000  Uiso   1.00
O99    O     0.52199   0.16874   0.31671   0.00000  Uiso   1.00
O100   O     0.47801   0.16460   0.18329   0.00000  Uiso   1.00
Br101  Br    0.89590   0.01924   0.30250   0.00000  Uiso   1.00
Br102  Br    0.77081   0.31409   0.19747   0.00000  Uiso   1.00
C103   C     0.84750   0.26648   0.25192   0.00000  Uiso   1.00
C104   C     0.87199   0.17072   0.16690   0.00000  Uiso   1.00
C105   C     0.77134   0.15858   0.38082   0.00000  Uiso   1.00
C106   C     0.89532   0.17805   0.11955   0.00000  Uiso   1.00
C107   C     0.68955   0.12658   0.44504   0.00000  Uiso   1.00
C108   C     0.97366   0.21953   0.05727   0.00000  Uiso   1.00
C109   C     0.70806   0.13624   0.40037   0.00000  Uiso   1.00
C110   C     0.95665   0.20584   0.10110   0.00000  Uiso   1.00
C111   C     0.81498   0.17369   0.40664   0.00000  Uiso   1.00
C112   C     0.85227   0.16208   0.09344   0.00000  Uiso   1.00
C113   C     0.79741   0.16523   0.45191   0.00000  Uiso   1.00
C114   C     0.81917   0.06685   0.24807   0.00000  Uiso   1.00
C115   C     0.86728   0.17697   0.04955   0.00000  Uiso   1.00
C116   C     0.73387   0.13989   0.47068   0.00000  Uiso   1.00
C117   C     0.92943   0.20587   0.03158   0.00000  Uiso   1.00
C118   C     0.84155   0.17953   0.47863   0.00000  Uiso   1.00
C119   C     0.82225   0.16477   0.02336   0.00000  Uiso   1.00
C120   C     0.75828   0.13931   0.04057   0.00000  Uiso   1.00
C121   C     0.90398   0.20871   0.46231   0.00000  Uiso   1.00
C122   C     0.71519   0.12743   0.01471   0.00000  Uiso   1.00
C123   C     0.94675   0.22158   0.48836   0.00000  Uiso   1.00
C124   C     0.85043   0.32120   0.25918   0.00000  Uiso   1.00
C125   C     0.81626   0.01214   0.24079   0.00000  Uiso   1.00
C126   C     0.79470   0.16297   0.33314   0.00000  Uiso   1.00
Cu127  Cu    0.77404   0.16108   0.24517   0.00000  Uiso   1.00
Cu128  Cu    0.89263   0.17225   0.25484   0.00000  Uiso   1.00
H129   H     0.99999   0.10816   0.02939   0.00000  Uiso   1.00
H130   H     0.99857   0.12832   0.21579   0.00000  Uiso   1.00
H131   H     0.80684   0.13862   0.10875   0.00000  Uiso   1.00
H132   H     0.86320   0.19020   0.39011   0.00000  Uiso   1.00
H133   H     0.99399   0.24406   0.47443   0.00000  Uiso   1.00
H134   H     0.99055   0.21857   0.12084   0.00000  Uiso   1.00
H135   H     0.67360   0.12441   0.38095   0.00000  Uiso   1.00
H136   H     0.97405   0.10788   0.45947   0.00000  Uiso   1.00
H137   H     0.68784   0.24164   0.04359   0.00000  Uiso   1.00
H138   H     0.73899   0.12873   0.07429   0.00000  Uiso   1.00
H139   H     0.92135   0.22361   0.42965   0.00000  Uiso   1.00
H140   H     0.66810   0.20502   0.28421   0.00000  Uiso   1.00
N141   N     0.98173   0.18068   0.26212   0.00000  Uiso   1.00
N142   N     0.68494   0.15265   0.23788   0.00000  Uiso   1.00
O143   O     0.79482   0.23809   0.24686   0.00000  Uiso   1.00
O144   O     0.87185   0.09524   0.25314   0.00000  Uiso   1.00
O145   O     0.89496   0.24753   0.25503   0.00000  Uiso   1.00
O146   O     0.77171   0.08580   0.24498   0.00000  Uiso   1.00
O147   O     0.75518   0.15930   0.30855   0.00000  Uiso   1.00
O148   O     0.91149   0.17403   0.19146   0.00000  Uiso   1.00
O149   O     0.85532   0.16874   0.31671   0.00000  Uiso   1.00
O150   O     0.81134   0.16460   0.18329   0.00000  Uiso   1.00
Br151  Br    0.22923   0.35257   0.30250   0.00000  Uiso   1.00
Br152  Br    0.10415   0.64743   0.19747   0.00000  Uiso   1.00
C153   C     0.18083   0.59981   0.25192   0.00000  Uiso   1.00
C154   C     0.20532   0.50405   0.16690   0.00000  Uiso   1.00
C155   C     0.10468   0.49191   0.38082   0.00000  Uiso   1.00
C156   C     0.22866   0.51138   0.11955   0.00000  Uiso   1.00
C157   C     0.02289   0.45991   0.44504   0.00000  Uiso   1.00
C158   C     0.30700   0.55287   0.05727   0.00000  Uiso   1.00
C159   C     0.04139   0.46958   0.40037   0.00000  Uiso   1.00
C160   C     0.28998   0.53918   0.10110   0.00000  Uiso   1.00
C161   C     0.14832   0.50702   0.40664   0.00000  Uiso   1.00
C162   C     0.18561   0.49541   0.09344   0.00000  Uiso   1.00
C163   C     0.13074   0.49856   0.45191   0.00000  Uiso   1.00
C164   C     0.15251   0.40019   0.24807   0.00000  Uiso   1.00
C165   C     0.20061   0.51030   0.04955   0.00000  Uiso   1.00
C166   C     0.06720   0.47322   0.47068   0.00000  Uiso   1.00
C167   C     0.26276   0.53920   0.03158   0.00000  Uiso   1.00
C168   C     0.17488   0.51286   0.47863   0.00000  Uiso   1.00
C169   C     0.15558   0.49810   0.02336   0.00000  Uiso   1.00
C170   C     0.09162   0.47264   0.04057   0.00000  Uiso   1.00
C171   C     0.23732   0.54205   0.46231   0.00000  Uiso   1.00
C172   C     0.04852   0.46077   0.01471   0.00000  Uiso   1.00
C173   C     0.28008   0.55491   0.48836   0.00000  Uiso   1.00
C174   C     0.18376   0.65453   0.25918   0.00000  Uiso   1.00
C175   C     0.14959   0.34547   0.24079   0.00000  Uiso   1.00
C176   C     0.12804   0.49630   0.33314   0.00000  Uiso   1.00
Cu177  Cu    0.10737   0.49441   0.24517   0.00000  Uiso   1.00
Cu178  Cu    0.22596   0.50559   0.25484   0.00000  Uiso   1.00
H179   H     0.33332   0.44150   0.02939   0.00000  Uiso   1.00
H180   H     0.33190   0.46165   0.21579   0.00000  Uiso   1.00
H181   H     0.14017   0.47196   0.10875   0.00000  Uiso   1.00
H182   H     0.19654   0.52354   0.39011   0.00000  Uiso   1.00
H183   H     0.32732   0.57740   0.47443   0.00000  Uiso   1.00
H184   H     0.32388   0.55190   0.12084   0.00000  Uiso   1.00
H185   H     0.00693   0.45775   0.38095   0.00000  Uiso   1.00
H186   H     0.30739   0.44121   0.45947   0.00000  Uiso   1.00
H187   H     0.02117   0.57498   0.04359   0.00000  Uiso   1.00
H188   H     0.07233   0.46207   0.07429   0.00000  Uiso   1.00
H189   H     0.25468   0.55694   0.42965   0.00000  Uiso   1.00
H190   H     0.00143   0.53835   0.28421   0.00000  Uiso   1.00
N191   N     0.31506   0.51401   0.26212   0.00000  Uiso   1.00
N192   N     0.01827   0.48599   0.23788   0.00000  Uiso   1.00
O193   O     0.12815   0.57142   0.24686   0.00000  Uiso   1.00
O194   O     0.20518   0.42858   0.25314   0.00000  Uiso   1.00
O195   O     0.22829   0.58086   0.25503   0.00000  Uiso   1.00
O196   O     0.10504   0.41914   0.24498   0.00000  Uiso   1.00
O197   O     0.08851   0.49263   0.30855   0.00000  Uiso   1.00
O198   O     0.24482   0.50737   0.19146   0.00000  Uiso   1.00
O199   O     0.18866   0.50207   0.31671   0.00000  Uiso   1.00
O200   O     0.14468   0.49793   0.18329   0.00000  Uiso   1.00
Br201  Br    0.56256   0.35257   0.30250   0.00000  Uiso   1.00
Br202  Br    0.43748   0.64743   0.19747   0.00000  Uiso   1.00
C203   C     0.51417   0.59981   0.25192   0.00000  Uiso   1.00
C204   C     0.53866   0.50405   0.16690   0.00000  Uiso   1.00
C205   C     0.43801   0.49191   0.38082   0.00000  Uiso   1.00
C206   C     0.56199   0.51138   0.11955   0.00000  Uiso   1.00
C207   C     0.35622   0.45991   0.44504   0.00000  Uiso   1.00
C208   C     0.64033   0.55287   0.05727   0.00000  Uiso   1.00
C209   C     0.37473   0.46958   0.40037   0.00000  Uiso   1.00
C210   C     0.62332   0.53918   0.10110   0.00000  Uiso   1.00
C211   C     0.48165   0.50702   0.40664   0.00000  Uiso   1.00
C212   C     0.51894   0.49541   0.09344   0.00000  Uiso   1.00
C213   C     0.46407   0.49856   0.45191   0.00000  Uiso   1.00
C214   C     0.48584   0.40019   0.24807   0.00000  Uiso   1.00
C215   C     0.53395   0.51030   0.04955   0.00000  Uiso   1.00
C216   C     0.40054   0.47322   0.47068   0.00000  Uiso   1.00
C217   C     0.59610   0.53920   0.03158   0.00000  Uiso   1.00
C218   C     0.50821   0.51286   0.47863   0.00000  Uiso   1.00
C219   C     0.48892   0.49810   0.02336   0.00000  Uiso   1.00
C220   C     0.42495   0.47264   0.04057   0.00000  Uiso   1.00
C221   C     0.57065   0.54205   0.46231   0.00000  Uiso   1.00
C222   C     0.38186   0.46077   0.01471   0.00000  Uiso   1.00
C223   C     0.61342   0.55491   0.48836   0.00000  Uiso   1.00
C224   C     0.51709   0.65453   0.25918   0.00000  Uiso   1.00
C225   C     0.48292   0.34547   0.24079   0.00000  Uiso   1.00
C226   C     0.46137   0.49630   0.33314   0.00000  Uiso   1.00
Cu227  Cu    0.44071   0.49441   0.24517   0.00000  Uiso   1.00
Cu228  Cu    0.55929   0.50559   0.25484   0.00000  Uiso   1.00
H229   H     0.66665   0.44150   0.02939   0.00000  Uiso   1.00
H230   H     0.66524   0.46165   0.21579   0.00000  Uiso   1.00
H231   H     0.47350   0.47196   0.10875   0.00000  Uiso   1.00
H232   H     0.52987   0.52354   0.39011   0.00000  Uiso   1.00
H233   H     0.66065   0.57740   0.47443   0.00000  Uiso   1.00
H234   H     0.65721   0.55190   0.12084   0.00000  Uiso   1.00
H235   H     0.34027   0.45775   0.38095   0.00000  Uiso   1.00
H236   H     0.64072   0.44121   0.45947   0.00000  Uiso   1.00
H237   H     0.35451   0.57498   0.04359   0.00000  Uiso   1.00
H238   H     0.40566   0.46207   0.07429   0.00000  Uiso   1.00
H239   H     0.58801   0.55694   0.42965   0.00000  Uiso   1.00
H240   H     0.33476   0.53835   0.28421   0.00000  Uiso   1.00
N241   N     0.64839   0.51401   0.26212   0.00000  Uiso   1.00
N242   N     0.35161   0.48599   0.23788   0.00000  Uiso   1.00
O243   O     0.46148   0.57142   0.24686   0.00000  Uiso   1.00
O244   O     0.53852   0.42858   0.25314   0.00000  Uiso   1.00
O245   O     0.56163   0.58086   0.25503   0.00000  Uiso   1.00
O246   O     0.43837   0.41914   0.24498   0.00000  Uiso   1.00
O247   O     0.42185   0.49263   0.30855   0.00000  Uiso   1.00
O248   O     0.57815   0.50737   0.19146   0.00000  Uiso   1.00
O249   O     0.52199   0.50207   0.31671   0.00000  Uiso   1.00
O250   O     0.47801   0.49793   0.18329   0.00000  Uiso   1.00
Br251  Br    0.89590   0.35257   0.30250   0.00000  Uiso   1.00
Br252  Br    0.77081   0.64743   0.19747   0.00000  Uiso   1.00
C253   C     0.84750   0.59981   0.25192   0.00000  Uiso   1.00
C254   C     0.87199   0.50405   0.16690   0.00000  Uiso   1.00
C255   C     0.77134   0.49191   0.38082   0.00000  Uiso   1.00
C256   C     0.89532   0.51138   0.11955   0.00000  Uiso   1.00
C257   C     0.68955   0.45991   0.44504   0.00000  Uiso   1.00
C258   C     0.97366   0.55287   0.05727   0.00000  Uiso   1.00
C259   C     0.70806   0.46958   0.40037   0.00000  Uiso   1.00
C260   C     0.95665   0.53918   0.10110   0.00000  Uiso   1.00
C261   C     0.81498   0.50702   0.40664   0.00000  Uiso   1.00
C262   C     0.85227   0.49541   0.09344   0.00000  Uiso   1.00
C263   C     0.79741   0.49856   0.45191   0.00000  Uiso   1.00
C264   C     0.81917   0.40019   0.24807   0.00000  Uiso   1.00
C265   C     0.86728   0.51030   0.04955   0.00000  Uiso   1.00
C266   C     0.73387   0.47322   0.47068   0.00000  Uiso   1.00
C267   C     0.92943   0.53920   0.03158   0.00000  Uiso   1.00
C268   C     0.84155   0.51286   0.47863   0.00000  Uiso   1.00
C269   C     0.82225   0.49810   0.02336   0.00000  Uiso   1.00
C270   C     0.75828   0.47264   0.04057   0.00000  Uiso   1.00
C271   C     0.90398   0.54205   0.46231   0.00000  Uiso   1.00
C272   C     0.71519   0.46077   0.01471   0.00000  Uiso   1.00
C273   C     0.94675   0.55491   0.48836   0.00000  Uiso   1.00
C274   C     0.85043   0.65453   0.25918   0.00000  Uiso   1.00
C275   C     0.81626   0.34547   0.24079   0.00000  Uiso   1.00
C276   C     0.79470   0.49630   0.33314   0.00000  Uiso   1.00
Cu277  Cu    0.77404   0.49441   0.24517   0.00000  Uiso   1.00
Cu278  Cu    0.89263   0.50559   0.25484   0.00000  Uiso   1.00
H279   H     0.99999   0.44150   0.02939   0.00000  Uiso   1.00
H280   H     0.99857   0.46165   0.21579   0.00000  Uiso   1.00
H281   H     0.80684   0.47196   0.10875   0.00000  Uiso   1.00
H282   H     0.86320   0.52354   0.39011   0.00000  Uiso   1.00
H283   H     0.99399   0.57740   0.47443   0.00000  Uiso   1.00
H284   H     0.99055   0.55190   0.12084   0.00000  Uiso   1.00
H285   H     0.67360   0.45775   0.38095   0.00000  Uiso   1.00
H286   H     0.97405   0.44121   0.45947   0.00000  Uiso   1.00
H287   H     0.68784   0.57498   0.04359   0.00000  Uiso   1.00
H288   H     0.73899   0.46207   0.07429   0.00000  Uiso   1.00
H289   H     0.92135   0.55694   0.42965   0.00000  Uiso   1.00
H290   H     0.66810   0.53835   0.28421   0.00000  Uiso   1.00
N291   N     0.98173   0.51401   0.26212   0.00000  Uiso   1.00
N292   N     0.68494   0.48599   0.23788   0.00000  Uiso   1.00
O293   O     0.79482   0.57142   0.24686   0.00000  Uiso   1.00
O294   O     0.87185   0.42858   0.25314   0.00000  Uiso   1.00
O295   O     0.89496   0.58086   0.25503   0.00000  Uiso   1.00
O296   O     0.77171   0.41914   0.24498   0.00000  Uiso   1.00
O297   O     0.75518   0.49263   0.30855   0.00000  Uiso   1.00
O298   O     0.91149   0.50737   0.19146   0.00000  Uiso   1.00
O299   O     0.85532   0.50207   0.31671   0.00000  Uiso   1.00
O300   O     0.81134   0.49793   0.18329   0.00000  Uiso   1.00
Br301  Br    0.22923   0.68590   0.30250   0.00000  Uiso   1.00
Br302  Br    0.10415   0.98076   0.19747   0.00000  Uiso   1.00
C303   C     0.18083   0.93315   0.25192   0.00000  Uiso   1.00
C304   C     0.20532   0.83739   0.16690   0.00000  Uiso   1.00
C305   C     0.10468   0.82525   0.38082   0.00000  Uiso   1.00
C306   C     0.22866   0.84471   0.11955   0.00000  Uiso   1.00
C307   C     0.02289   0.79324   0.44504   0.00000  Uiso   1.00
C308   C     0.30700   0.88620   0.05727   0.00000  Uiso   1.00
C309   C     0.04139   0.80291   0.40037   0.00000  Uiso   1.00
C310   C     0.28998   0.87251   0.10110   0.00000  Uiso   1.00
C311   C     0.14832   0.84036   0.40664   0.00000  Uiso   1.00
C312   C     0.18561   0.82874   0.09344   0.00000  Uiso   1.00
C313   C     0.13074   0.83190   0.45191   0.00000  Uiso   1.00
C314   C     0.15251   0.73352   0.24807   0.00000  Uiso   1.00
C315   C     0.20061   0.84363   0.04955   0.00000  Uiso   1.00
C316   C     0.06720   0.80655   0.47068   0.00000  Uiso   1.00
C317   C     0.26276   0.87253   0.03158   0.00000  Uiso   1.00
C318   C     0.17488   0.84619   0.47863   0.00000  Uiso   1.00
C319   C     0.15558   0.83143   0.02336   0.00000  Uiso   1.00
C320   C     0.09162   0.80597   0.04057   0.00000  Uiso   1.00
C321   C     0.23732   0.87538   0.46231   0.00000  Uiso   1.00
C322   C     0.04852   0.79410   0.01471   0.00000  Uiso   1.00
C323   C     0.28008   0.88824   0.48836   0.00000  Uiso   1.00
C324   C     0.18376   0.98786   0.25918   0.00000  Uiso   1.00
C325   C     0.14959   0.67880   0.24079   0.00000  Uiso   1.00
C326   C     0.12804   0.82964   0.33314   0.00000  Uiso   1.00
Cu327  Cu    0.10737   0.82775   0.24517   0.00000  Uiso   1.00
Cu328  Cu    0.22596   0.83892   0.25484   0.00000  Uiso   1.00
H329   H     0.33332   0.77483   0.02939   0.00000  Uiso   1.00
H330   H     0.33190   0.79498   0.21579   0.00000  Uiso   1.00
H331   H     0.14017   0.80529   0.10875   0.00000  Uiso   1.00
H332   H     0.19654   0.85687   0.39011   0.00000  Uiso   1.00
H333   H     0.32732   0.91073   0.47443   0.00000  Uiso   1.00
H334   H     0.32388   0.88524   0.12084   0.00000  Uiso   1.00
H335   H     0.00693   0.79108   0.38095   0.00000  Uiso   1.00
H336   H     0.30739   0.77454   0.45947   0.00000  Uiso   1.00
H337   H     0.02117   0.90831   0.04359   0.00000  Uiso   1.00
H338   H     0.07233   0.79540   0.07429   0.00000  Uiso   1.00
H339   H     0.25468   0.89027   0.42965   0.00000  Uiso   1.00
H340   H     0.00143   0.87168   0.28421   0.00000  Uiso   1.00
N341   N     0.31506   0.84735   0.26212   0.00000  Uiso   1.00
N342   N     0.01827   0.81932   0.23788   0.00000  Uiso   1.00
O343   O     0.12815   0.90476   0.24686   0.00000  Uiso   1.00
O344   O     0.20518   0.76191   0.25314   0.00000  Uiso   1.00
O345   O     0.22829   0.91420   0.25503   0.00000  Uiso   1.00
O346   O     0.10504   0.75247   0.24498   0.00000  Uiso   1.00
O347   O     0.08851   0.82597   0.30855   0.00000  Uiso   1.00
O348   O     0.24482   0.84070   0.19146   0.00000  Uiso   1.00
O349   O     0.18866   0.83540   0.31671   0.00000  Uiso   1.00
O350   O     0.14468   0.83126   0.18329   0.00000  Uiso   1.00
Br351  Br    0.56256   0.68590   0.30250   0.00000  Uiso   1.00
Br352  Br    0.43748   0.98076   0.19747   0.00000  Uiso   1.00
C353   C     0.51417   0.93315   0.25192   0.00000  Uiso   1.00
C354   C     0.53866   0.83739   0.16690   0.00000  Uiso   1.00
C355   C     0.43801   0.82525   0.38082   0.00000  Uiso   1.00
C356   C     0.56199   0.84471   0.11955   0.00000  Uiso   1.00
C357   C     0.35622   0.79324   0.44504   0.00000  Uiso   1.00
C358   C     0.64033   0.88620   0.05727   0.00000  Uiso   1.00
C359   C     0.37473   0.80291   0.40037   0.00000  Uiso   1.00
C360   C     0.62332   0.87251   0.10110   0.00000  Uiso   1.00
C361   C     0.48165   0.84036   0.40664   0.00000  Uiso   1.00
C362   C     0.51894   0.82874   0.09344   0.00000  Uiso   1.00
C363   C     0.46407   0.83190   0.45191   0.00000  Uiso   1.00
C364   C     0.48584   0.73352   0.24807   0.00000  Uiso   1.00
C365   C     0.53395   0.84363   0.04955   0.00000  Uiso   1.00
C366   C     0.40054   0.80655   0.47068   0.00000  Uiso   1.00
C367   C     0.59610   0.87253   0.03158   0.00000  Uiso   1.00
C368   C     0.50821   0.84619   0.47863   0.00000  Uiso   1.00
C369   C     0.48892   0.83143   0.02336   0.00000  Uiso   1.00
C370   C     0.42495   0.80597   0.04057   0.00000  Uiso   1.00
C371   C     0.57065   0.87538   0.46231   0.00000  Uiso   1.00
C372   C     0.38186   0.79410   0.01471   0.00000  Uiso   1.00
C373   C     0.61342   0.88824   0.48836   0.00000  Uiso   1.00
C374   C     0.51709   0.98786   0.25918   0.00000  Uiso   1.00
C375   C     0.48292   0.67880   0.24079   0.00000  Uiso   1.00
C376   C     0.46137   0.82964   0.33314   0.00000  Uiso   1.00
Cu377  Cu    0.44071   0.82775   0.24517   0.00000  Uiso   1.00
Cu378  Cu    0.55929   0.83892   0.25484   0.00000  Uiso   1.00
H379   H     0.66665   0.77483   0.02939   0.00000  Uiso   1.00
H380   H     0.66524   0.79498   0.21579   0.00000  Uiso   1.00
H381   H     0.47350   0.80529   0.10875   0.00000  Uiso   1.00
H382   H     0.52987   0.85687   0.39011   0.00000  Uiso   1.00
H383   H     0.66065   0.91073   0.47443   0.00000  Uiso   1.00
H384   H     0.65721   0.88524   0.12084   0.00000  Uiso   1.00
H385   H     0.34027   0.79108   0.38095   0.00000  Uiso   1.00
H386   H     0.64072   0.77454   0.45947   0.00000  Uiso   1.00
H387   H     0.35451   0.90831   0.04359   0.00000  Uiso   1.00
H388   H     0.40566   0.79540   0.07429   0.00000  Uiso   1.00
H389   H     0.58801   0.89027   0.42965   0.00000  Uiso   1.00
H390   H     0.33476   0.87168   0.28421   0.00000  Uiso   1.00
N391   N     0.64839   0.84735   0.26212   0.00000  Uiso   1.00
N392   N     0.35161   0.81932   0.23788   0.00000  Uiso   1.00
O393   O     0.46148   0.90476   0.24686   0.00000  Uiso   1.00
O394   O     0.53852   0.76191   0.25314   0.00000  Uiso   1.00
O395   O     0.56163   0.91420   0.25503   0.00000  Uiso   1.00
O396   O     0.43837   0.75247   0.24498   0.00000  Uiso   1.00
O397   O     0.42185   0.82597   0.30855   0.00000  Uiso   1.00
O398   O     0.57815   0.84070   0.19146   0.00000  Uiso   1.00
O399   O     0.52199   0.83540   0.31671   0.00000  Uiso   1.00
O400   O     0.47801   0.83126   0.18329   0.00000  Uiso   1.00
Br401  Br    0.89590   0.68590   0.30250   0.00000  Uiso   1.00
Br402  Br    0.77081   0.98076   0.19747   0.00000  Uiso   1.00
C403   C     0.84750   0.93315   0.25192   0.00000  Uiso   1.00
C404   C     0.87199   0.83739   0.16690   0.00000  Uiso   1.00
C405   C     0.77134   0.82525   0.38082   0.00000  Uiso   1.00
C406   C     0.89532   0.84471   0.11955   0.00000  Uiso   1.00
C407   C     0.68955   0.79324   0.44504   0.00000  Uiso   1.00
C408   C     0.97366   0.88620   0.05727   0.00000  Uiso   1.00
C409   C     0.70806   0.80291   0.40037   0.00000  Uiso   1.00
C410   C     0.95665   0.87251   0.10110   0.00000  Uiso   1.00
C411   C     0.81498   0.84036   0.40664   0.00000  Uiso   1.00
C412   C     0.85227   0.82874   0.09344   0.00000  Uiso   1.00
C413   C     0.79741   0.83190   0.45191   0.00000  Uiso   1.00
C414   C     0.81917   0.73352   0.24807   0.00000  Uiso   1.00
C415   C     0.86728   0.84363   0.04955   0.00000  Uiso   1.00
C416   C     0.73387   0.80655   0.47068   0.00000  Uiso   1.00
C417   C     0.92943   0.87253   0.03158   0.00000  Uiso   1.00
C418   C     0.84155   0.84619   0.47863   0.00000  Uiso   1.00
C419   C     0.82225   0.83143   0.02336   0.00000  Uiso   1.00
C420   C     0.75828   0.80597   0.04057   0.00000  Uiso   1.00
C421   C     0.90398   0.87538   0.46231   0.00000  Uiso   1.00
C422   C     0.71519   0.79410   0.01471   0.00000  Uiso   1.00
C423   C     0.94675   0.88824   0.48836   0.00000  Uiso   1.00
C424   C     0.85043   0.98786   0.25918   0.00000  Uiso   1.00
C425   C     0.81626   0.67880   0.24079   0.00000  Uiso   1.00
C426   C     0.79470   0.82964   0.33314   0.00000  Uiso   1.00
Cu427  Cu    0.77404   0.82775   0.24517   0.00000  Uiso   1.00
Cu428  Cu    0.89263   0.83892   0.25484   0.00000  Uiso   1.00
H429   H     0.99999   0.77483   0.02939   0.00000  Uiso   1.00
H430   H     0.99857   0.79498   0.21579   0.00000  Uiso   1.00
H431   H     0.80684   0.80529   0.10875   0.00000  Uiso   1.00
H432   H     0.86320   0.85687   0.39011   0.00000  Uiso   1.00
H433   H     0.99399   0.91073   0.47443   0.00000  Uiso   1.00
H434   H     0.99055   0.88524   0.12084   0.00000  Uiso   1.00
H435   H     0.67360   0.79108   0.38095   0.00000  Uiso   1.00
H436   H     0.97405   0.77454   0.45947   0.00000  Uiso   1.00
H437   H     0.68784   0.90831   0.04359   0.00000  Uiso   1.00
H438   H     0.73899   0.79540   0.07429   0.00000  Uiso   1.00
H439   H     0.92135   0.89027   0.42965   0.00000  Uiso   1.00
H440   H     0.66810   0.87168   0.28421   0.00000  Uiso   1.00
N441   N     0.98173   0.84735   0.26212   0.00000  Uiso   1.00
N442   N     0.68494   0.81932   0.23788   0.00000  Uiso   1.00
O443   O     0.79482   0.90476   0.24686   0.00000  Uiso   1.00
O444   O     0.87185   0.76191   0.25314   0.00000  Uiso   1.00
O445   O     0.89496   0.91420   0.25503   0.00000  Uiso   1.00
O446   O     0.77171   0.75247   0.24498   0.00000  Uiso   1.00
O447   O     0.75518   0.82597   0.30855   0.00000  Uiso   1.00
O448   O     0.91149   0.84070   0.19146   0.00000  Uiso   1.00
O449   O     0.85532   0.83540   0.31671   0.00000  Uiso   1.00
O450   O     0.81134   0.83126   0.18329   0.00000  Uiso   1.00
Br451  Br    0.22923   0.01924   0.80250   0.00000  Uiso   1.00
Br452  Br    0.10415   0.31409   0.69747   0.00000  Uiso   1.00
C453   C     0.18083   0.26648   0.75192   0.00000  Uiso   1.00
C454   C     0.20532   0.17072   0.66690   0.00000  Uiso   1.00
C455   C     0.10468   0.15858   0.88082   0.00000  Uiso   1.00
C456   C     0.22866   0.17805   0.61955   0.00000  Uiso   1.00
C457   C     0.02289   0.12658   0.94504   0.00000  Uiso   1.00
C458   C     0.30700   0.21953   0.55727   0.00000  Uiso   1.00
C459   C     0.04139   0.13624   0.90037   0.00000  Uiso   1.00
C460   C     0.28998   0.20584   0.60110   0.00000  Uiso   1.00
C461   C     0.14832   0.17369   0.90664   0.00000  Uiso   1.00
C462   C     0.18561   0.16208   0.59344   0.00000  Uiso   1.00
C463   C     0.13074   0.16523   0.95191   0.00000  Uiso   1.00
C464   C     0.15251   0.06685   0.74807   0.00000  Uiso   1.00
C465   C     0.20061   0.17697   0.54955   0.00000  Uiso   1.00
C466   C     0.06720   0.13989   0.97068   0.00000  Uiso   1.00
C467   C     0.26276   0.20587   0.53158   0.00000  Uiso   1.00
C468   C     0.17488   0.17953   0.97863   0.00000  Uiso   1.00
C469   C     0.15558   0.16477   0.52336   0.00000  Uiso   1.00
C470   C     0.09162   0.13931   0.54057   0.00000  Uiso   1.00
C471   C     0.23732   0.20871   0.96231   0.00000  Uiso   1.00
C472   C     0.04852   0.12743   0.51471   0.00000  Uiso   1.00
C473   C     0.28008   0.22158   0.98836   0.00000  Uiso   1.00
C474   C     0.18376   0.32120   0.75918   0.00000  Uiso   1.00
C475   C     0.14959   0.01214   0.74079   0.00000  Uiso   1.00
C476   C     0.12804   0.16297   0.83314   0.00000  Uiso   1.00
Cu477  Cu    0.10737   0.16108   0.74517   0.00000  Uiso   1.00
Cu478  Cu    0.22596   0.17225   0.75484   0.00000  Uiso   1.00
H479   H     0.33332   0.10816   0.52939   0.00000  Uiso   1.00
H480   H     0.33190   0.12832   0.71579   0.00000  Uiso   1.00
H481   H     0.14017   0.13862   0.60875   0.00000  Uiso   1.00
H482   H     0.19654   0.19020   0.89011   0.00000  Uiso   1.00
H483   H     0.32732   0.24406   0.97443   0.00000  Uiso   1.00
H484   H     0.32388   0.21857   0.62084   0.00000  Uiso   1.00
H485   H     0.00693   0.12441   0.88095   0.00000  Uiso   1.00
H486   H     0.30739   0.10788   0.95947   0.00000  Uiso   1.00
H487   H     0.02117   0.24164   0.54359   0.00000  Uiso   1.00
H488   H     0.07233   0.12873   0.57429   0.00000  Uiso   1.00
H489   H     0.25468   0.22361   0.92965   0.00000  Uiso   1.00
H490   H     0.00143   0.20502   0.78421   0.00000  Uiso   1.00
N491   N     0.31506   0.18068   0.76212   0.00000  Uiso   1.00
N492   N     0.01827   0.15265   0.73788   0.00000  Uiso   1.00
O493   O     0.12815   0.23809   0.74686   0.00000  Uiso   1.00
O494   O     0.20518   0.09524   0.75314   0.00000  Uiso   1.00
O495   O     0.22829   0.24753   0.75503   0.00000  Uiso   1.00
O496   O     0.10504   0.08580   0.74498   0.00000  Uiso   1.00
O497   O     0.08851   0.15930   0.80855   0.00000  Uiso   1.00
O498   O     0.24482   0.17403   0.69146   0.00000  Uiso   1.00
O499   O     0.18866   0.16874   0.81671   0.00000  Uiso   1.00
O500   O     0.14468   0.16460   0.68329   0.00000  Uiso   1.00
Br501  Br    0.56256   0.01924   0.80250   0.00000  Uiso   1.00
Br502  Br    0.43748   0.31409   0.69747   0.00000  Uiso   1.00
C503   C     0.51417   0.26648   0.75192   0.00000  Uiso   1.00
C504   C     0.53866   0.17072   0.66690   0.00000  Uiso   1.00
C505   C     0.43801   0.15858   0.88082   0.00000  Uiso   1.00
C506   C     0.56199   0.17805   0.61955   0.00000  Uiso   1.00
C507   C     0.35622   0.12658   0.94504   0.00000  Uiso   1.00
C508   C     0.64033   0.21953   0.55727   0.00000  Uiso   1.00
C509   C     0.37473   0.13624   0.90037   0.00000  Uiso   1.00
C510   C     0.62332   0.20584   0.60110   0.00000  Uiso   1.00
C511   C     0.48165   0.17369   0.90664   0.00000  Uiso   1.00
C512   C     0.51894   0.16208   0.59344   0.00000  Uiso   1.00
C513   C     0.46407   0.16523   0.95191   0.00000  Uiso   1.00
C514   C     0.48584   0.06685   0.74807   0.00000  Uiso   1.00
C515   C     0.53395   0.17697   0.54955   0.00000  Uiso   1.00
C516   C     0.40054   0.13989   0.97068   0.00000  Uiso   1.00
C517   C     0.59610   0.20587   0.53158   0.00000  Uiso   1.00
C518   C     0.50821   0.17953   0.97863   0.00000  Uiso   1.00
C519   C     0.48892   0.16477   0.52336   0.00000  Uiso   1.00
C520   C     0.42495   0.13931   0.54057   0.00000  Uiso   1.00
C521   C     0.57065   0.20871   0.96231   0.00000  Uiso   1.00
C522   C     0.38186   0.12743   0.51471   0.00000  Uiso   1.00
C523   C     0.61342   0.22158   0.98836   0.00000  Uiso   1.00
C524   C     0.51709   0.32120   0.75918   0.00000  Uiso   1.00
C525   C     0.48292   0.01214   0.74079   0.00000  Uiso   1.00
C526   C     0.46137   0.16297   0.83314   0.00000  Uiso   1.00
Cu527  Cu    0.44071   0.16108   0.74517   0.00000  Uiso   1.00
Cu528  Cu    0.55929   0.17225   0.75484   0.00000  Uiso   1.00
H529   H     0.66665   0.10816   0.52939   0.00000  Uiso   1.00
H530   H     0.66524   0.12832   0.71579   0.00000  Uiso   1.00
H531   H     0.47350   0.13862   0.60875   0.00000  Uiso   1.00
H532   H     0.52987   0.19020   0.89011   0.00000  Uiso   1.00
H533   H     0.66065   0.24406   0.97443   0.00000  Uiso   1.00
H534   H     0.65721   0.21857   0.62084   0.00000  Uiso   1.00
H535   H     0.34027   0.12441   0.88095   0.00000  Uiso   1.00
H536   H     0.64072   0.10788   0.95947   0.00000  Uiso   1.00
H537   H     0.35451   0.24164   0.54359   0.00000  Uiso   1.00
H538   H     0.40566   0.12873   0.57429   0.00000  Uiso   1.00
H539   H     0.58801   0.22361   0.92965   0.00000  Uiso   1.00
H540   H     0.33476   0.20502   0.78421   0.00000  Uiso   1.00
N541   N     0.64839   0.18068   0.76212   0.00000  Uiso   1.00
N542   N     0.35161   0.15265   0.73788   0.00000  Uiso   1.00
O543   O     0.46148   0.23809   0.74686   0.00000  Uiso   1.00
O544   O     0.53852   0.09524   0.75314   0.00000  Uiso   1.00
O545   O     0.56163   0.24753   0.75503   0.00000  Uiso   1.00
O546   O     0.43837   0.08580   0.74498   0.00000  Uiso   1.00
O547   O     0.42185   0.15930   0.80855   0.00000  Uiso   1.00
O548   O     0.57815   0.17403   0.69146   0.00000  Uiso   1.00
O549   O     0.52199   0.16874   0.81671   0.00000  Uiso   1.00
O550   O     0.47801   0.16460   0.68329   0.00000  Uiso   1.00
Br551  Br    0.89590   0.01924   0.80250   0.00000  Uiso   1.00
Br552  Br    0.77081   0.31409   0.69747   0.00000  Uiso   1.00
C553   C     0.84750   0.26648   0.75192   0.00000  Uiso   1.00
C554   C     0.87199   0.17072   0.66690   0.00000  Uiso   1.00
C555   C     0.77134   0.15858   0.88082   0.00000  Uiso   1.00
C556   C     0.89532   0.17805   0.61955   0.00000  Uiso   1.00
C557   C     0.68955   0.12658   0.94504   0.00000  Uiso   1.00
C558   C     0.97366   0.21953   0.55727   0.00000  Uiso   1.00
C559   C     0.70806   0.13624   0.90037   0.00000  Uiso   1.00
C560   C     0.95665   0.20584   0.60110   0.00000  Uiso   1.00
C561   C     0.81498   0.17369   0.90664   0.00000  Uiso   1.00
C562   C     0.85227   0.16208   0.59344   0.00000  Uiso   1.00
C563   C     0.79741   0.16523   0.95191   0.00000  Uiso   1.00
C564   C     0.81917   0.06685   0.74807   0.00000  Uiso   1.00
C565   C     0.86728   0.17697   0.54955   0.00000  Uiso   1.00
C566   C     0.73387   0.13989   0.97068   0.00000  Uiso   1.00
C567   C     0.92943   0.20587   0.53158   0.00000  Uiso   1.00
C568   C     0.84155   0.17953   0.97863   0.00000  Uiso   1.00
C569   C     0.82225   0.16477   0.52336   0.00000  Uiso   1.00
C570   C     0.75828   0.13931   0.54057   0.00000  Uiso   1.00
C571   C     0.90398   0.20871   0.96231   0.00000  Uiso   1.00
C572   C     0.71519   0.12743   0.51471   0.00000  Uiso   1.00
C573   C     0.94675   0.22158   0.98836   0.00000  Uiso   1.00
C574   C     0.85043   0.32120   0.75918   0.00000  Uiso   1.00
C575   C     0.81626   0.01214   0.74079   0.00000  Uiso   1.00
C576   C     0.79470   0.16297   0.83314   0.00000  Uiso   1.00
Cu577  Cu    0.77404   0.16108   0.74517   0.00000  Uiso   1.00
Cu578  Cu    0.89263   0.17225   0.75484   0.00000  Uiso   1.00
H579   H     0.99999   0.10816   0.52939   0.00000  Uiso   1.00
H580   H     0.99857   0.12832   0.71579   0.00000  Uiso   1.00
H581   H     0.80684   0.13862   0.60875   0.00000  Uiso   1.00
H582   H     0.86320   0.19020   0.89011   0.00000  Uiso   1.00
H583   H     0.99399   0.24406   0.97443   0.00000  Uiso   1.00
H584   H     0.99055   0.21857   0.62084   0.00000  Uiso   1.00
H585   H     0.67360   0.12441   0.88095   0.00000  Uiso   1.00
H586   H     0.97405   0.10788   0.95947   0.00000  Uiso   1.00
H587   H     0.68784   0.24164   0.54359   0.00000  Uiso   1.00
H588   H     0.73899   0.12873   0.57429   0.00000  Uiso   1.00
H589   H     0.92135   0.22361   0.92965   0.00000  Uiso   1.00
H590   H     0.66810   0.20502   0.78421   0.00000  Uiso   1.00
N591   N     0.98173   0.18068   0.76212   0.00000  Uiso   1.00
N592   N     0.68494   0.15265   0.73788   0.00000  Uiso   1.00
O593   O     0.79482   0.23809   0.74686   0.00000  Uiso   1.00
O594   O     0.87185   0.09524   0.75314   0.00000  Uiso   1.00
O595   O     0.89496   0.24753   0.75503   0.00000  Uiso   1.00
O596   O     0.77171   0.08580   0.74498   0.00000  Uiso   1.00
O597   O     0.75518   0.15930   0.80855   0.00000  Uiso   1.00
O598   O     0.91149   0.17403   0.69146   0.00000  Uiso   1.00
O599   O     0.85532   0.16874   0.81671   0.00000  Uiso   1.00
O600   O     0.81134   0.16460   0.68329   0.00000  Uiso   1.00
Br601  Br    0.22923   0.35257   0.80250   0.00000  Uiso   1.00
Br602  Br    0.10415   0.64743   0.69747   0.00000  Uiso   1.00
C603   C     0.18083   0.59981   0.75192   0.00000  Uiso   1.00
C604   C     0.20532   0.50405   0.66690   0.00000  Uiso   1.00
C605   C     0.10468   0.49191   0.88082   0.00000  Uiso   1.00
C606   C     0.22866   0.51138   0.61955   0.00000  Uiso   1.00
C607   C     0.02289   0.45991   0.94504   0.00000  Uiso   1.00
C608   C     0.30700   0.55287   0.55727   0.00000  Uiso   1.00
C609   C     0.04139   0.46958   0.90037   0.00000  Uiso   1.00
C610   C     0.28998   0.53918   0.60110   0.00000  Uiso   1.00
C611   C     0.14832   0.50702   0.90664   0.00000  Uiso   1.00
C612   C     0.18561   0.49541   0.59344   0.00000  Uiso   1.00
C613   C     0.13074   0.49856   0.95191   0.00000  Uiso   1.00
C614   C     0.15251   0.40019   0.74807   0.00000  Uiso   1.00
C615   C     0.20061   0.51030   0.54955   0.00000  Uiso   1.00
C616   C     0.06720   0.47322   0.97068   0.00000  Uiso   1.00
C617   C     0.26276   0.53920   0.53158   0.00000  Uiso   1.00
C618   C     0.17488   0.51286   0.97863   0.00000  Uiso   1.00
C619   C     0.15558   0.49810   0.52336   0.00000  Uiso   1.00
C620   C     0.09162   0.47264   0.54057   0.00000  Uiso   1.00
C621   C     0.23732   0.54205   0.96231   0.00000  Uiso   1.00
C622   C     0.04852   0.46077   0.51471   0.00000  Uiso   1.00
C623   C     0.28008   0.55491   0.98836   0.00000  Uiso   1.00
C624   C     0.18376   0.65453   0.75918   0.00000  Uiso   1.00
C625   C     0.14959   0.34547   0.74079   0.00000  Uiso   1.00
C626   C     0.12804   0.49630   0.83314   0.00000  Uiso   1.00
Cu627  Cu    0.10737   0.49441   0.74517   0.00000  Uiso   1.00
Cu628  Cu    0.22596   0.50559   0.75484   0.00000  Uiso   1.00
H629   H     0.33332   0.44150   0.52939   0.00000  Uiso   1.00
H630   H     0.33190   0.46165   0.71579   0.00000  Uiso   1.00
H631   H     0.14017   0.47196   0.60875   0.00000  Uiso   1.00
H632   H     0.19654   0.52354   0.89011   0.00000  Uiso   1.00
H633   H     0.32732   0.57740   0.97443   0.00000  Uiso   1.00
H634   H     0.32388   0.55190   0.62084   0.00000  Uiso   1.00
H635   H     0.00693   0.45775   0.88095   0.00000  Uiso   1.00
H636   H     0.30739   0.44121   0.95947   0.00000  Uiso   1.00
H637   H     0.02117   0.57498   0.54359   0.00000  Uiso   1.00
H638   H     0.07233   0.46207   0.57429   0.00000  Uiso   1.00
H639   H     0.25468   0.55694   0.92965   0.00000  Uiso   1.00
H640   H     0.00143   0.53835   0.78421   0.00000  Uiso   1.00
N641   N     0.31506   0.51401   0.76212   0.00000  Uiso   1.00
N642   N     0.01827   0.48599   0.73788   0.00000  Uiso   1.00
O643   O     0.12815   0.57142   0.74686   0.00000  Uiso   1.00
O644   O     0.20518   0.42858   0.75314   0.00000  Uiso   1.00
O645   O     0.22829   0.58086   0.75503   0.00000  Uiso   1.00
O646   O     0.10504   0.41914   0.74498   0.00000  Uiso   1.00
O647   O     0.08851   0.49263   0.80855   0.00000  Uiso   1.00
O648   O     0.24482   0.50737   0.69146   0.00000  Uiso   1.00
O649   O     0.18866   0.50207   0.81671   0.00000  Uiso   1.00
O650   O     0.14468   0.49793   0.68329   0.00000  Uiso   1.00
Br651  Br    0.56256   0.35257   0.80250   0.00000  Uiso   1.00
Br652  Br    0.43748   0.64743   0.69747   0.00000  Uiso   1.00
C653   C     0.51417   0.59981   0.75192   0.00000  Uiso   1.00
C654   C     0.53866   0.50405   0.66690   0.00000  Uiso   1.00
C655   C     0.43801   0.49191   0.88082   0.00000  Uiso   1.00
C656   C     0.56199   0.51138   0.61955   0.00000  Uiso   1.00
C657   C     0.35622   0.45991   0.94504   0.00000  Uiso   1.00
C658   C     0.64033   0.55287   0.55727   0.00000  Uiso   1.00
C659   C     0.37473   0.46958   0.90037   0.00000  Uiso   1.00
C660   C     0.62332   0.53918   0.60110   0.00000  Uiso   1.00
C661   C     0.48165   0.50702   0.90664   0.00000  Uiso   1.00
C662   C     0.51894   0.49541   0.59344   0.00000  Uiso   1.00
C663   C     0.46407   0.49856   0.95191   0.00000  Uiso   1.00
C664   C     0.48584   0.40019   0.74807   0.00000  Uiso   1.00
C665   C     0.53395   0.51030   0.54955   0.00000  Uiso   1.00
C666   C     0.40054   0.47322   0.97068   0.00000  Uiso   1.00
C667   C     0.59610   0.53920   0.53158   0.00000  Uiso   1.00
C668   C     0.50821   0.51286   0.97863   0.00000  Uiso   1.00
C669   C     0.48892   0.49810   0.52336   0.00000  Uiso   1.00
C670   C     0.42495   0.47264   0.54057   0.00000  Uiso   1.00
C671   C     0.57065   0.54205   0.96231   0.00000  Uiso   1.00
C672   C     0.38186   0.46077   0.51471   0.00000  Uiso   1.00
C673   C     0.61342   0.55491   0.98836   0.00000  Uiso   1.00
C674   C     0.51709   0.65453   0.75918   0.00000  Uiso   1.00
C675   C     0.48292   0.34547   0.74079   0.00000  Uiso   1.00
C676   C     0.46137   0.49630   0.83314   0.00000  Uiso   1.00
Cu677  Cu    0.44071   0.49441   0.74517   0.00000  Uiso   1.00
Cu678  Cu    0.55929   0.50559   0.75484   0.00000  Uiso   1.00
H679   H     0.66665   0.44150   0.52939   0.00000  Uiso   1.00
H680   H     0.66524   0.46165   0.71579   0.00000  Uiso   1.00
H681   H     0.47350   0.47196   0.60875   0.00000  Uiso   1.00
H682   H     0.52987   0.52354   0.89011   0.00000  Uiso   1.00
H683   H     0.66065   0.57740   0.97443   0.00000  Uiso   1.00
H684   H     0.65721   0.55190   0.62084   0.00000  Uiso   1.00
H685   H     0.34027   0.45775   0.88095   0.00000  Uiso   1.00
H686   H     0.64072   0.44121   0.95947   0.00000  Uiso   1.00
H687   H     0.35451   0.57498   0.54359   0.00000  Uiso   1.00
H688   H     0.40566   0.46207   0.57429   0.00000  Uiso   1.00
H689   H     0.58801   0.55694   0.92965   0.00000  Uiso   1.00
H690   H     0.33476   0.53835   0.78421   0.00000  Uiso   1.00
N691   N     0.64839   0.51401   0.76212   0.00000  Uiso   1.00
N692   N     0.35161   0.48599   0.73788   0.00000  Uiso   1.00
O693   O     0.46148   0.57142   0.74686   0.00000  Uiso   1.00
O694   O     0.53852   0.42858   0.75314   0.00000  Uiso   1.00
O695   O     0.56163   0.58086   0.75503   0.00000  Uiso   1.00
O696   O     0.43837   0.41914   0.74498   0.00000  Uiso   1.00
O697   O     0.42185   0.49263   0.80855   0.00000  Uiso   1.00
O698   O     0.57815   0.50737   0.69146   0.00000  Uiso   1.00
O699   O     0.52199   0.50207   0.81671   0.00000  Uiso   1.00
O700   O     0.47801   0.49793   0.68329   0.00000  Uiso   1.00
Br701  Br    0.89590   0.35257   0.80250   0.00000  Uiso   1.00
Br702  Br    0.77081   0.64743   0.69747   0.00000  Uiso   1.00
C703   C     0.84750   0.59981   0.75192   0.00000  Uiso   1.00
C704   C     0.87199   0.50405   0.66690   0.00000  Uiso   1.00
C705   C     0.77134   0.49191   0.88082   0.00000  Uiso   1.00
C706   C     0.89532   0.51138   0.61955   0.00000  Uiso   1.00
C707   C     0.68955   0.45991   0.94504   0.00000  Uiso   1.00
C708   C     0.97366   0.55287   0.55727   0.00000  Uiso   1.00
C709   C     0.70806   0.46958   0.90037   0.00000  Uiso   1.00
C710   C     0.95665   0.53918   0.60110   0.00000  Uiso   1.00
C711   C     0.81498   0.50702   0.90664   0.00000  Uiso   1.00
C712   C     0.85227   0.49541   0.59344   0.00000  Uiso   1.00
C713   C     0.79741   0.49856   0.95191   0.00000  Uiso   1.00
C714   C     0.81917   0.40019   0.74807   0.00000  Uiso   1.00
C715   C     0.86728   0.51030   0.54955   0.00000  Uiso   1.00
C716   C     0.73387   0.47322   0.97068   0.00000  Uiso   1.00
C717   C     0.92943   0.53920   0.53158   0.00000  Uiso   1.00
C718   C     0.84155   0.51286   0.97863   0.00000  Uiso   1.00
C719   C     0.82225   0.49810   0.52336   0.00000  Uiso   1.00
C720   C     0.75828   0.47264   0.54057   0.00000  Uiso   1.00
C721   C     0.90398   0.54205   0.96231   0.00000  Uiso   1.00
C722   C     0.71519   0.46077   0.51471   0.00000  Uiso   1.00
C723   C     0.94675   0.55491   0.98836   0.00000  Uiso   1.00
C724   C     0.85043   0.65453   0.75918   0.00000  Uiso   1.00
C725   C     0.81626   0.34547   0.74079   0.00000  Uiso   1.00
C726   C     0.79470   0.49630   0.83314   0.00000  Uiso   1.00
Cu727  Cu    0.77404   0.49441   0.74517   0.00000  Uiso   1.00
Cu728  Cu    0.89263   0.50559   0.75484   0.00000  Uiso   1.00
H729   H     0.99999   0.44150   0.52939   0.00000  Uiso   1.00
H730   H     0.99857   0.46165   0.71579   0.00000  Uiso   1.00
H731   H     0.80684   0.47196   0.60875   0.00000  Uiso   1.00
H732   H     0.86320   0.52354   0.89011   0.00000  Uiso   1.00
H733   H     0.99399   0.57740   0.97443   0.00000  Uiso   1.00
H734   H     0.99055   0.55190   0.62084   0.00000  Uiso   1.00
H735   H     0.67360   0.45775   0.88095   0.00000  Uiso   1.00
H736   H     0.97405   0.44121   0.95947   0.00000  Uiso   1.00
H737   H     0.68784   0.57498   0.54359   0.00000  Uiso   1.00
H738   H     0.73899   0.46207   0.57429   0.00000  Uiso   1.00
H739   H     0.92135   0.55694   0.92965   0.00000  Uiso   1.00
H740   H     0.66810   0.53835   0.78421   0.00000  Uiso   1.00
N741   N     0.98173   0.51401   0.76212   0.00000  Uiso   1.00
N742   N     0.68494   0.48599   0.73788   0.00000  Uiso   1.00
O743   O     0.79482   0.57142   0.74686   0.00000  Uiso   1.00
O744   O     0.87185   0.42858   0.75314   0.00000  Uiso   1.00
O745   O     0.89496   0.58086   0.75503   0.00000  Uiso   1.00
O746   O     0.77171   0.41914   0.74498   0.00000  Uiso   1.00
O747   O     0.75518   0.49263   0.80855   0.00000  Uiso   1.00
O748   O     0.91149   0.50737   0.69146   0.00000  Uiso   1.00
O749   O     0.85532   0.50207   0.81671   0.00000  Uiso   1.00
O750   O     0.81134   0.49793   0.68329   0.00000  Uiso   1.00
Br751  Br    0.22923   0.68590   0.80250   0.00000  Uiso   1.00
Br752  Br    0.10415   0.98076   0.69747   0.00000  Uiso   1.00
C753   C     0.18083   0.93315   0.75192   0.00000  Uiso   1.00
C754   C     0.20532   0.83739   0.66690   0.00000  Uiso   1.00
C755   C     0.10468   0.82525   0.88082   0.00000  Uiso   1.00
C756   C     0.22866   0.84471   0.61955   0.00000  Uiso   1.00
C757   C     0.02289   0.79324   0.94504   0.00000  Uiso   1.00
C758   C     0.30700   0.88620   0.55727   0.00000  Uiso   1.00
C759   C     0.04139   0.80291   0.90037   0.00000  Uiso   1.00
C760   C     0.28998   0.87251   0.60110   0.00000  Uiso   1.00
C761   C     0.14832   0.84036   0.90664   0.00000  Uiso   1.00
C762   C     0.18561   0.82874   0.59344   0.00000  Uiso   1.00
C763   C     0.13074   0.83190   0.95191   0.00000  Uiso   1.00
C764   C     0.15251   0.73352   0.74807   0.00000  Uiso   1.00
C765   C     0.20061   0.84363   0.54955   0.00000  Uiso   1.00
C766   C     0.06720   0.80655   0.97068   0.00000  Uiso   1.00
C767   C     0.26276   0.87253   0.53158   0.00000  Uiso   1.00
C768   C     0.17488   0.84619   0.97863   0.00000  Uiso   1.00
C769   C     0.15558   0.83143   0.52336   0.00000  Uiso   1.00
C770   C     0.09162   0.80597   0.54057   0.00000  Uiso   1.00
C771   C     0.23732   0.87538   0.96231   0.00000  Uiso   1.00
C772   C     0.04852   0.79410   0.51471   0.00000  Uiso   1.00
C773   C     0.28008   0.88824   0.98836   0.00000  Uiso   1.00
C774   C     0.18376   0.98786   0.75918   0.00000  Uiso   1.00
C775   C     0.14959   0.67880   0.74079   0.00000  Uiso   1.00
C776   C     0.12804   0.82964   0.83314   0.00000  Uiso   1.00
Cu777  Cu    0.10737   0.82775   0.74517   0.00000  Uiso   1.00
Cu778  Cu    0.22596   0.83892   0.75484   0.00000  Uiso   1.00
H779   H     0.33332   0.77483   0.52939   0.00000  Uiso   1.00
H780   H     0.33190   0.79498   0.71579   0.00000  Uiso   1.00
H781   H     0.14017   0.80529   0.60875   0.00000  Uiso   1.00
H782   H     0.19654   0.85687   0.89011   0.00000  Uiso   1.00
H783   H     0.32732   0.91073   0.97443   0.00000  Uiso   1.00
H784   H     0.32388   0.88524   0.62084   0.00000  Uiso   1.00
H785   H     0.00693   0.79108   0.88095   0.00000  Uiso   1.00
H786   H     0.30739   0.77454   0.95947   0.00000  Uiso   1.00
H787   H     0.02117   0.90831   0.54359   0.00000  Uiso   1.00
H788   H     0.07233   0.79540   0.57429   0.00000  Uiso   1.00
H789   H     0.25468   0.89027   0.92965   0.00000  Uiso   1.00
H790   H     0.00143   0.87168   0.78421   0.00000  Uiso   1.00
N791   N     0.31506   0.84735   0.76212   0.00000  Uiso   1.00
N792   N     0.01827   0.81932   0.73788   0.00000  Uiso   1.00
O793   O     0.12815   0.90476   0.74686   0.00000  Uiso   1.00
O794   O     0.20518   0.76191   0.75314   0.00000  Uiso   1.00
O795   O     0.22829   0.91420   0.75503   0.00000  Uiso   1.00
O796   O     0.10504   0.75247   0.74498   0.00000  Uiso   1.00
O797   O     0.08851   0.82597   0.80855   0.00000  Uiso   1.00
O798   O     0.24482   0.84070   0.69146   0.00000  Uiso   1.00
O799   O     0.18866   0.83540   0.81671   0.00000  Uiso   1.00
O800   O     0.14468   0.83126   0.68329   0.00000  Uiso   1.00
Br801  Br    0.56256   0.68590   0.80250   0.00000  Uiso   1.00
Br802  Br    0.43748   0.98076   0.69747   0.00000  Uiso   1.00
C803   C     0.51417   0.93315   0.75192   0.00000  Uiso   1.00
C804   C     0.53866   0.83739   0.66690   0.00000  Uiso   1.00
C805   C     0.43801   0.82525   0.88082   0.00000  Uiso   1.00
C806   C     0.56199   0.84471   0.61955   0.00000  Uiso   1.00
C807   C     0.35622   0.79324   0.94504   0.00000  Uiso   1.00
C808   C     0.64033   0.88620   0.55727   0.00000  Uiso   1.00
C809   C     0.37473   0.80291   0.90037   0.00000  Uiso   1.00
C810   C     0.62332   0.87251   0.60110   0.00000  Uiso   1.00
C811   C     0.48165   0.84036   0.90664   0.00000  Uiso   1.00
C812   C     0.51894   0.82874   0.59344   0.00000  Uiso   1.00
C813   C     0.46407   0.83190   0.95191   0.00000  Uiso   1.00
C814   C     0.48584   0.73352   0.74807   0.00000  Uiso   1.00
C815   C     0.53395   0.84363   0.54955   0.00000  Uiso   1.00
C816   C     0.40054   0.80655   0.97068   0.00000  Uiso   1.00
C817   C     0.59610   0.87253   0.53158   0.00000  Uiso   1.00
C818   C     0.50821   0.84619   0.97863   0.00000  Uiso   1.00
C819   C     0.48892   0.83143   0.52336   0.00000  Uiso   1.00
C820   C     0.42495   0.80597   0.54057   0.00000  Uiso   1.00
C821   C     0.57065   0.87538   0.96231   0.00000  Uiso   1.00
C822   C     0.38186   0.79410   0.51471   0.00000  Uiso   1.00
C823   C     0.61342   0.88824   0.98836   0.00000  Uiso   1.00
C824   C     0.51709   0.98786   0.75918   0.00000  Uiso   1.00
C825   C     0.48292   0.67880   0.74079   0.00000  Uiso   1.00
C826   C     0.46137   0.82964   0.83314   0.00000  Uiso   1.00
Cu827  Cu    0.44071   0.82775   0.74517   0.00000  Uiso   1.00
Cu828  Cu    0.55929   0.83892   0.75484   0.00000  Uiso   1.00
H829   H     0.66665   0.77483   0.52939   0.00000  Uiso   1.00
H830   H     0.66524   0.79498   0.71579   0.00000  Uiso   1.00
H831   H     0.47350   0.80529   0.60875   0.00000  Uiso   1.00
H832   H     0.52987   0.85687   0.89011   0.00000  Uiso   1.00
H833   H     0.66065   0.91073   0.97443   0.00000  Uiso   1.00
H834   H     0.65721   0.88524   0.62084   0.00000  Uiso   1.00
H835   H     0.34027   0.79108   0.88095   0.00000  Uiso   1.00
H836   H     0.64072   0.77454   0.95947   0.00000  Uiso   1.00
H837   H     0.35451   0.90831   0.54359   0.00000  Uiso   1.00
H838   H     0.40566   0.79540   0.57429   0.00000  Uiso   1.00
H839   H     0.58801   0.89027   0.92965   0.00000  Uiso   1.00
H840   H     0.33476   0.87168   0.78421   0.00000  Uiso   1.00
N841   N     0.64839   0.84735   0.76212   0.00000  Uiso   1.00
N842   N     0.35161   0.81932   0.73788   0.00000  Uiso   1.00
O843   O     0.46148   0.90476   0.74686   0.00000  Uiso   1.00
O844   O     0.53852   0.76191   0.75314   0.00000  Uiso   1.00
O845   O     0.56163   0.91420   0.75503   0.00000  Uiso   1.00
O846   O     0.43837   0.75247   0.74498   0.00000  Uiso   1.00
O847   O     0.42185   0.82597   0.80855   0.00000  Uiso   1.00
O848   O     0.57815   0.84070   0.69146   0.00000  Uiso   1.00
O849   O     0.52199   0.83540   0.81671   0.00000  Uiso   1.00
O850   O     0.47801   0.83126   0.68329   0.00000  Uiso   1.00
Br851  Br    0.89590   0.68590   0.80250   0.00000  Uiso   1.00
Br852  Br    0.77081   0.98076   0.69747   0.00000  Uiso   1.00
C853   C     0.84750   0.93315   0.75192   0.00000  Uiso   1.00
C854   C     0.87199   0.83739   0.66690   0.00000  Uiso   1.00
C855   C     0.77134   0.82525   0.88082   0.00000  Uiso   1.00
C856   C     0.89532   0.84471   0.61955   0.00000  Uiso   1.00
C857   C     0.68955   0.79324   0.94504   0.00000  Uiso   1.00
C858   C     0.97366   0.88620   0.55727   0.00000  Uiso   1.00
C859   C     0.70806   0.80291   0.90037   0.00000  Uiso   1.00
C860   C     0.95665   0.87251   0.60110   0.00000  Uiso   1.00
C861   C     0.81498   0.84036   0.90664   0.00000  Uiso   1.00
C862   C     0.85227   0.82874   0.59344   0.00000  Uiso   1.00
C863   C     0.79741   0.83190   0.95191   0.00000  Uiso   1.00
C864   C     0.81917   0.73352   0.74807   0.00000  Uiso   1.00
C865   C     0.86728   0.84363   0.54955   0.00000  Uiso   1.00
C866   C     0.73387   0.80655   0.97068   0.00000  Uiso   1.00
C867   C     0.92943   0.87253   0.53158   0.00000  Uiso   1.00
C868   C     0.84155   0.84619   0.97863   0.00000  Uiso   1.00
C869   C     0.82225   0.83143   0.52336   0.00000  Uiso   1.00
C870   C     0.75828   0.80597   0.54057   0.00000  Uiso   1.00
C871   C     0.90398   0.87538   0.96231   0.00000  Uiso   1.00
C872   C     0.71519   0.79410   0.51471   0.00000  Uiso   1.00
C873   C     0.94675   0.88824   0.98836   0.00000  Uiso   1.00
C874   C     0.85043   0.98786   0.75918   0.00000  Uiso   1.00
C875   C     0.81626   0.67880   0.74079   0.00000  Uiso   1.00
C876   C     0.79470   0.82964   0.83314   0.00000  Uiso   1.00
Cu877  Cu    0.77404   0.82775   0.74517   0.00000  Uiso   1.00
Cu878  Cu    0.89263   0.83892   0.75484   0.00000  Uiso   1.00
H879   H     0.99999   0.77483   0.52939   0.00000  Uiso   1.00
H880   H     0.99857   0.79498   0.71579   0.00000  Uiso   1.00
H881   H     0.80684   0.80529   0.60875   0.00000  Uiso   1.00
H882   H     0.86320   0.85687   0.89011   0.00000  Uiso   1.00
H883   H     0.99399   0.91073   0.97443   0.00000  Uiso   1.00
H884   H     0.99055   0.88524   0.62084   0.00000  Uiso   1.00
H885   H     0.67360   0.79108   0.88095   0.00000  Uiso   1.00
H886   H     0.97405   0.77454   0.95947   0.00000  Uiso   1.00
H887   H     0.68784   0.90831   0.54359   0.00000  Uiso   1.00
H888   H     0.73899   0.79540   0.57429   0.00000  Uiso   1.00
H889   H     0.92135   0.89027   0.92965   0.00000  Uiso   1.00
H890   H     0.66810   0.87168   0.78421   0.00000  Uiso   1.00
N891   N     0.98173   0.84735   0.76212   0.00000  Uiso   1.00
N892   N     0.68494   0.81932   0.73788   0.00000  Uiso   1.00
O893   O     0.79482   0.90476   0.74686   0.00000  Uiso   1.00
O894   O     0.87185   0.76191   0.75314   0.00000  Uiso   1.00
O895   O     0.89496   0.91420   0.75503   0.00000  Uiso   1.00
O896   O     0.77171   0.75247   0.74498   0.00000  Uiso   1.00
O897   O     0.75518   0.82597   0.80855   0.00000  Uiso   1.00
O898   O     0.91149   0.84070   0.69146   0.00000  Uiso   1.00
O899   O     0.85532   0.83540   0.81671   0.00000  Uiso   1.00
O900   O     0.81134   0.83126   0.68329   0.00000  Uiso   1.00
loop_
_geom_bond_atom_site_label_1
_geom_bond_atom_site_label_2
_geom_bond_distance
_geom_bond_site_symmetry_2
_ccdc_geom_bond_type
Br1    C324    1.941   1_545 S
Br2    C175    1.941   .     S
C3     O45     1.289   .     A
C3     O43     1.286   .     A
C3     C24     1.425   .     S
C4     C6      1.467   .     S
C4     O48     1.301   .     A
C4     O50     1.294   .     A
C5     C9      1.398   .     A
C5     C11     1.401   .     A
C5     C26     1.469   .     S
C6     C10     1.398   .     A
C6     C12     1.399   .     A
C7     C9      1.393   .     A
C7     C16     1.405   .     A
C7     H136    1.084   1_455 S
C8     C10     1.393   .     A
C8     C17     1.405   .     A
C8     H87     1.084   .     S
C9     H35     1.083   .     S
C10    H34     1.083   .     S
C11    C13     1.406   .     A
C11    H32     1.075   .     S
C12    C15     1.406   .     A
C12    H31     1.075   .     S
C13    C18     1.429   .     A
C13    C16     1.418   .     A
C14    O44     1.286   .     A
C14    C25     1.425   .     S
C14    O46     1.289   .     A
C15    C19     1.429   .     A
C15    C17     1.418   .     A
C16    C472    1.389   .     S
C17    C473    1.390   1_554 S
C18    C21     1.417   .     A
C18    C469    1.426   .     S
C19    C20     1.417   .     A
C19    C468    1.426   1_554 S
C20    H38     1.075   .     S
C20    C22     1.387   .     A
C21    H39     1.076   .     S
C21    C23     1.387   .     A
C22    C466    1.389   1_554 S
C22    H129    1.085   1_455 S
C23    H33     1.084   .     S
C23    C467    1.390   .     S
C24    Br151   1.941   .     S
C24    C175    1.347   .     S
C25    C324    1.347   1_545 S
C25    Br302   1.941   1_545 S
C26    O47     1.301   .     A
C26    O49     1.295   .     A
Cu27   O50     1.921   .     S
Cu27   N42     2.018   .     S
Cu27   O46     1.961   .     S
Cu27   O43     1.969   .     S
Cu27   O47     1.943   .     S
Cu27   Cu28    2.686   .     S
Cu28   O45     1.961   .     S
Cu28   N41     2.018   .     S
Cu28   O49     1.921   .     S
Cu28   O48     1.943   .     S
Cu28   O44     1.969   .     S
H29    C72     1.085   .     S
H30    N92     1.029   .     S
H36    C57     1.084   .     S
H37    C108    1.084   1_455 S
H40    N141    1.029   1_455 S
N41    H90     1.029   .     S
N41    N92     1.284   .     S
N42    H130    1.029   1_455 S
N42    N141    1.284   1_455 S
Br51   C374    1.941   1_545 S
Br52   C225    1.941   .     S
C53    O95     1.289   .     A
C53    O93     1.286   .     A
C53    C74     1.425   .     S
C54    C56     1.467   .     S
C54    O98     1.301   .     A
C54    O100    1.294   .     A
C55    C59     1.398   .     A
C55    C61     1.401   .     A
C55    C76     1.469   .     S
C56    C60     1.398   .     A
C56    C62     1.399   .     A
C57    C59     1.393   .     A
C57    C66     1.405   .     A
C58    C60     1.393   .     A
C58    C67     1.405   .     A
C58    H137    1.084   .     S
C59    H85     1.083   .     S
C60    H84     1.083   .     S
C61    C63     1.406   .     A
C61    H82     1.075   .     S
C62    C65     1.406   .     A
C62    H81     1.075   .     S
C63    C68     1.429   .     A
C63    C66     1.418   .     A
C64    O94     1.286   .     A
C64    C75     1.425   .     S
C64    O96     1.289   .     A
C65    C69     1.429   .     A
C65    C67     1.418   .     A
C66    C522    1.389   .     S
C67    C523    1.390   1_554 S
C68    C71     1.417   .     A
C68    C519    1.426   .     S
C69    C70     1.417   .     A
C69    C518    1.426   1_554 S
C70    H88     1.075   .     S
C70    C72     1.387   .     A
C71    H89     1.076   .     S
C71    C73     1.387   .     A
C72    C516    1.389   1_554 S
C73    H83     1.084   .     S
C73    C517    1.390   .     S
C74    Br201   1.941   .     S
C74    C225    1.347   .     S
C75    C374    1.347   1_545 S
C75    Br352   1.941   1_545 S
C76    O97     1.301   .     A
C76    O99     1.295   .     A
Cu77   O100    1.921   .     S
Cu77   N92     2.018   .     S
Cu77   O96     1.961   .     S
Cu77   O93     1.969   .     S
Cu77   O97     1.943   .     S
Cu77   Cu78    2.686   .     S
Cu78   O95     1.961   .     S
Cu78   N91     2.018   .     S
Cu78   O99     1.921   .     S
Cu78   O98     1.943   .     S
Cu78   O94     1.969   .     S
H79    C122    1.085   .     S
H80    N142    1.029   .     S
H86    C107    1.084   .     S
N91    H140    1.029   .     S
N91    N142    1.284   .     S
Br101  C424    1.941   1_545 S
Br102  C275    1.941   .     S
C103   O145    1.289   .     A
C103   O143    1.286   .     A
C103   C124    1.425   .     S
C104   C106    1.467   .     S
C104   O148    1.301   .     A
C104   O150    1.294   .     A
C105   C109    1.398   .     A
C105   C111    1.401   .     A
C105   C126    1.469   .     S
C106   C110    1.398   .     A
C106   C112    1.399   .     A
C107   C109    1.393   .     A
C107   C116    1.405   .     A
C108   C110    1.393   .     A
C108   C117    1.405   .     A
C108   H37     1.084   1_655 S
C109   H135    1.083   .     S
C110   H134    1.083   .     S
C111   C113    1.406   .     A
C111   H132    1.075   .     S
C112   C115    1.406   .     A
C112   H131    1.075   .     S
C113   C118    1.429   .     A
C113   C116    1.418   .     A
C114   O144    1.286   .     A
C114   C125    1.425   .     S
C114   O146    1.289   .     A
C115   C119    1.429   .     A
C115   C117    1.418   .     A
C116   C572    1.389   .     S
C117   C573    1.390   1_554 S
C118   C121    1.417   .     A
C118   C569    1.426   .     S
C119   C120    1.417   .     A
C119   C568    1.426   1_554 S
C120   H138    1.075   .     S
C120   C122    1.387   .     A
C121   H139    1.076   .     S
C121   C123    1.387   .     A
C122   C566    1.389   1_554 S
C123   H133    1.084   .     S
C123   C567    1.390   .     S
C124   Br251   1.941   .     S
C124   C275    1.347   .     S
C125   C424    1.347   1_545 S
C125   Br402   1.941   1_545 S
C126   O147    1.301   .     A
C126   O149    1.295   .     A
Cu127  O150    1.921   .     S
Cu127  N142    2.018   .     S
Cu127  O146    1.961   .     S
Cu127  O143    1.969   .     S
Cu127  O147    1.943   .     S
Cu127  Cu128   2.686   .     S
Cu128  O145    1.961   .     S
Cu128  N141    2.018   .     S
Cu128  O149    1.921   .     S
Cu128  O148    1.943   .     S
Cu128  O144    1.969   .     S
H129   C22     1.085   1_655 S
H130   N42     1.029   1_655 S
H136   C7      1.084   1_655 S
N141   H40     1.029   1_655 S
N141   N42     1.284   1_655 S
Br152  C325    1.941   .     S
C153   O195    1.289   .     A
C153   O193    1.286   .     A
C153   C174    1.425   .     S
C154   C156    1.467   .     S
C154   O198    1.301   .     A
C154   O200    1.294   .     A
C155   C159    1.398   .     A
C155   C161    1.401   .     A
C155   C176    1.469   .     S
C156   C160    1.398   .     A
C156   C162    1.399   .     A
C157   C159    1.393   .     A
C157   C166    1.405   .     A
C157   H286    1.084   1_455 S
C158   C160    1.393   .     A
C158   C167    1.405   .     A
C158   H237    1.084   .     S
C159   H185    1.083   .     S
C160   H184    1.083   .     S
C161   C163    1.406   .     A
C161   H182    1.075   .     S
C162   C165    1.406   .     A
C162   H181    1.075   .     S
C163   C168    1.429   .     A
C163   C166    1.418   .     A
C164   O194    1.286   .     A
C164   C175    1.425   .     S
C164   O196    1.289   .     A
C165   C169    1.429   .     A
C165   C167    1.418   .     A
C166   C622    1.389   .     S
C167   C623    1.390   1_554 S
C168   C171    1.417   .     A
C168   C619    1.426   .     S
C169   C170    1.417   .     A
C169   C618    1.426   1_554 S
C170   H188    1.075   .     S
C170   C172    1.387   .     A
C171   H189    1.076   .     S
C171   C173    1.387   .     A
C172   C616    1.389   1_554 S
C172   H279    1.085   1_455 S
C173   H183    1.084   .     S
C173   C617    1.390   .     S
C174   Br301   1.941   .     S
C174   C325    1.347   .     S
C176   O197    1.301   .     A
C176   O199    1.295   .     A
Cu177  O200    1.921   .     S
Cu177  N192    2.018   .     S
Cu177  O196    1.961   .     S
Cu177  O193    1.969   .     S
Cu177  O197    1.943   .     S
Cu177  Cu178   2.686   .     S
Cu178  O195    1.961   .     S
Cu178  N191    2.018   .     S
Cu178  O199    1.921   .     S
Cu178  O198    1.943   .     S
Cu178  O194    1.969   .     S
H179   C222    1.085   .     S
H180   N242    1.029   .     S
H186   C207    1.084   .     S
H187   C258    1.084   1_455 S
H190   N291    1.029   1_455 S
N191   H240    1.029   .     S
N191   N242    1.284   .     S
N192   H280    1.029   1_455 S
N192   N291    1.284   1_455 S
Br202  C375    1.941   .     S
C203   O245    1.289   .     A
C203   O243    1.286   .     A
C203   C224    1.425   .     S
C204   C206    1.467   .     S
C204   O248    1.301   .     A
C204   O250    1.294   .     A
C205   C209    1.398   .     A
C205   C211    1.401   .     A
C205   C226    1.469   .     S
C206   C210    1.398   .     A
C206   C212    1.399   .     A
C207   C209    1.393   .     A
C207   C216    1.405   .     A
C208   C210    1.393   .     A
C208   C217    1.405   .     A
C208   H287    1.084   .     S
C209   H235    1.083   .     S
C210   H234    1.083   .     S
C211   C213    1.406   .     A
C211   H232    1.075   .     S
C212   C215    1.406   .     A
C212   H231    1.075   .     S
C213   C218    1.429   .     A
C213   C216    1.418   .     A
C214   O244    1.286   .     A
C214   C225    1.425   .     S
C214   O246    1.289   .     A
C215   C219    1.429   .     A
C215   C217    1.418   .     A
C216   C672    1.389   .     S
C217   C673    1.390   1_554 S
C218   C221    1.417   .     A
C218   C669    1.426   .     S
C219   C220    1.417   .     A
C219   C668    1.426   1_554 S
C220   H238    1.075   .     S
C220   C222    1.387   .     A
C221   H239    1.076   .     S
C221   C223    1.387   .     A
C222   C666    1.389   1_554 S
C223   H233    1.084   .     S
C223   C667    1.390   .     S
C224   Br351   1.941   .     S
C224   C375    1.347   .     S
C226   O247    1.301   .     A
C226   O249    1.295   .     A
Cu227  O250    1.921   .     S
Cu227  N242    2.018   .     S
Cu227  O246    1.961   .     S
Cu227  O243    1.969   .     S
Cu227  O247    1.943   .     S
Cu227  Cu228   2.686   .     S
Cu228  O245    1.961   .     S
Cu228  N241    2.018   .     S
Cu228  O249    1.921   .     S
Cu228  O248    1.943   .     S
Cu228  O244    1.969   .     S
H229   C272    1.085   .     S
H230   N292    1.029   .     S
H236   C257    1.084   .     S
N241   H290    1.029   .     S
N241   N292    1.284   .     S
Br252  C425    1.941   .     S
C253   O295    1.289   .     A
C253   O293    1.286   .     A
C253   C274    1.425   .     S
C254   C256    1.467   .     S
C254   O298    1.301   .     A
C254   O300    1.294   .     A
C255   C259    1.398   .     A
C255   C261    1.401   .     A
C255   C276    1.469   .     S
C256   C260    1.398   .     A
C256   C262    1.399   .     A
C257   C259    1.393   .     A
C257   C266    1.405   .     A
C258   C260    1.393   .     A
C258   C267    1.405   .     A
C258   H187    1.084   1_655 S
C259   H285    1.083   .     S
C260   H284    1.083   .     S
C261   C263    1.406   .     A
C261   H282    1.075   .     S
C262   C265    1.406   .     A
C262   H281    1.075   .     S
C263   C268    1.429   .     A
C263   C266    1.418   .     A
C264   O294    1.286   .     A
C264   C275    1.425   .     S
C264   O296    1.289   .     A
C265   C269    1.429   .     A
C265   C267    1.418   .     A
C266   C722    1.389   .     S
C267   C723    1.390   1_554 S
C268   C271    1.417   .     A
C268   C719    1.426   .     S
C269   C270    1.417   .     A
C269   C718    1.426   1_554 S
C270   H288    1.075   .     S
C270   C272    1.387   .     A
C271   H289    1.076   .     S
C271   C273    1.387   .     A
C272   C716    1.389   1_554 S
C273   H283    1.084   .     S
C273   C717    1.390   .     S
C274   Br401   1.941   .     S
C274   C425    1.347   .     S
C276   O297    1.301   .     A
C276   O299    1.295   .     A
Cu277  O300    1.921   .     S
Cu277  N292    2.018   .     S
Cu277  O296    1.961   .     S
Cu277  O293    1.969   .     S
Cu277  O297    1.943   .     S
Cu277  Cu278   2.686   .     S
Cu278  O295    1.961   .     S
Cu278  N291    2.018   .     S
Cu278  O299    1.921   .     S
Cu278  O298    1.943   .     S
Cu278  O294    1.969   .     S
H279   C172    1.085   1_655 S
H280   N192    1.029   1_655 S
H286   C157    1.084   1_655 S
N291   H190    1.029   1_655 S
N291   N192    1.284   1_655 S
Br302  C25     1.941   1_565 S
C303   O345    1.289   .     A
C303   O343    1.286   .     A
C303   C324    1.425   .     S
C304   C306    1.467   .     S
C304   O348    1.301   .     A
C304   O350    1.294   .     A
C305   C309    1.398   .     A
C305   C311    1.401   .     A
C305   C326    1.469   .     S
C306   C310    1.398   .     A
C306   C312    1.399   .     A
C307   C309    1.393   .     A
C307   C316    1.405   .     A
C307   H436    1.084   1_455 S
C308   C310    1.393   .     A
C308   C317    1.405   .     A
C308   H387    1.084   .     S
C309   H335    1.083   .     S
C310   H334    1.083   .     S
C311   C313    1.406   .     A
C311   H332    1.075   .     S
C312   C315    1.406   .     A
C312   H331    1.075   .     S
C313   C318    1.429   .     A
C313   C316    1.418   .     A
C314   O344    1.286   .     A
C314   C325    1.425   .     S
C314   O346    1.289   .     A
C315   C319    1.429   .     A
C315   C317    1.418   .     A
C316   C772    1.389   .     S
C317   C773    1.390   1_554 S
C318   C321    1.417   .     A
C318   C769    1.426   .     S
C319   C320    1.417   .     A
C319   C768    1.426   1_554 S
C320   H338    1.075   .     S
C320   C322    1.387   .     A
C321   H339    1.076   .     S
C321   C323    1.387   .     A
C322   C766    1.389   1_554 S
C322   H429    1.085   1_455 S
C323   H333    1.084   .     S
C323   C767    1.390   .     S
C324   Br1     1.941   1_565 S
C324   C25     1.347   1_565 S
C326   O347    1.301   .     A
C326   O349    1.295   .     A
Cu327  O350    1.921   .     S
Cu327  N342    2.018   .     S
Cu327  O346    1.961   .     S
Cu327  O343    1.969   .     S
Cu327  O347    1.943   .     S
Cu327  Cu328   2.686   .     S
Cu328  O345    1.961   .     S
Cu328  N341    2.018   .     S
Cu328  O349    1.921   .     S
Cu328  O348    1.943   .     S
Cu328  O344    1.969   .     S
H329   C372    1.085   .     S
H330   N392    1.029   .     S
H336   C357    1.084   .     S
H337   C408    1.084   1_455 S
H340   N441    1.029   1_455 S
N341   H390    1.029   .     S
N341   N392    1.284   .     S
N342   H430    1.029   1_455 S
N342   N441    1.284   1_455 S
Br352  C75     1.941   1_565 S
C353   O395    1.289   .     A
C353   O393    1.286   .     A
C353   C374    1.425   .     S
C354   C356    1.467   .     S
C354   O398    1.301   .     A
C354   O400    1.294   .     A
C355   C359    1.398   .     A
C355   C361    1.401   .     A
C355   C376    1.469   .     S
C356   C360    1.398   .     A
C356   C362    1.399   .     A
C357   C359    1.393   .     A
C357   C366    1.405   .     A
C358   C360    1.393   .     A
C358   C367    1.405   .     A
C358   H437    1.084   .     S
C359   H385    1.083   .     S
C360   H384    1.083   .     S
C361   C363    1.406   .     A
C361   H382    1.075   .     S
C362   C365    1.406   .     A
C362   H381    1.075   .     S
C363   C368    1.429   .     A
C363   C366    1.418   .     A
C364   O394    1.286   .     A
C364   C375    1.425   .     S
C364   O396    1.289   .     A
C365   C369    1.429   .     A
C365   C367    1.418   .     A
C366   C822    1.389   .     S
C367   C823    1.390   1_554 S
C368   C371    1.417   .     A
C368   C819    1.426   .     S
C369   C370    1.417   .     A
C369   C818    1.426   1_554 S
C370   H388    1.075   .     S
C370   C372    1.387   .     A
C371   H389    1.076   .     S
C371   C373    1.387   .     A
C372   C816    1.389   1_554 S
C373   H383    1.084   .     S
C373   C817    1.390   .     S
C374   Br51    1.941   1_565 S
C374   C75     1.347   1_565 S
C376   O397    1.301   .     A
C376   O399    1.295   .     A
Cu377  O400    1.921   .     S
Cu377  N392    2.018   .     S
Cu377  O396    1.961   .     S
Cu377  O393    1.969   .     S
Cu377  O397    1.943   .     S
Cu377  Cu378   2.686   .     S
Cu378  O395    1.961   .     S
Cu378  N391    2.018   .     S
Cu378  O399    1.921   .     S
Cu378  O398    1.943   .     S
Cu378  O394    1.969   .     S
H379   C422    1.085   .     S
H380   N442    1.029   .     S
H386   C407    1.084   .     S
N391   H440    1.029   .     S
N391   N442    1.284   .     S
Br402  C125    1.941   1_565 S
C403   O445    1.289   .     A
C403   O443    1.286   .     A
C403   C424    1.425   .     S
C404   C406    1.467   .     S
C404   O448    1.301   .     A
C404   O450    1.294   .     A
C405   C409    1.398   .     A
C405   C411    1.401   .     A
C405   C426    1.469   .     S
C406   C410    1.398   .     A
C406   C412    1.399   .     A
C407   C409    1.393   .     A
C407   C416    1.405   .     A
C408   C410    1.393   .     A
C408   C417    1.405   .     A
C408   H337    1.084   1_655 S
C409   H435    1.083   .     S
C410   H434    1.083   .     S
C411   C413    1.406   .     A
C411   H432    1.075   .     S
C412   C415    1.406   .     A
C412   H431    1.075   .     S
C413   C418    1.429   .     A
C413   C416    1.418   .     A
C414   O444    1.286   .     A
C414   C425    1.425   .     S
C414   O446    1.289   .     A
C415   C419    1.429   .     A
C415   C417    1.418   .     A
C416   C872    1.389   .     S
C417   C873    1.390   1_554 S
C418   C421    1.417   .     A
C418   C869    1.426   .     S
C419   C420    1.417   .     A
C419   C868    1.426   1_554 S
C420   H438    1.075   .     S
C420   C422    1.387   .     A
C421   H439    1.076   .     S
C421   C423    1.387   .     A
C422   C866    1.389   1_554 S
C423   H433    1.084   .     S
C423   C867    1.390   .     S
C424   Br101   1.941   1_565 S
C424   C125    1.347   1_565 S
C426   O447    1.301   .     A
C426   O449    1.295   .     A
Cu427  O450    1.921   .     S
Cu427  N442    2.018   .     S
Cu427  O446    1.961   .     S
Cu427  O443    1.969   .     S
Cu427  O447    1.943   .     S
Cu427  Cu428   2.686   .     S
Cu428  O445    1.961   .     S
Cu428  N441    2.018   .     S
Cu428  O449    1.921   .     S
Cu428  O448    1.943   .     S
Cu428  O444    1.969   .     S
H429   C322    1.085   1_655 S
H430   N342    1.029   1_655 S
H436   C307    1.084   1_655 S
N441   H340    1.029   1_655 S
N441   N342    1.284   1_655 S
Br451  C774    1.941   1_545 S
Br452  C625    1.941   .     S
C453   O495    1.289   .     A
C453   O493    1.286   .     A
C453   C474    1.425   .     S
C454   C456    1.467   .     S
C454   O498    1.301   .     A
C454   O500    1.294   .     A
C455   C459    1.398   .     A
C455   C461    1.401   .     A
C455   C476    1.469   .     S
C456   C460    1.398   .     A
C456   C462    1.399   .     A
C457   C459    1.393   .     A
C457   C466    1.405   .     A
C457   H586    1.084   1_455 S
C458   C460    1.393   .     A
C458   C467    1.405   .     A
C458   H537    1.084   .     S
C459   H485    1.083   .     S
C460   H484    1.083   .     S
C461   C463    1.406   .     A
C461   H482    1.075   .     S
C462   C465    1.406   .     A
C462   H481    1.075   .     S
C463   C468    1.429   .     A
C463   C466    1.418   .     A
C464   O494    1.286   .     A
C464   C475    1.425   .     S
C464   O496    1.289   .     A
C465   C469    1.429   .     A
C465   C467    1.418   .     A
C466   C22     1.389   1_556 S
C468   C471    1.417   .     A
C468   C19     1.426   1_556 S
C469   C470    1.417   .     A
C470   H488    1.075   .     S
C470   C472    1.387   .     A
C471   H489    1.076   .     S
C471   C473    1.387   .     A
C472   H579    1.085   1_455 S
C473   H483    1.084   .     S
C473   C17     1.390   1_556 S
C474   Br601   1.941   .     S
C474   C625    1.347   .     S
C475   C774    1.347   1_545 S
C475   Br752   1.941   1_545 S
C476   O497    1.301   .     A
C476   O499    1.295   .     A
Cu477  O500    1.921   .     S
Cu477  N492    2.018   .     S
Cu477  O496    1.961   .     S
Cu477  O493    1.969   .     S
Cu477  O497    1.943   .     S
Cu477  Cu478   2.686   .     S
Cu478  O495    1.961   .     S
Cu478  N491    2.018   .     S
Cu478  O499    1.921   .     S
Cu478  O498    1.943   .     S
Cu478  O494    1.969   .     S
H479   C522    1.085   .     S
H480   N542    1.029   .     S
H486   C507    1.084   .     S
H487   C558    1.084   1_455 S
H490   N591    1.029   1_455 S
N491   H540    1.029   .     S
N491   N542    1.284   .     S
N492   H580    1.029   1_455 S
N492   N591    1.284   1_455 S
Br501  C824    1.941   1_545 S
Br502  C675    1.941   .     S
C503   O545    1.289   .     A
C503   O543    1.286   .     A
C503   C524    1.425   .     S
C504   C506    1.467   .     S
C504   O548    1.301   .     A
C504   O550    1.294   .     A
C505   C509    1.398   .     A
C505   C511    1.401   .     A
C505   C526    1.469   .     S
C506   C510    1.398   .     A
C506   C512    1.399   .     A
C507   C509    1.393   .     A
C507   C516    1.405   .     A
C508   C510    1.393   .     A
C508   C517    1.405   .     A
C508   H587    1.084   .     S
C509   H535    1.083   .     S
C510   H534    1.083   .     S
C511   C513    1.406   .     A
C511   H532    1.075   .     S
C512   C515    1.406   .     A
C512   H531    1.075   .     S
C513   C518    1.429   .     A
C513   C516    1.418   .     A
C514   O544    1.286   .     A
C514   C525    1.425   .     S
C514   O546    1.289   .     A
C515   C519    1.429   .     A
C515   C517    1.418   .     A
C516   C72     1.389   1_556 S
C518   C521    1.417   .     A
C518   C69     1.426   1_556 S
C519   C520    1.417   .     A
C520   H538    1.075   .     S
C520   C522    1.387   .     A
C521   H539    1.076   .     S
C521   C523    1.387   .     A
C523   H533    1.084   .     S
C523   C67     1.390   1_556 S
C524   Br651   1.941   .     S
C524   C675    1.347   .     S
C525   C824    1.347   1_545 S
C525   Br802   1.941   1_545 S
C526   O547    1.301   .     A
C526   O549    1.295   .     A
Cu527  O550    1.921   .     S
Cu527  N542    2.018   .     S
Cu527  O546    1.961   .     S
Cu527  O543    1.969   .     S
Cu527  O547    1.943   .     S
Cu527  Cu528   2.686   .     S
Cu528  O545    1.961   .     S
Cu528  N541    2.018   .     S
Cu528  O549    1.921   .     S
Cu528  O548    1.943   .     S
Cu528  O544    1.969   .     S
H529   C572    1.085   .     S
H530   N592    1.029   .     S
H536   C557    1.084   .     S
N541   H590    1.029   .     S
N541   N592    1.284   .     S
Br551  C874    1.941   1_545 S
Br552  C725    1.941   .     S
C553   O595    1.289   .     A
C553   O593    1.286   .     A
C553   C574    1.425   .     S
C554   C556    1.467   .     S
C554   O598    1.301   .     A
C554   O600    1.294   .     A
C555   C559    1.398   .     A
C555   C561    1.401   .     A
C555   C576    1.469   .     S
C556   C560    1.398   .     A
C556   C562    1.399   .     A
C557   C559    1.393   .     A
C557   C566    1.405   .     A
C558   C560    1.393   .     A
C558   C567    1.405   .     A
C558   H487    1.084   1_655 S
C559   H585    1.083   .     S
C560   H584    1.083   .     S
C561   C563    1.406   .     A
C561   H582    1.075   .     S
C562   C565    1.406   .     A
C562   H581    1.075   .     S
C563   C568    1.429   .     A
C563   C566    1.418   .     A
C564   O594    1.286   .     A
C564   C575    1.425   .     S
C564   O596    1.289   .     A
C565   C569    1.429   .     A
C565   C567    1.418   .     A
C566   C122    1.389   1_556 S
C568   C571    1.417   .     A
C568   C119    1.426   1_556 S
C569   C570    1.417   .     A
C570   H588    1.075   .     S
C570   C572    1.387   .     A
C571   H589    1.076   .     S
C571   C573    1.387   .     A
C573   H583    1.084   .     S
C573   C117    1.390   1_556 S
C574   Br701   1.941   .     S
C574   C725    1.347   .     S
C575   C874    1.347   1_545 S
C575   Br852   1.941   1_545 S
C576   O597    1.301   .     A
C576   O599    1.295   .     A
Cu577  O600    1.921   .     S
Cu577  N592    2.018   .     S
Cu577  O596    1.961   .     S
Cu577  O593    1.969   .     S
Cu577  O597    1.943   .     S
Cu577  Cu578   2.686   .     S
Cu578  O595    1.961   .     S
Cu578  N591    2.018   .     S
Cu578  O599    1.921   .     S
Cu578  O598    1.943   .     S
Cu578  O594    1.969   .     S
H579   C472    1.085   1_655 S
H580   N492    1.029   1_655 S
H586   C457    1.084   1_655 S
N591   H490    1.029   1_655 S
N591   N492    1.284   1_655 S
Br602  C775    1.941   .     S
C603   O645    1.289   .     A
C603   O643    1.286   .     A
C603   C624    1.425   .     S
C604   C606    1.467   .     S
C604   O648    1.301   .     A
C604   O650    1.294   .     A
C605   C609    1.398   .     A
C605   C611    1.401   .     A
C605   C626    1.469   .     S
C606   C610    1.398   .     A
C606   C612    1.399   .     A
C607   C609    1.393   .     A
C607   C616    1.405   .     A
C607   H736    1.084   1_455 S
C608   C610    1.393   .     A
C608   C617    1.405   .     A
C608   H687    1.084   .     S
C609   H635    1.083   .     S
C610   H634    1.083   .     S
C611   C613    1.406   .     A
C611   H632    1.075   .     S
C612   C615    1.406   .     A
C612   H631    1.075   .     S
C613   C618    1.429   .     A
C613   C616    1.418   .     A
C614   O644    1.286   .     A
C614   C625    1.425   .     S
C614   O646    1.289   .     A
C615   C619    1.429   .     A
C615   C617    1.418   .     A
C616   C172    1.389   1_556 S
C618   C621    1.417   .     A
C618   C169    1.426   1_556 S
C619   C620    1.417   .     A
C620   H638    1.075   .     S
C620   C622    1.387   .     A
C621   H639    1.076   .     S
C621   C623    1.387   .     A
C622   H729    1.085   1_455 S
C623   H633    1.084   .     S
C623   C167    1.390   1_556 S
C624   Br751   1.941   .     S
C624   C775    1.347   .     S
C626   O647    1.301   .     A
C626   O649    1.295   .     A
Cu627  O650    1.921   .     S
Cu627  N642    2.018   .     S
Cu627  O646    1.961   .     S
Cu627  O643    1.969   .     S
Cu627  O647    1.943   .     S
Cu627  Cu628   2.686   .     S
Cu628  O645    1.961   .     S
Cu628  N641    2.018   .     S
Cu628  O649    1.921   .     S
Cu628  O648    1.943   .     S
Cu628  O644    1.969   .     S
H629   C672    1.085   .     S
H630   N692    1.029   .     S
H636   C657    1.084   .     S
H637   C708    1.084   1_455 S
H640   N741    1.029   1_455 S
N641   H690    1.029   .     S
N641   N692    1.284   .     S
N642   H730    1.029   1_455 S
N642   N741    1.284   1_455 S
Br652  C825    1.941   .     S
C653   O695    1.289   .     A
C653   O693    1.286   .     A
C653   C674    1.425   .     S
C654   C656    1.467   .     S
C654   O698    1.301   .     A
C654   O700    1.294   .     A
C655   C659    1.398   .     A
C655   C661    1.401   .     A
C655   C676    1.469   .     S
C656   C660    1.398   .     A
C656   C662    1.399   .     A
C657   C659    1.393   .     A
C657   C666    1.405   .     A
C658   C660    1.393   .     A
C658   C667    1.405   .     A
C658   H737    1.084   .     S
C659   H685    1.083   .     S
C660   H684    1.083   .     S
C661   C663    1.406   .     A
C661   H682    1.075   .     S
C662   C665    1.406   .     A
C662   H681    1.075   .     S
C663   C668    1.429   .     A
C663   C666    1.418   .     A
C664   O694    1.286   .     A
C664   C675    1.425   .     S
C664   O696    1.289   .     A
C665   C669    1.429   .     A
C665   C667    1.418   .     A
C666   C222    1.389   1_556 S
C668   C671    1.417   .     A
C668   C219    1.426   1_556 S
C669   C670    1.417   .     A
C670   H688    1.075   .     S
C670   C672    1.387   .     A
C671   H689    1.076   .     S
C671   C673    1.387   .     A
C673   H683    1.084   .     S
C673   C217    1.390   1_556 S
C674   Br801   1.941   .     S
C674   C825    1.347   .     S
C676   O697    1.301   .     A
C676   O699    1.295   .     A
Cu677  O700    1.921   .     S
Cu677  N692    2.018   .     S
Cu677  O696    1.961   .     S
Cu677  O693    1.969   .     S
Cu677  O697    1.943   .     S
Cu677  Cu678   2.686   .     S
Cu678  O695    1.961   .     S
Cu678  N691    2.018   .     S
Cu678  O699    1.921   .     S
Cu678  O698    1.943   .     S
Cu678  O694    1.969   .     S
H679   C722    1.085   .     S
H680   N742    1.029   .     S
H686   C707    1.084   .     S
N691   H740    1.029   .     S
N691   N742    1.284   .     S
Br702  C875    1.941   .     S
C703   O745    1.289   .     A
C703   O743    1.286   .     A
C703   C724    1.425   .     S
C704   C706    1.467   .     S
C704   O748    1.301   .     A
C704   O750    1.294   .     A
C705   C709    1.398   .     A
C705   C711    1.401   .     A
C705   C726    1.469   .     S
C706   C710    1.398   .     A
C706   C712    1.399   .     A
C707   C709    1.393   .     A
C707   C716    1.405   .     A
C708   C710    1.393   .     A
C708   C717    1.405   .     A
C708   H637    1.084   1_655 S
C709   H735    1.083   .     S
C710   H734    1.083   .     S
C711   C713    1.406   .     A
C711   H732    1.075   .     S
C712   C715    1.406   .     A
C712   H731    1.075   .     S
C713   C718    1.429   .     A
C713   C716    1.418   .     A
C714   O744    1.286   .     A
C714   C725    1.425   .     S
C714   O746    1.289   .     A
C715   C719    1.429   .     A
C715   C717    1.418   .     A
C716   C272    1.389   1_556 S
C718   C721    1.417   .     A
C718   C269    1.426   1_556 S
C719   C720    1.417   .     A
C720   H738    1.075   .     S
C720   C722    1.387   .     A
C721   H739    1.076   .     S
C721   C723    1.387   .     A
C723   H733    1.084   .     S
C723   C267    1.390   1_556 S
C724   Br851   1.941   .     S
C724   C875    1.347   .     S
C726   O747    1.301   .     A
C726   O749    1.295   .     A
Cu727  O750    1.921   .     S
Cu727  N742    2.018   .     S
Cu727  O746    1.961   .     S
Cu727  O743    1.969   .     S
Cu727  O747    1.943   .     S
Cu727  Cu728   2.686   .     S
Cu728  O745    1.961   .     S
Cu728  N741    2.018   .     S
Cu728  O749    1.921   .     S
Cu728  O748    1.943   .     S
Cu728  O744    1.969   .     S
H729   C622    1.085   1_655 S
H730   N642    1.029   1_655 S
H736   C607    1.084   1_655 S
N741   H640    1.029   1_655 S
N741   N642    1.284   1_655 S
Br752  C475    1.941   1_565 S
C753   O795    1.289   .     A
C753   O793    1.286   .     A
C753   C774    1.425   .     S
C754   C756    1.467   .     S
C754   O798    1.301   .     A
C754   O800    1.294   .     A
C755   C759    1.398   .     A
C755   C761    1.401   .     A
C755   C776    1.469   .     S
C756   C760    1.398   .     A
C756   C762    1.399   .     A
C757   C759    1.393   .     A
C757   C766    1.405   .     A
C757   H886    1.084   1_455 S
C758   C760    1.393   .     A
C758   C767    1.405   .     A
C758   H837    1.084   .     S
C759   H785    1.083   .     S
C760   H784    1.083   .     S
C761   C763    1.406   .     A
C761   H782    1.075   .     S
C762   C765    1.406   .     A
C762   H781    1.075   .     S
C763   C768    1.429   .     A
C763   C766    1.418   .     A
C764   O794    1.286   .     A
C764   C775    1.425   .     S
C764   O796    1.289   .     A
C765   C769    1.429   .     A
C765   C767    1.418   .     A
C766   C322    1.389   1_556 S
C768   C771    1.417   .     A
C768   C319    1.426   1_556 S
C769   C770    1.417   .     A
C770   H788    1.075   .     S
C770   C772    1.387   .     A
C771   H789    1.076   .     S
C771   C773    1.387   .     A
C772   H879    1.085   1_455 S
C773   H783    1.084   .     S
C773   C317    1.390   1_556 S
C774   Br451   1.941   1_565 S
C774   C475    1.347   1_565 S
C776   O797    1.301   .     A
C776   O799    1.295   .     A
Cu777  O800    1.921   .     S
Cu777  N792    2.018   .     S
Cu777  O796    1.961   .     S
Cu777  O793    1.969   .     S
Cu777  O797    1.943   .     S
Cu777  Cu778   2.686   .     S
Cu778  O795    1.961   .     S
Cu778  N791    2.018   .     S
Cu778  O799    1.921   .     S
Cu778  O798    1.943   .     S
Cu778  O794    1.969   .     S
H779   C822    1.085   .     S
H780   N842    1.029   .     S
H786   C807    1.084   .     S
H787   C858    1.084   1_455 S
H790   N891    1.029   1_455 S
N791   H840    1.029   .     S
N791   N842    1.284   .     S
N792   H880    1.029   1_455 S
N792   N891    1.284   1_455 S
Br802  C525    1.941   1_565 S
C803   O845    1.289   .     A
C803   O843    1.286   .     A
C803   C824    1.425   .     S
C804   C806    1.467   .     S
C804   O848    1.301   .     A
C804   O850    1.294   .     A
C805   C809    1.398   .     A
C805   C811    1.401   .     A
C805   C826    1.469   .     S
C806   C810    1.398   .     A
C806   C812    1.399   .     A
C807   C809    1.393   .     A
C807   C816    1.405   .     A
C808   C810    1.393   .     A
C808   C817    1.405   .     A
C808   H887    1.084   .     S
C809   H835    1.083   .     S
C810   H834    1.083   .     S
C811   C813    1.406   .     A
C811   H832    1.075   .     S
C812   C815    1.406   .     A
C812   H831    1.075   .     S
C813   C818    1.429   .     A
C813   C816    1.418   .     A
C814   O844    1.286   .     A
C814   C825    1.425   .     S
C814   O846    1.289   .     A
C815   C819    1.429   .     A
C815   C817    1.418   .     A
C816   C372    1.389   1_556 S
C818   C821    1.417   .     A
C818   C369    1.426   1_556 S
C819   C820    1.417   .     A
C820   H838    1.075   .     S
C820   C822    1.387   .     A
C821   H839    1.076   .     S
C821   C823    1.387   .     A
C823   H833    1.084   .     S
C823   C367    1.390   1_556 S
C824   Br501   1.941   1_565 S
C824   C525    1.347   1_565 S
C826   O847    1.301   .     A
C826   O849    1.295   .     A
Cu827  O850    1.921   .     S
Cu827  N842    2.018   .     S
Cu827  O846    1.961   .     S
Cu827  O843    1.969   .     S
Cu827  O847    1.943   .     S
Cu827  Cu828   2.686   .     S
Cu828  O845    1.961   .     S
Cu828  N841    2.018   .     S
Cu828  O849    1.921   .     S
Cu828  O848    1.943   .     S
Cu828  O844    1.969   .     S
H829   C872    1.085   .     S
H830   N892    1.029   .     S
H836   C857    1.084   .     S
N841   H890    1.029   .     S
N841   N892    1.284   .     S
Br852  C575    1.941   1_565 S
C853   O895    1.289   .     A
C853   O893    1.286   .     A
C853   C874    1.425   .     S
C854   C856    1.467   .     S
C854   O898    1.301   .     A
C854   O900    1.294   .     A
C855   C859    1.398   .     A
C855   C861    1.401   .     A
C855   C876    1.469   .     S
C856   C860    1.398   .     A
C856   C862    1.399   .     A
C857   C859    1.393   .     A
C857   C866    1.405   .     A
C858   C860    1.393   .     A
C858   C867    1.405   .     A
C858   H787    1.084   1_655 S
C859   H885    1.083   .     S
C860   H884    1.083   .     S
C861   C863    1.406   .     A
C861   H882    1.075   .     S
C862   C865    1.406   .     A
C862   H881    1.075   .     S
C863   C868    1.429   .     A
C863   C866    1.418   .     A
C864   O894    1.286   .     A
C864   C875    1.425   .     S
C864   O896    1.289   .     A
C865   C869    1.429   .     A
C865   C867    1.418   .     A
C866   C422    1.389   1_556 S
C868   C871    1.417   .     A
C868   C419    1.426   1_556 S
C869   C870    1.417   .     A
C870   H888    1.075   .     S
C870   C872    1.387   .     A
C871   H889    1.076   .     S
C871   C873    1.387   .     A
C873   H883    1.084   .     S
C873   C417    1.390   1_556 S
C874   Br551   1.941   1_565 S
C874   C575    1.347   1_565 S
C876   O897    1.301   .     A
C876   O899    1.295   .     A
Cu877  O900    1.921   .     S
Cu877  N892    2.018   .     S
Cu877  O896    1.961   .     S
Cu877  O893    1.969   .     S
Cu877  O897    1.943   .     S
Cu877  Cu878   2.686   .     S
Cu878  O895    1.961   .     S
Cu878  N891    2.018   .     S
Cu878  O899    1.921   .     S
Cu878  O898    1.943   .     S
Cu878  O894    1.969   .     S
H879   C772    1.085   1_655 S
H880   N792    1.029   1_655 S
H886   C757    1.084   1_655 S
N891   H790    1.029   1_655 S
N891   N792    1.284   1_655 S
