data_str_m2_o1_o5_pcu_sym.29
_audit_creation_date              2020-01-03
_audit_creation_method            'Materials Studio'
_symmetry_space_group_name_H-M    'P1'
_symmetry_Int_Tables_number       1
_symmetry_cell_setting            triclinic
loop_
_symmetry_equiv_pos_as_xyz
  x,y,z
_cell_length_a                    32.7448
_cell_length_b                    29.0849
_cell_length_c                    27.1907
_cell_angle_alpha                 90.6150
_cell_angle_beta                  95.3859
_cell_angle_gamma                 91.5381
loop_
_atom_site_label
_atom_site_type_symbol
_atom_site_fract_x
_atom_site_fract_y
_atom_site_fract_z
_atom_site_U_iso_or_equiv
_atom_site_adp_type
_atom_site_occupancy
O1     O     0.10655   0.20625   0.16666   0.00000  Uiso   1.00
O2     O     0.22679   0.12709   0.16667   0.00000  Uiso   1.00
O3     O     0.22679   0.20625   0.16667   0.00000  Uiso   1.00
O4     O     0.10655   0.12709   0.16666   0.00000  Uiso   1.00
C5     C     0.08756   0.16605   0.16697   0.00000  Uiso   1.00
C6     C     0.24577   0.16729   0.16637   0.00000  Uiso   1.00
O7     O     0.16667   0.20625   0.09613   0.00000  Uiso   1.00
O8     O     0.16667   0.12708   0.23720   0.00000  Uiso   1.00
O9     O     0.16667   0.20625   0.23720   0.00000  Uiso   1.00
O10    O     0.16667   0.12708   0.09613   0.00000  Uiso   1.00
C11    C     0.16645   0.16651   0.07370   0.00000  Uiso   1.00
C12    C     0.16688   0.16682   0.25964   0.00000  Uiso   1.00
Cu13   Cu    0.16667   0.21355   0.16667   0.00000  Uiso   1.00
Cu14   Cu    0.16667   0.11978   0.16667   0.00000  Uiso   1.00
C15    C     0.16659   0.16646   0.02188   0.00000  Uiso   1.00
C16    C     0.16675   0.16687   0.31145   0.00000  Uiso   1.00
C17    C     0.01811   0.12995   0.14369   0.00000  Uiso   1.00
C18    C     0.31523   0.20338   0.18965   0.00000  Uiso   1.00
C19    C     0.30875   0.13208   0.14093   0.00000  Uiso   1.00
C20    C     0.02458   0.20126   0.19240   0.00000  Uiso   1.00
C21    C     0.29042   0.16833   0.16478   0.00000  Uiso   1.00
C22    C     0.04292   0.16500   0.16856   0.00000  Uiso   1.00
C23    C     0.14323   0.02366   0.13086   0.00000  Uiso   1.00
C24    C     0.19011   0.30968   0.20247   0.00000  Uiso   1.00
C25    C     0.19118   0.02574   0.20156   0.00000  Uiso   1.00
C26    C     0.14215   0.30759   0.13177   0.00000  Uiso   1.00
N27    N     0.16667   0.28402   0.16667   0.00000  Uiso   1.00
N28    N     0.16667   0.04931   0.16667   0.00000  Uiso   1.00
N29    N     0.03574   0.09265   0.11932   0.00000  Uiso   1.00
O30    O     0.04511   0.05590   0.14434   0.00000  Uiso   1.00
O31    O     0.03154   0.09027   0.07127   0.00000  Uiso   1.00
N32    N     0.29759   0.24068   0.21402   0.00000  Uiso   1.00
O33    O     0.28821   0.27744   0.18899   0.00000  Uiso   1.00
O34    O     0.30179   0.24307   0.26207   0.00000  Uiso   1.00
N35    N     0.28417   0.09805   0.11201   0.00000  Uiso   1.00
O36    O     0.25940   0.11045   0.07455   0.00000  Uiso   1.00
O37    O     0.28718   0.05462   0.12231   0.00000  Uiso   1.00
N38    N     0.04916   0.23528   0.22132   0.00000  Uiso   1.00
O39    O     0.07393   0.22288   0.25878   0.00000  Uiso   1.00
O40    O     0.04615   0.27872   0.21103   0.00000  Uiso   1.00
C41    C     0.12143   0.04737   0.08699   0.00000  Uiso   1.00
H42    H     0.10981   0.08055   0.09736   0.00000  Uiso   1.00
H43    H     0.14266   0.05157   0.05775   0.00000  Uiso   1.00
H44    H     0.09351   0.02904   0.07024   0.00000  Uiso   1.00
C45    C     0.21191   0.28596   0.24635   0.00000  Uiso   1.00
H46    H     0.22352   0.25278   0.23598   0.00000  Uiso   1.00
H47    H     0.23983   0.30430   0.26309   0.00000  Uiso   1.00
H48    H     0.19067   0.28176   0.27559   0.00000  Uiso   1.00
C49    C     0.22132   0.05071   0.23917   0.00000  Uiso   1.00
H50    H     0.22396   0.08778   0.23657   0.00000  Uiso   1.00
H51    H     0.21323   0.04340   0.27714   0.00000  Uiso   1.00
H52    H     0.25286   0.03933   0.23464   0.00000  Uiso   1.00
C53    C     0.11202   0.28262   0.09416   0.00000  Uiso   1.00
H54    H     0.10937   0.24556   0.09676   0.00000  Uiso   1.00
H55    H     0.08047   0.29401   0.09869   0.00000  Uiso   1.00
H56    H     0.12010   0.28993   0.05620   0.00000  Uiso   1.00
O57    O     0.43988   0.20625   0.16666   0.00000  Uiso   1.00
O58    O     0.56012   0.12709   0.16667   0.00000  Uiso   1.00
O59    O     0.56012   0.20625   0.16667   0.00000  Uiso   1.00
O60    O     0.43988   0.12709   0.16666   0.00000  Uiso   1.00
C61    C     0.42089   0.16605   0.16697   0.00000  Uiso   1.00
C62    C     0.57911   0.16729   0.16637   0.00000  Uiso   1.00
O63    O     0.50000   0.20625   0.09613   0.00000  Uiso   1.00
O64    O     0.50000   0.12708   0.23720   0.00000  Uiso   1.00
O65    O     0.50000   0.20625   0.23720   0.00000  Uiso   1.00
O66    O     0.50000   0.12708   0.09613   0.00000  Uiso   1.00
C67    C     0.49979   0.16651   0.07370   0.00000  Uiso   1.00
C68    C     0.50021   0.16682   0.25964   0.00000  Uiso   1.00
Cu69   Cu    0.50000   0.21355   0.16667   0.00000  Uiso   1.00
Cu70   Cu    0.50000   0.11978   0.16667   0.00000  Uiso   1.00
C71    C     0.49992   0.16646   0.02188   0.00000  Uiso   1.00
C72    C     0.50008   0.16687   0.31145   0.00000  Uiso   1.00
C73    C     0.35144   0.12995   0.14369   0.00000  Uiso   1.00
C74    C     0.64856   0.20338   0.18965   0.00000  Uiso   1.00
C75    C     0.64208   0.13208   0.14093   0.00000  Uiso   1.00
C76    C     0.35792   0.20126   0.19240   0.00000  Uiso   1.00
C77    C     0.62375   0.16833   0.16478   0.00000  Uiso   1.00
C78    C     0.37625   0.16500   0.16856   0.00000  Uiso   1.00
C79    C     0.47656   0.02366   0.13086   0.00000  Uiso   1.00
C80    C     0.52344   0.30968   0.20247   0.00000  Uiso   1.00
C81    C     0.52451   0.02574   0.20156   0.00000  Uiso   1.00
C82    C     0.47549   0.30759   0.13177   0.00000  Uiso   1.00
N83    N     0.50000   0.28402   0.16667   0.00000  Uiso   1.00
N84    N     0.50000   0.04931   0.16667   0.00000  Uiso   1.00
N85    N     0.36907   0.09265   0.11932   0.00000  Uiso   1.00
O86    O     0.37845   0.05590   0.14434   0.00000  Uiso   1.00
O87    O     0.36488   0.09027   0.07127   0.00000  Uiso   1.00
N88    N     0.63093   0.24068   0.21402   0.00000  Uiso   1.00
O89    O     0.62155   0.27744   0.18899   0.00000  Uiso   1.00
O90    O     0.63513   0.24307   0.26207   0.00000  Uiso   1.00
N91    N     0.61750   0.09805   0.11201   0.00000  Uiso   1.00
O92    O     0.59274   0.11045   0.07455   0.00000  Uiso   1.00
O93    O     0.62051   0.05462   0.12231   0.00000  Uiso   1.00
N94    N     0.38250   0.23528   0.22132   0.00000  Uiso   1.00
O95    O     0.40726   0.22288   0.25878   0.00000  Uiso   1.00
O96    O     0.37948   0.27872   0.21103   0.00000  Uiso   1.00
C97    C     0.45476   0.04737   0.08699   0.00000  Uiso   1.00
H98    H     0.44314   0.08055   0.09736   0.00000  Uiso   1.00
H99    H     0.47600   0.05157   0.05775   0.00000  Uiso   1.00
H100   H     0.42684   0.02904   0.07024   0.00000  Uiso   1.00
C101   C     0.54524   0.28596   0.24635   0.00000  Uiso   1.00
H102   H     0.55686   0.25278   0.23598   0.00000  Uiso   1.00
H103   H     0.57316   0.30430   0.26309   0.00000  Uiso   1.00
H104   H     0.52400   0.28176   0.27559   0.00000  Uiso   1.00
C105   C     0.55465   0.05071   0.23917   0.00000  Uiso   1.00
H106   H     0.55730   0.08778   0.23657   0.00000  Uiso   1.00
H107   H     0.54657   0.04340   0.27714   0.00000  Uiso   1.00
H108   H     0.58619   0.03933   0.23464   0.00000  Uiso   1.00
C109   C     0.44535   0.28262   0.09416   0.00000  Uiso   1.00
H110   H     0.44270   0.24556   0.09676   0.00000  Uiso   1.00
H111   H     0.41381   0.29401   0.09869   0.00000  Uiso   1.00
H112   H     0.45343   0.28993   0.05620   0.00000  Uiso   1.00
O113   O     0.77321   0.20625   0.16666   0.00000  Uiso   1.00
O114   O     0.89345   0.12709   0.16667   0.00000  Uiso   1.00
O115   O     0.89345   0.20625   0.16667   0.00000  Uiso   1.00
O116   O     0.77321   0.12709   0.16666   0.00000  Uiso   1.00
C117   C     0.75423   0.16605   0.16697   0.00000  Uiso   1.00
C118   C     0.91244   0.16729   0.16637   0.00000  Uiso   1.00
O119   O     0.83333   0.20625   0.09613   0.00000  Uiso   1.00
O120   O     0.83333   0.12708   0.23720   0.00000  Uiso   1.00
O121   O     0.83333   0.20625   0.23720   0.00000  Uiso   1.00
O122   O     0.83333   0.12708   0.09613   0.00000  Uiso   1.00
C123   C     0.83312   0.16651   0.07370   0.00000  Uiso   1.00
C124   C     0.83355   0.16682   0.25964   0.00000  Uiso   1.00
Cu125  Cu    0.83333   0.21355   0.16667   0.00000  Uiso   1.00
Cu126  Cu    0.83333   0.11978   0.16667   0.00000  Uiso   1.00
C127   C     0.83325   0.16646   0.02188   0.00000  Uiso   1.00
C128   C     0.83341   0.16687   0.31145   0.00000  Uiso   1.00
C129   C     0.68477   0.12995   0.14369   0.00000  Uiso   1.00
C130   C     0.98189   0.20338   0.18965   0.00000  Uiso   1.00
C131   C     0.97542   0.13208   0.14093   0.00000  Uiso   1.00
C132   C     0.69125   0.20126   0.19240   0.00000  Uiso   1.00
C133   C     0.95708   0.16833   0.16478   0.00000  Uiso   1.00
C134   C     0.70958   0.16500   0.16856   0.00000  Uiso   1.00
C135   C     0.80989   0.02366   0.13086   0.00000  Uiso   1.00
C136   C     0.85677   0.30968   0.20247   0.00000  Uiso   1.00
C137   C     0.85785   0.02574   0.20156   0.00000  Uiso   1.00
C138   C     0.80882   0.30759   0.13177   0.00000  Uiso   1.00
N139   N     0.83333   0.28402   0.16667   0.00000  Uiso   1.00
N140   N     0.83333   0.04931   0.16667   0.00000  Uiso   1.00
N141   N     0.70241   0.09265   0.11932   0.00000  Uiso   1.00
O142   O     0.71178   0.05590   0.14434   0.00000  Uiso   1.00
O143   O     0.69821   0.09027   0.07127   0.00000  Uiso   1.00
N144   N     0.96426   0.24068   0.21402   0.00000  Uiso   1.00
O145   O     0.95488   0.27744   0.18899   0.00000  Uiso   1.00
O146   O     0.96846   0.24307   0.26207   0.00000  Uiso   1.00
N147   N     0.95084   0.09805   0.11201   0.00000  Uiso   1.00
O148   O     0.92607   0.11045   0.07455   0.00000  Uiso   1.00
O149   O     0.95385   0.05462   0.12231   0.00000  Uiso   1.00
N150   N     0.71583   0.23528   0.22132   0.00000  Uiso   1.00
O151   O     0.74060   0.22288   0.25878   0.00000  Uiso   1.00
O152   O     0.71282   0.27872   0.21103   0.00000  Uiso   1.00
C153   C     0.78809   0.04737   0.08699   0.00000  Uiso   1.00
H154   H     0.77647   0.08055   0.09736   0.00000  Uiso   1.00
H155   H     0.80933   0.05157   0.05775   0.00000  Uiso   1.00
H156   H     0.76017   0.02904   0.07024   0.00000  Uiso   1.00
C157   C     0.87857   0.28596   0.24635   0.00000  Uiso   1.00
H158   H     0.89019   0.25278   0.23598   0.00000  Uiso   1.00
H159   H     0.90650   0.30430   0.26309   0.00000  Uiso   1.00
H160   H     0.85734   0.28176   0.27559   0.00000  Uiso   1.00
C161   C     0.88798   0.05071   0.23917   0.00000  Uiso   1.00
H162   H     0.89063   0.08778   0.23657   0.00000  Uiso   1.00
H163   H     0.87990   0.04340   0.27714   0.00000  Uiso   1.00
H164   H     0.91953   0.03933   0.23464   0.00000  Uiso   1.00
C165   C     0.77868   0.28262   0.09416   0.00000  Uiso   1.00
H166   H     0.77604   0.24556   0.09676   0.00000  Uiso   1.00
H167   H     0.74714   0.29401   0.09869   0.00000  Uiso   1.00
H168   H     0.78677   0.28993   0.05620   0.00000  Uiso   1.00
O169   O     0.10655   0.53958   0.16666   0.00000  Uiso   1.00
O170   O     0.22679   0.46042   0.16667   0.00000  Uiso   1.00
O171   O     0.22679   0.53958   0.16667   0.00000  Uiso   1.00
O172   O     0.10655   0.46042   0.16666   0.00000  Uiso   1.00
C173   C     0.08756   0.49938   0.16697   0.00000  Uiso   1.00
C174   C     0.24577   0.50062   0.16637   0.00000  Uiso   1.00
O175   O     0.16667   0.53959   0.09613   0.00000  Uiso   1.00
O176   O     0.16667   0.46041   0.23720   0.00000  Uiso   1.00
O177   O     0.16667   0.53959   0.23720   0.00000  Uiso   1.00
O178   O     0.16667   0.46041   0.09613   0.00000  Uiso   1.00
C179   C     0.16645   0.49984   0.07370   0.00000  Uiso   1.00
C180   C     0.16688   0.50016   0.25964   0.00000  Uiso   1.00
Cu181  Cu    0.16667   0.54689   0.16667   0.00000  Uiso   1.00
Cu182  Cu    0.16667   0.45311   0.16667   0.00000  Uiso   1.00
C183   C     0.16659   0.49979   0.02188   0.00000  Uiso   1.00
C184   C     0.16675   0.50021   0.31145   0.00000  Uiso   1.00
C185   C     0.01811   0.46328   0.14369   0.00000  Uiso   1.00
C186   C     0.31523   0.53672   0.18965   0.00000  Uiso   1.00
C187   C     0.30875   0.46541   0.14093   0.00000  Uiso   1.00
C188   C     0.02458   0.53459   0.19240   0.00000  Uiso   1.00
C189   C     0.29042   0.50166   0.16478   0.00000  Uiso   1.00
C190   C     0.04292   0.49834   0.16856   0.00000  Uiso   1.00
C191   C     0.14323   0.35699   0.13086   0.00000  Uiso   1.00
C192   C     0.19011   0.64301   0.20247   0.00000  Uiso   1.00
C193   C     0.19118   0.35907   0.20156   0.00000  Uiso   1.00
C194   C     0.14215   0.64092   0.13177   0.00000  Uiso   1.00
N195   N     0.16667   0.61736   0.16667   0.00000  Uiso   1.00
N196   N     0.16667   0.38264   0.16667   0.00000  Uiso   1.00
N197   N     0.03574   0.42599   0.11932   0.00000  Uiso   1.00
O198   O     0.04511   0.38923   0.14434   0.00000  Uiso   1.00
O199   O     0.03154   0.42360   0.07127   0.00000  Uiso   1.00
N200   N     0.29759   0.57401   0.21402   0.00000  Uiso   1.00
O201   O     0.28821   0.61077   0.18899   0.00000  Uiso   1.00
O202   O     0.30179   0.57640   0.26207   0.00000  Uiso   1.00
N203   N     0.28417   0.43139   0.11201   0.00000  Uiso   1.00
O204   O     0.25940   0.44379   0.07455   0.00000  Uiso   1.00
O205   O     0.28718   0.38795   0.12231   0.00000  Uiso   1.00
N206   N     0.04916   0.56861   0.22132   0.00000  Uiso   1.00
O207   O     0.07393   0.55621   0.25878   0.00000  Uiso   1.00
O208   O     0.04615   0.61205   0.21103   0.00000  Uiso   1.00
C209   C     0.12143   0.38070   0.08699   0.00000  Uiso   1.00
H210   H     0.10981   0.41389   0.09736   0.00000  Uiso   1.00
H211   H     0.14266   0.38491   0.05775   0.00000  Uiso   1.00
H212   H     0.09351   0.36237   0.07024   0.00000  Uiso   1.00
C213   C     0.21191   0.61930   0.24635   0.00000  Uiso   1.00
H214   H     0.22352   0.58611   0.23598   0.00000  Uiso   1.00
H215   H     0.23983   0.63763   0.26309   0.00000  Uiso   1.00
H216   H     0.19067   0.61509   0.27559   0.00000  Uiso   1.00
C217   C     0.22132   0.38404   0.23917   0.00000  Uiso   1.00
H218   H     0.22396   0.42111   0.23657   0.00000  Uiso   1.00
H219   H     0.21323   0.37673   0.27714   0.00000  Uiso   1.00
H220   H     0.25286   0.37266   0.23464   0.00000  Uiso   1.00
C221   C     0.11202   0.61596   0.09416   0.00000  Uiso   1.00
H222   H     0.10937   0.57889   0.09676   0.00000  Uiso   1.00
H223   H     0.08047   0.62734   0.09869   0.00000  Uiso   1.00
H224   H     0.12010   0.62327   0.05620   0.00000  Uiso   1.00
O225   O     0.43988   0.53958   0.16666   0.00000  Uiso   1.00
O226   O     0.56012   0.46042   0.16667   0.00000  Uiso   1.00
O227   O     0.56012   0.53958   0.16667   0.00000  Uiso   1.00
O228   O     0.43988   0.46042   0.16666   0.00000  Uiso   1.00
C229   C     0.42089   0.49938   0.16697   0.00000  Uiso   1.00
C230   C     0.57911   0.50062   0.16637   0.00000  Uiso   1.00
O231   O     0.50000   0.53959   0.09613   0.00000  Uiso   1.00
O232   O     0.50000   0.46041   0.23720   0.00000  Uiso   1.00
O233   O     0.50000   0.53959   0.23720   0.00000  Uiso   1.00
O234   O     0.50000   0.46041   0.09613   0.00000  Uiso   1.00
C235   C     0.49979   0.49984   0.07370   0.00000  Uiso   1.00
C236   C     0.50021   0.50016   0.25964   0.00000  Uiso   1.00
Cu237  Cu    0.50000   0.54689   0.16667   0.00000  Uiso   1.00
Cu238  Cu    0.50000   0.45311   0.16667   0.00000  Uiso   1.00
C239   C     0.49992   0.49979   0.02188   0.00000  Uiso   1.00
C240   C     0.50008   0.50021   0.31145   0.00000  Uiso   1.00
C241   C     0.35144   0.46328   0.14369   0.00000  Uiso   1.00
C242   C     0.64856   0.53672   0.18965   0.00000  Uiso   1.00
C243   C     0.64208   0.46541   0.14093   0.00000  Uiso   1.00
C244   C     0.35792   0.53459   0.19240   0.00000  Uiso   1.00
C245   C     0.62375   0.50166   0.16478   0.00000  Uiso   1.00
C246   C     0.37625   0.49834   0.16856   0.00000  Uiso   1.00
C247   C     0.47656   0.35699   0.13086   0.00000  Uiso   1.00
C248   C     0.52344   0.64301   0.20247   0.00000  Uiso   1.00
C249   C     0.52451   0.35907   0.20156   0.00000  Uiso   1.00
C250   C     0.47549   0.64092   0.13177   0.00000  Uiso   1.00
N251   N     0.50000   0.61736   0.16667   0.00000  Uiso   1.00
N252   N     0.50000   0.38264   0.16667   0.00000  Uiso   1.00
N253   N     0.36907   0.42599   0.11932   0.00000  Uiso   1.00
O254   O     0.37845   0.38923   0.14434   0.00000  Uiso   1.00
O255   O     0.36488   0.42360   0.07127   0.00000  Uiso   1.00
N256   N     0.63093   0.57401   0.21402   0.00000  Uiso   1.00
O257   O     0.62155   0.61077   0.18899   0.00000  Uiso   1.00
O258   O     0.63513   0.57640   0.26207   0.00000  Uiso   1.00
N259   N     0.61750   0.43139   0.11201   0.00000  Uiso   1.00
O260   O     0.59274   0.44379   0.07455   0.00000  Uiso   1.00
O261   O     0.62051   0.38795   0.12231   0.00000  Uiso   1.00
N262   N     0.38250   0.56861   0.22132   0.00000  Uiso   1.00
O263   O     0.40726   0.55621   0.25878   0.00000  Uiso   1.00
O264   O     0.37948   0.61205   0.21103   0.00000  Uiso   1.00
C265   C     0.45476   0.38070   0.08699   0.00000  Uiso   1.00
H266   H     0.44314   0.41389   0.09736   0.00000  Uiso   1.00
H267   H     0.47600   0.38491   0.05775   0.00000  Uiso   1.00
H268   H     0.42684   0.36237   0.07024   0.00000  Uiso   1.00
C269   C     0.54524   0.61930   0.24635   0.00000  Uiso   1.00
H270   H     0.55686   0.58611   0.23598   0.00000  Uiso   1.00
H271   H     0.57316   0.63763   0.26309   0.00000  Uiso   1.00
H272   H     0.52400   0.61509   0.27559   0.00000  Uiso   1.00
C273   C     0.55465   0.38404   0.23917   0.00000  Uiso   1.00
H274   H     0.55730   0.42111   0.23657   0.00000  Uiso   1.00
H275   H     0.54657   0.37673   0.27714   0.00000  Uiso   1.00
H276   H     0.58619   0.37266   0.23464   0.00000  Uiso   1.00
C277   C     0.44535   0.61596   0.09416   0.00000  Uiso   1.00
H278   H     0.44270   0.57889   0.09676   0.00000  Uiso   1.00
H279   H     0.41381   0.62734   0.09869   0.00000  Uiso   1.00
H280   H     0.45343   0.62327   0.05620   0.00000  Uiso   1.00
O281   O     0.77321   0.53958   0.16666   0.00000  Uiso   1.00
O282   O     0.89345   0.46042   0.16667   0.00000  Uiso   1.00
O283   O     0.89345   0.53958   0.16667   0.00000  Uiso   1.00
O284   O     0.77321   0.46042   0.16666   0.00000  Uiso   1.00
C285   C     0.75423   0.49938   0.16697   0.00000  Uiso   1.00
C286   C     0.91244   0.50062   0.16637   0.00000  Uiso   1.00
O287   O     0.83333   0.53959   0.09613   0.00000  Uiso   1.00
O288   O     0.83333   0.46041   0.23720   0.00000  Uiso   1.00
O289   O     0.83333   0.53959   0.23720   0.00000  Uiso   1.00
O290   O     0.83333   0.46041   0.09613   0.00000  Uiso   1.00
C291   C     0.83312   0.49984   0.07370   0.00000  Uiso   1.00
C292   C     0.83355   0.50016   0.25964   0.00000  Uiso   1.00
Cu293  Cu    0.83333   0.54689   0.16667   0.00000  Uiso   1.00
Cu294  Cu    0.83333   0.45311   0.16667   0.00000  Uiso   1.00
C295   C     0.83325   0.49979   0.02188   0.00000  Uiso   1.00
C296   C     0.83341   0.50021   0.31145   0.00000  Uiso   1.00
C297   C     0.68477   0.46328   0.14369   0.00000  Uiso   1.00
C298   C     0.98189   0.53672   0.18965   0.00000  Uiso   1.00
C299   C     0.97542   0.46541   0.14093   0.00000  Uiso   1.00
C300   C     0.69125   0.53459   0.19240   0.00000  Uiso   1.00
C301   C     0.95708   0.50166   0.16478   0.00000  Uiso   1.00
C302   C     0.70958   0.49834   0.16856   0.00000  Uiso   1.00
C303   C     0.80989   0.35699   0.13086   0.00000  Uiso   1.00
C304   C     0.85677   0.64301   0.20247   0.00000  Uiso   1.00
C305   C     0.85785   0.35907   0.20156   0.00000  Uiso   1.00
C306   C     0.80882   0.64092   0.13177   0.00000  Uiso   1.00
N307   N     0.83333   0.61736   0.16667   0.00000  Uiso   1.00
N308   N     0.83333   0.38264   0.16667   0.00000  Uiso   1.00
N309   N     0.70241   0.42599   0.11932   0.00000  Uiso   1.00
O310   O     0.71178   0.38923   0.14434   0.00000  Uiso   1.00
O311   O     0.69821   0.42360   0.07127   0.00000  Uiso   1.00
N312   N     0.96426   0.57401   0.21402   0.00000  Uiso   1.00
O313   O     0.95488   0.61077   0.18899   0.00000  Uiso   1.00
O314   O     0.96846   0.57640   0.26207   0.00000  Uiso   1.00
N315   N     0.95084   0.43139   0.11201   0.00000  Uiso   1.00
O316   O     0.92607   0.44379   0.07455   0.00000  Uiso   1.00
O317   O     0.95385   0.38795   0.12231   0.00000  Uiso   1.00
N318   N     0.71583   0.56861   0.22132   0.00000  Uiso   1.00
O319   O     0.74060   0.55621   0.25878   0.00000  Uiso   1.00
O320   O     0.71282   0.61205   0.21103   0.00000  Uiso   1.00
C321   C     0.78809   0.38070   0.08699   0.00000  Uiso   1.00
H322   H     0.77647   0.41389   0.09736   0.00000  Uiso   1.00
H323   H     0.80933   0.38491   0.05775   0.00000  Uiso   1.00
H324   H     0.76017   0.36237   0.07024   0.00000  Uiso   1.00
C325   C     0.87857   0.61930   0.24635   0.00000  Uiso   1.00
H326   H     0.89019   0.58611   0.23598   0.00000  Uiso   1.00
H327   H     0.90650   0.63763   0.26309   0.00000  Uiso   1.00
H328   H     0.85734   0.61509   0.27559   0.00000  Uiso   1.00
C329   C     0.88798   0.38404   0.23917   0.00000  Uiso   1.00
H330   H     0.89063   0.42111   0.23657   0.00000  Uiso   1.00
H331   H     0.87990   0.37673   0.27714   0.00000  Uiso   1.00
H332   H     0.91953   0.37266   0.23464   0.00000  Uiso   1.00
C333   C     0.77868   0.61596   0.09416   0.00000  Uiso   1.00
H334   H     0.77604   0.57889   0.09676   0.00000  Uiso   1.00
H335   H     0.74714   0.62734   0.09869   0.00000  Uiso   1.00
H336   H     0.78677   0.62327   0.05620   0.00000  Uiso   1.00
O337   O     0.10655   0.87291   0.16666   0.00000  Uiso   1.00
O338   O     0.22679   0.79375   0.16667   0.00000  Uiso   1.00
O339   O     0.22679   0.87291   0.16667   0.00000  Uiso   1.00
O340   O     0.10655   0.79375   0.16666   0.00000  Uiso   1.00
C341   C     0.08756   0.83271   0.16697   0.00000  Uiso   1.00
C342   C     0.24577   0.83395   0.16637   0.00000  Uiso   1.00
O343   O     0.16667   0.87292   0.09613   0.00000  Uiso   1.00
O344   O     0.16667   0.79375   0.23720   0.00000  Uiso   1.00
O345   O     0.16667   0.87292   0.23720   0.00000  Uiso   1.00
O346   O     0.16667   0.79375   0.09613   0.00000  Uiso   1.00
C347   C     0.16645   0.83318   0.07370   0.00000  Uiso   1.00
C348   C     0.16688   0.83349   0.25964   0.00000  Uiso   1.00
Cu349  Cu    0.16667   0.88022   0.16667   0.00000  Uiso   1.00
Cu350  Cu    0.16667   0.78645   0.16667   0.00000  Uiso   1.00
C351   C     0.16659   0.83312   0.02188   0.00000  Uiso   1.00
C352   C     0.16675   0.83354   0.31145   0.00000  Uiso   1.00
C353   C     0.01811   0.79661   0.14369   0.00000  Uiso   1.00
C354   C     0.31523   0.87005   0.18965   0.00000  Uiso   1.00
C355   C     0.30875   0.79874   0.14093   0.00000  Uiso   1.00
C356   C     0.02458   0.86792   0.19240   0.00000  Uiso   1.00
C357   C     0.29042   0.83500   0.16478   0.00000  Uiso   1.00
C358   C     0.04292   0.83167   0.16856   0.00000  Uiso   1.00
C359   C     0.14323   0.69032   0.13086   0.00000  Uiso   1.00
C360   C     0.19011   0.97634   0.20247   0.00000  Uiso   1.00
C361   C     0.19118   0.69241   0.20156   0.00000  Uiso   1.00
C362   C     0.14215   0.97426   0.13177   0.00000  Uiso   1.00
N363   N     0.16667   0.95069   0.16667   0.00000  Uiso   1.00
N364   N     0.16667   0.71598   0.16667   0.00000  Uiso   1.00
N365   N     0.03574   0.75932   0.11932   0.00000  Uiso   1.00
O366   O     0.04511   0.72256   0.14434   0.00000  Uiso   1.00
O367   O     0.03154   0.75694   0.07127   0.00000  Uiso   1.00
N368   N     0.29759   0.90735   0.21402   0.00000  Uiso   1.00
O369   O     0.28821   0.94410   0.18899   0.00000  Uiso   1.00
O370   O     0.30179   0.90974   0.26207   0.00000  Uiso   1.00
N371   N     0.28417   0.76472   0.11201   0.00000  Uiso   1.00
O372   O     0.25940   0.77712   0.07455   0.00000  Uiso   1.00
O373   O     0.28718   0.72128   0.12231   0.00000  Uiso   1.00
N374   N     0.04916   0.90194   0.22132   0.00000  Uiso   1.00
O375   O     0.07393   0.88954   0.25878   0.00000  Uiso   1.00
O376   O     0.04615   0.94538   0.21103   0.00000  Uiso   1.00
C377   C     0.12143   0.71404   0.08699   0.00000  Uiso   1.00
H378   H     0.10981   0.74722   0.09736   0.00000  Uiso   1.00
H379   H     0.14266   0.71824   0.05775   0.00000  Uiso   1.00
H380   H     0.09351   0.69570   0.07024   0.00000  Uiso   1.00
C381   C     0.21191   0.95263   0.24635   0.00000  Uiso   1.00
H382   H     0.22352   0.91945   0.23598   0.00000  Uiso   1.00
H383   H     0.23983   0.97096   0.26309   0.00000  Uiso   1.00
H384   H     0.19067   0.94843   0.27559   0.00000  Uiso   1.00
C385   C     0.22132   0.71738   0.23917   0.00000  Uiso   1.00
H386   H     0.22396   0.75444   0.23657   0.00000  Uiso   1.00
H387   H     0.21323   0.71007   0.27714   0.00000  Uiso   1.00
H388   H     0.25286   0.70599   0.23464   0.00000  Uiso   1.00
C389   C     0.11202   0.94929   0.09416   0.00000  Uiso   1.00
H390   H     0.10937   0.91222   0.09676   0.00000  Uiso   1.00
H391   H     0.08047   0.96067   0.09869   0.00000  Uiso   1.00
H392   H     0.12010   0.95660   0.05620   0.00000  Uiso   1.00
O393   O     0.43988   0.87291   0.16666   0.00000  Uiso   1.00
O394   O     0.56012   0.79375   0.16667   0.00000  Uiso   1.00
O395   O     0.56012   0.87291   0.16667   0.00000  Uiso   1.00
O396   O     0.43988   0.79375   0.16666   0.00000  Uiso   1.00
C397   C     0.42089   0.83271   0.16697   0.00000  Uiso   1.00
C398   C     0.57911   0.83395   0.16637   0.00000  Uiso   1.00
O399   O     0.50000   0.87292   0.09613   0.00000  Uiso   1.00
O400   O     0.50000   0.79375   0.23720   0.00000  Uiso   1.00
O401   O     0.50000   0.87292   0.23720   0.00000  Uiso   1.00
O402   O     0.50000   0.79375   0.09613   0.00000  Uiso   1.00
C403   C     0.49979   0.83318   0.07370   0.00000  Uiso   1.00
C404   C     0.50021   0.83349   0.25964   0.00000  Uiso   1.00
Cu405  Cu    0.50000   0.88022   0.16667   0.00000  Uiso   1.00
Cu406  Cu    0.50000   0.78645   0.16667   0.00000  Uiso   1.00
C407   C     0.49992   0.83312   0.02188   0.00000  Uiso   1.00
C408   C     0.50008   0.83354   0.31145   0.00000  Uiso   1.00
C409   C     0.35144   0.79661   0.14369   0.00000  Uiso   1.00
C410   C     0.64856   0.87005   0.18965   0.00000  Uiso   1.00
C411   C     0.64208   0.79874   0.14093   0.00000  Uiso   1.00
C412   C     0.35792   0.86792   0.19240   0.00000  Uiso   1.00
C413   C     0.62375   0.83500   0.16478   0.00000  Uiso   1.00
C414   C     0.37625   0.83167   0.16856   0.00000  Uiso   1.00
C415   C     0.47656   0.69032   0.13086   0.00000  Uiso   1.00
C416   C     0.52344   0.97634   0.20247   0.00000  Uiso   1.00
C417   C     0.52451   0.69241   0.20156   0.00000  Uiso   1.00
C418   C     0.47549   0.97426   0.13177   0.00000  Uiso   1.00
N419   N     0.50000   0.95069   0.16667   0.00000  Uiso   1.00
N420   N     0.50000   0.71598   0.16667   0.00000  Uiso   1.00
N421   N     0.36907   0.75932   0.11932   0.00000  Uiso   1.00
O422   O     0.37845   0.72256   0.14434   0.00000  Uiso   1.00
O423   O     0.36488   0.75694   0.07127   0.00000  Uiso   1.00
N424   N     0.63093   0.90735   0.21402   0.00000  Uiso   1.00
O425   O     0.62155   0.94410   0.18899   0.00000  Uiso   1.00
O426   O     0.63513   0.90974   0.26207   0.00000  Uiso   1.00
N427   N     0.61750   0.76472   0.11201   0.00000  Uiso   1.00
O428   O     0.59274   0.77712   0.07455   0.00000  Uiso   1.00
O429   O     0.62051   0.72128   0.12231   0.00000  Uiso   1.00
N430   N     0.38250   0.90194   0.22132   0.00000  Uiso   1.00
O431   O     0.40726   0.88954   0.25878   0.00000  Uiso   1.00
O432   O     0.37948   0.94538   0.21103   0.00000  Uiso   1.00
C433   C     0.45476   0.71404   0.08699   0.00000  Uiso   1.00
H434   H     0.44314   0.74722   0.09736   0.00000  Uiso   1.00
H435   H     0.47600   0.71824   0.05775   0.00000  Uiso   1.00
H436   H     0.42684   0.69570   0.07024   0.00000  Uiso   1.00
C437   C     0.54524   0.95263   0.24635   0.00000  Uiso   1.00
H438   H     0.55686   0.91945   0.23598   0.00000  Uiso   1.00
H439   H     0.57316   0.97096   0.26309   0.00000  Uiso   1.00
H440   H     0.52400   0.94843   0.27559   0.00000  Uiso   1.00
C441   C     0.55465   0.71738   0.23917   0.00000  Uiso   1.00
H442   H     0.55730   0.75444   0.23657   0.00000  Uiso   1.00
H443   H     0.54657   0.71007   0.27714   0.00000  Uiso   1.00
H444   H     0.58619   0.70599   0.23464   0.00000  Uiso   1.00
C445   C     0.44535   0.94929   0.09416   0.00000  Uiso   1.00
H446   H     0.44270   0.91222   0.09676   0.00000  Uiso   1.00
H447   H     0.41381   0.96067   0.09869   0.00000  Uiso   1.00
H448   H     0.45343   0.95660   0.05620   0.00000  Uiso   1.00
O449   O     0.77321   0.87291   0.16666   0.00000  Uiso   1.00
O450   O     0.89345   0.79375   0.16667   0.00000  Uiso   1.00
O451   O     0.89345   0.87291   0.16667   0.00000  Uiso   1.00
O452   O     0.77321   0.79375   0.16666   0.00000  Uiso   1.00
C453   C     0.75423   0.83271   0.16697   0.00000  Uiso   1.00
C454   C     0.91244   0.83395   0.16637   0.00000  Uiso   1.00
O455   O     0.83333   0.87292   0.09613   0.00000  Uiso   1.00
O456   O     0.83333   0.79375   0.23720   0.00000  Uiso   1.00
O457   O     0.83333   0.87292   0.23720   0.00000  Uiso   1.00
O458   O     0.83333   0.79375   0.09613   0.00000  Uiso   1.00
C459   C     0.83312   0.83318   0.07370   0.00000  Uiso   1.00
C460   C     0.83355   0.83349   0.25964   0.00000  Uiso   1.00
Cu461  Cu    0.83333   0.88022   0.16667   0.00000  Uiso   1.00
Cu462  Cu    0.83333   0.78645   0.16667   0.00000  Uiso   1.00
C463   C     0.83325   0.83312   0.02188   0.00000  Uiso   1.00
C464   C     0.83341   0.83354   0.31145   0.00000  Uiso   1.00
C465   C     0.68477   0.79661   0.14369   0.00000  Uiso   1.00
C466   C     0.98189   0.87005   0.18965   0.00000  Uiso   1.00
C467   C     0.97542   0.79874   0.14093   0.00000  Uiso   1.00
C468   C     0.69125   0.86792   0.19240   0.00000  Uiso   1.00
C469   C     0.95708   0.83500   0.16478   0.00000  Uiso   1.00
C470   C     0.70958   0.83167   0.16856   0.00000  Uiso   1.00
C471   C     0.80989   0.69032   0.13086   0.00000  Uiso   1.00
C472   C     0.85677   0.97634   0.20247   0.00000  Uiso   1.00
C473   C     0.85785   0.69241   0.20156   0.00000  Uiso   1.00
C474   C     0.80882   0.97426   0.13177   0.00000  Uiso   1.00
N475   N     0.83333   0.95069   0.16667   0.00000  Uiso   1.00
N476   N     0.83333   0.71598   0.16667   0.00000  Uiso   1.00
N477   N     0.70241   0.75932   0.11932   0.00000  Uiso   1.00
O478   O     0.71178   0.72256   0.14434   0.00000  Uiso   1.00
O479   O     0.69821   0.75694   0.07127   0.00000  Uiso   1.00
N480   N     0.96426   0.90735   0.21402   0.00000  Uiso   1.00
O481   O     0.95488   0.94410   0.18899   0.00000  Uiso   1.00
O482   O     0.96846   0.90974   0.26207   0.00000  Uiso   1.00
N483   N     0.95084   0.76472   0.11201   0.00000  Uiso   1.00
O484   O     0.92607   0.77712   0.07455   0.00000  Uiso   1.00
O485   O     0.95385   0.72128   0.12231   0.00000  Uiso   1.00
N486   N     0.71583   0.90194   0.22132   0.00000  Uiso   1.00
O487   O     0.74060   0.88954   0.25878   0.00000  Uiso   1.00
O488   O     0.71282   0.94538   0.21103   0.00000  Uiso   1.00
C489   C     0.78809   0.71404   0.08699   0.00000  Uiso   1.00
H490   H     0.77647   0.74722   0.09736   0.00000  Uiso   1.00
H491   H     0.80933   0.71824   0.05775   0.00000  Uiso   1.00
H492   H     0.76017   0.69570   0.07024   0.00000  Uiso   1.00
C493   C     0.87857   0.95263   0.24635   0.00000  Uiso   1.00
H494   H     0.89019   0.91945   0.23598   0.00000  Uiso   1.00
H495   H     0.90650   0.97096   0.26309   0.00000  Uiso   1.00
H496   H     0.85734   0.94843   0.27559   0.00000  Uiso   1.00
C497   C     0.88798   0.71738   0.23917   0.00000  Uiso   1.00
H498   H     0.89063   0.75444   0.23657   0.00000  Uiso   1.00
H499   H     0.87990   0.71007   0.27714   0.00000  Uiso   1.00
H500   H     0.91953   0.70599   0.23464   0.00000  Uiso   1.00
C501   C     0.77868   0.94929   0.09416   0.00000  Uiso   1.00
H502   H     0.77604   0.91222   0.09676   0.00000  Uiso   1.00
H503   H     0.74714   0.96067   0.09869   0.00000  Uiso   1.00
H504   H     0.78677   0.95660   0.05620   0.00000  Uiso   1.00
O505   O     0.10655   0.20625   0.50000   0.00000  Uiso   1.00
O506   O     0.22679   0.12709   0.50000   0.00000  Uiso   1.00
O507   O     0.22679   0.20625   0.50000   0.00000  Uiso   1.00
O508   O     0.10655   0.12709   0.50000   0.00000  Uiso   1.00
C509   C     0.08756   0.16605   0.50030   0.00000  Uiso   1.00
C510   C     0.24577   0.16729   0.49970   0.00000  Uiso   1.00
O511   O     0.16667   0.20625   0.42946   0.00000  Uiso   1.00
O512   O     0.16667   0.12708   0.57054   0.00000  Uiso   1.00
O513   O     0.16667   0.20625   0.57054   0.00000  Uiso   1.00
O514   O     0.16667   0.12708   0.42946   0.00000  Uiso   1.00
C515   C     0.16645   0.16651   0.40703   0.00000  Uiso   1.00
C516   C     0.16688   0.16682   0.59297   0.00000  Uiso   1.00
Cu517  Cu    0.16667   0.21355   0.50000   0.00000  Uiso   1.00
Cu518  Cu    0.16667   0.11978   0.50000   0.00000  Uiso   1.00
C519   C     0.16659   0.16646   0.35522   0.00000  Uiso   1.00
C520   C     0.16675   0.16687   0.64478   0.00000  Uiso   1.00
C521   C     0.01811   0.12995   0.47702   0.00000  Uiso   1.00
C522   C     0.31523   0.20338   0.52298   0.00000  Uiso   1.00
C523   C     0.30875   0.13208   0.47427   0.00000  Uiso   1.00
C524   C     0.02458   0.20126   0.52574   0.00000  Uiso   1.00
C525   C     0.29042   0.16833   0.49811   0.00000  Uiso   1.00
C526   C     0.04292   0.16500   0.50189   0.00000  Uiso   1.00
C527   C     0.14323   0.02366   0.46420   0.00000  Uiso   1.00
C528   C     0.19011   0.30968   0.53580   0.00000  Uiso   1.00
C529   C     0.19118   0.02574   0.53489   0.00000  Uiso   1.00
C530   C     0.14215   0.30759   0.46511   0.00000  Uiso   1.00
N531   N     0.16667   0.28402   0.50000   0.00000  Uiso   1.00
N532   N     0.16667   0.04931   0.50000   0.00000  Uiso   1.00
N533   N     0.03574   0.09265   0.45265   0.00000  Uiso   1.00
O534   O     0.04511   0.05590   0.47767   0.00000  Uiso   1.00
O535   O     0.03154   0.09027   0.40460   0.00000  Uiso   1.00
N536   N     0.29759   0.24068   0.54735   0.00000  Uiso   1.00
O537   O     0.28821   0.27744   0.52232   0.00000  Uiso   1.00
O538   O     0.30179   0.24307   0.59540   0.00000  Uiso   1.00
N539   N     0.28417   0.09805   0.44534   0.00000  Uiso   1.00
O540   O     0.25940   0.11045   0.40789   0.00000  Uiso   1.00
O541   O     0.28718   0.05462   0.45564   0.00000  Uiso   1.00
N542   N     0.04916   0.23528   0.55466   0.00000  Uiso   1.00
O543   O     0.07393   0.22288   0.59211   0.00000  Uiso   1.00
O544   O     0.04615   0.27872   0.54437   0.00000  Uiso   1.00
C545   C     0.12143   0.04737   0.42032   0.00000  Uiso   1.00
H546   H     0.10981   0.08055   0.43069   0.00000  Uiso   1.00
H547   H     0.14266   0.05157   0.39108   0.00000  Uiso   1.00
H548   H     0.09351   0.02904   0.40358   0.00000  Uiso   1.00
C549   C     0.21191   0.28596   0.57968   0.00000  Uiso   1.00
H550   H     0.22352   0.25278   0.56931   0.00000  Uiso   1.00
H551   H     0.23983   0.30430   0.59642   0.00000  Uiso   1.00
H552   H     0.19067   0.28176   0.60892   0.00000  Uiso   1.00
C553   C     0.22132   0.05071   0.57251   0.00000  Uiso   1.00
H554   H     0.22396   0.08778   0.56991   0.00000  Uiso   1.00
H555   H     0.21323   0.04340   0.61047   0.00000  Uiso   1.00
H556   H     0.25286   0.03933   0.56798   0.00000  Uiso   1.00
C557   C     0.11202   0.28262   0.42749   0.00000  Uiso   1.00
H558   H     0.10937   0.24556   0.43009   0.00000  Uiso   1.00
H559   H     0.08047   0.29401   0.43202   0.00000  Uiso   1.00
H560   H     0.12010   0.28993   0.38953   0.00000  Uiso   1.00
O561   O     0.43988   0.20625   0.50000   0.00000  Uiso   1.00
O562   O     0.56012   0.12709   0.50000   0.00000  Uiso   1.00
O563   O     0.56012   0.20625   0.50000   0.00000  Uiso   1.00
O564   O     0.43988   0.12709   0.50000   0.00000  Uiso   1.00
C565   C     0.42089   0.16605   0.50030   0.00000  Uiso   1.00
C566   C     0.57911   0.16729   0.49970   0.00000  Uiso   1.00
O567   O     0.50000   0.20625   0.42946   0.00000  Uiso   1.00
O568   O     0.50000   0.12708   0.57054   0.00000  Uiso   1.00
O569   O     0.50000   0.20625   0.57054   0.00000  Uiso   1.00
O570   O     0.50000   0.12708   0.42946   0.00000  Uiso   1.00
C571   C     0.49979   0.16651   0.40703   0.00000  Uiso   1.00
C572   C     0.50021   0.16682   0.59297   0.00000  Uiso   1.00
Cu573  Cu    0.50000   0.21355   0.50000   0.00000  Uiso   1.00
Cu574  Cu    0.50000   0.11978   0.50000   0.00000  Uiso   1.00
C575   C     0.49992   0.16646   0.35522   0.00000  Uiso   1.00
C576   C     0.50008   0.16687   0.64478   0.00000  Uiso   1.00
C577   C     0.35144   0.12995   0.47702   0.00000  Uiso   1.00
C578   C     0.64856   0.20338   0.52298   0.00000  Uiso   1.00
C579   C     0.64208   0.13208   0.47427   0.00000  Uiso   1.00
C580   C     0.35792   0.20126   0.52574   0.00000  Uiso   1.00
C581   C     0.62375   0.16833   0.49811   0.00000  Uiso   1.00
C582   C     0.37625   0.16500   0.50189   0.00000  Uiso   1.00
C583   C     0.47656   0.02366   0.46420   0.00000  Uiso   1.00
C584   C     0.52344   0.30968   0.53580   0.00000  Uiso   1.00
C585   C     0.52451   0.02574   0.53489   0.00000  Uiso   1.00
C586   C     0.47549   0.30759   0.46511   0.00000  Uiso   1.00
N587   N     0.50000   0.28402   0.50000   0.00000  Uiso   1.00
N588   N     0.50000   0.04931   0.50000   0.00000  Uiso   1.00
N589   N     0.36907   0.09265   0.45265   0.00000  Uiso   1.00
O590   O     0.37845   0.05590   0.47767   0.00000  Uiso   1.00
O591   O     0.36488   0.09027   0.40460   0.00000  Uiso   1.00
N592   N     0.63093   0.24068   0.54735   0.00000  Uiso   1.00
O593   O     0.62155   0.27744   0.52232   0.00000  Uiso   1.00
O594   O     0.63513   0.24307   0.59540   0.00000  Uiso   1.00
N595   N     0.61750   0.09805   0.44534   0.00000  Uiso   1.00
O596   O     0.59274   0.11045   0.40789   0.00000  Uiso   1.00
O597   O     0.62051   0.05462   0.45564   0.00000  Uiso   1.00
N598   N     0.38250   0.23528   0.55466   0.00000  Uiso   1.00
O599   O     0.40726   0.22288   0.59211   0.00000  Uiso   1.00
O600   O     0.37948   0.27872   0.54437   0.00000  Uiso   1.00
C601   C     0.45476   0.04737   0.42032   0.00000  Uiso   1.00
H602   H     0.44314   0.08055   0.43069   0.00000  Uiso   1.00
H603   H     0.47600   0.05157   0.39108   0.00000  Uiso   1.00
H604   H     0.42684   0.02904   0.40358   0.00000  Uiso   1.00
C605   C     0.54524   0.28596   0.57968   0.00000  Uiso   1.00
H606   H     0.55686   0.25278   0.56931   0.00000  Uiso   1.00
H607   H     0.57316   0.30430   0.59642   0.00000  Uiso   1.00
H608   H     0.52400   0.28176   0.60892   0.00000  Uiso   1.00
C609   C     0.55465   0.05071   0.57251   0.00000  Uiso   1.00
H610   H     0.55730   0.08778   0.56991   0.00000  Uiso   1.00
H611   H     0.54657   0.04340   0.61047   0.00000  Uiso   1.00
H612   H     0.58619   0.03933   0.56798   0.00000  Uiso   1.00
C613   C     0.44535   0.28262   0.42749   0.00000  Uiso   1.00
H614   H     0.44270   0.24556   0.43009   0.00000  Uiso   1.00
H615   H     0.41381   0.29401   0.43202   0.00000  Uiso   1.00
H616   H     0.45343   0.28993   0.38953   0.00000  Uiso   1.00
O617   O     0.77321   0.20625   0.50000   0.00000  Uiso   1.00
O618   O     0.89345   0.12709   0.50000   0.00000  Uiso   1.00
O619   O     0.89345   0.20625   0.50000   0.00000  Uiso   1.00
O620   O     0.77321   0.12709   0.50000   0.00000  Uiso   1.00
C621   C     0.75423   0.16605   0.50030   0.00000  Uiso   1.00
C622   C     0.91244   0.16729   0.49970   0.00000  Uiso   1.00
O623   O     0.83333   0.20625   0.42946   0.00000  Uiso   1.00
O624   O     0.83333   0.12708   0.57054   0.00000  Uiso   1.00
O625   O     0.83333   0.20625   0.57054   0.00000  Uiso   1.00
O626   O     0.83333   0.12708   0.42946   0.00000  Uiso   1.00
C627   C     0.83312   0.16651   0.40703   0.00000  Uiso   1.00
C628   C     0.83355   0.16682   0.59297   0.00000  Uiso   1.00
Cu629  Cu    0.83333   0.21355   0.50000   0.00000  Uiso   1.00
Cu630  Cu    0.83333   0.11978   0.50000   0.00000  Uiso   1.00
C631   C     0.83325   0.16646   0.35522   0.00000  Uiso   1.00
C632   C     0.83341   0.16687   0.64478   0.00000  Uiso   1.00
C633   C     0.68477   0.12995   0.47702   0.00000  Uiso   1.00
C634   C     0.98189   0.20338   0.52298   0.00000  Uiso   1.00
C635   C     0.97542   0.13208   0.47427   0.00000  Uiso   1.00
C636   C     0.69125   0.20126   0.52574   0.00000  Uiso   1.00
C637   C     0.95708   0.16833   0.49811   0.00000  Uiso   1.00
C638   C     0.70958   0.16500   0.50189   0.00000  Uiso   1.00
C639   C     0.80989   0.02366   0.46420   0.00000  Uiso   1.00
C640   C     0.85677   0.30968   0.53580   0.00000  Uiso   1.00
C641   C     0.85785   0.02574   0.53489   0.00000  Uiso   1.00
C642   C     0.80882   0.30759   0.46511   0.00000  Uiso   1.00
N643   N     0.83333   0.28402   0.50000   0.00000  Uiso   1.00
N644   N     0.83333   0.04931   0.50000   0.00000  Uiso   1.00
N645   N     0.70241   0.09265   0.45265   0.00000  Uiso   1.00
O646   O     0.71178   0.05590   0.47767   0.00000  Uiso   1.00
O647   O     0.69821   0.09027   0.40460   0.00000  Uiso   1.00
N648   N     0.96426   0.24068   0.54735   0.00000  Uiso   1.00
O649   O     0.95488   0.27744   0.52232   0.00000  Uiso   1.00
O650   O     0.96846   0.24307   0.59540   0.00000  Uiso   1.00
N651   N     0.95084   0.09805   0.44534   0.00000  Uiso   1.00
O652   O     0.92607   0.11045   0.40789   0.00000  Uiso   1.00
O653   O     0.95385   0.05462   0.45564   0.00000  Uiso   1.00
N654   N     0.71583   0.23528   0.55466   0.00000  Uiso   1.00
O655   O     0.74060   0.22288   0.59211   0.00000  Uiso   1.00
O656   O     0.71282   0.27872   0.54437   0.00000  Uiso   1.00
C657   C     0.78809   0.04737   0.42032   0.00000  Uiso   1.00
H658   H     0.77647   0.08055   0.43069   0.00000  Uiso   1.00
H659   H     0.80933   0.05157   0.39108   0.00000  Uiso   1.00
H660   H     0.76017   0.02904   0.40358   0.00000  Uiso   1.00
C661   C     0.87857   0.28596   0.57968   0.00000  Uiso   1.00
H662   H     0.89019   0.25278   0.56931   0.00000  Uiso   1.00
H663   H     0.90650   0.30430   0.59642   0.00000  Uiso   1.00
H664   H     0.85734   0.28176   0.60892   0.00000  Uiso   1.00
C665   C     0.88798   0.05071   0.57251   0.00000  Uiso   1.00
H666   H     0.89063   0.08778   0.56991   0.00000  Uiso   1.00
H667   H     0.87990   0.04340   0.61047   0.00000  Uiso   1.00
H668   H     0.91953   0.03933   0.56798   0.00000  Uiso   1.00
C669   C     0.77868   0.28262   0.42749   0.00000  Uiso   1.00
H670   H     0.77604   0.24556   0.43009   0.00000  Uiso   1.00
H671   H     0.74714   0.29401   0.43202   0.00000  Uiso   1.00
H672   H     0.78677   0.28993   0.38953   0.00000  Uiso   1.00
O673   O     0.10655   0.53958   0.50000   0.00000  Uiso   1.00
O674   O     0.22679   0.46042   0.50000   0.00000  Uiso   1.00
O675   O     0.22679   0.53958   0.50000   0.00000  Uiso   1.00
O676   O     0.10655   0.46042   0.50000   0.00000  Uiso   1.00
C677   C     0.08756   0.49938   0.50030   0.00000  Uiso   1.00
C678   C     0.24577   0.50062   0.49970   0.00000  Uiso   1.00
O679   O     0.16667   0.53959   0.42946   0.00000  Uiso   1.00
O680   O     0.16667   0.46041   0.57054   0.00000  Uiso   1.00
O681   O     0.16667   0.53959   0.57054   0.00000  Uiso   1.00
O682   O     0.16667   0.46041   0.42946   0.00000  Uiso   1.00
C683   C     0.16645   0.49984   0.40703   0.00000  Uiso   1.00
C684   C     0.16688   0.50016   0.59297   0.00000  Uiso   1.00
Cu685  Cu    0.16667   0.54689   0.50000   0.00000  Uiso   1.00
Cu686  Cu    0.16667   0.45311   0.50000   0.00000  Uiso   1.00
C687   C     0.16659   0.49979   0.35522   0.00000  Uiso   1.00
C688   C     0.16675   0.50021   0.64478   0.00000  Uiso   1.00
C689   C     0.01811   0.46328   0.47702   0.00000  Uiso   1.00
C690   C     0.31523   0.53672   0.52298   0.00000  Uiso   1.00
C691   C     0.30875   0.46541   0.47427   0.00000  Uiso   1.00
C692   C     0.02458   0.53459   0.52574   0.00000  Uiso   1.00
C693   C     0.29042   0.50166   0.49811   0.00000  Uiso   1.00
C694   C     0.04292   0.49834   0.50189   0.00000  Uiso   1.00
C695   C     0.14323   0.35699   0.46420   0.00000  Uiso   1.00
C696   C     0.19011   0.64301   0.53580   0.00000  Uiso   1.00
C697   C     0.19118   0.35907   0.53489   0.00000  Uiso   1.00
C698   C     0.14215   0.64092   0.46511   0.00000  Uiso   1.00
N699   N     0.16667   0.61736   0.50000   0.00000  Uiso   1.00
N700   N     0.16667   0.38264   0.50000   0.00000  Uiso   1.00
N701   N     0.03574   0.42599   0.45265   0.00000  Uiso   1.00
O702   O     0.04511   0.38923   0.47767   0.00000  Uiso   1.00
O703   O     0.03154   0.42360   0.40460   0.00000  Uiso   1.00
N704   N     0.29759   0.57401   0.54735   0.00000  Uiso   1.00
O705   O     0.28821   0.61077   0.52232   0.00000  Uiso   1.00
O706   O     0.30179   0.57640   0.59540   0.00000  Uiso   1.00
N707   N     0.28417   0.43139   0.44534   0.00000  Uiso   1.00
O708   O     0.25940   0.44379   0.40789   0.00000  Uiso   1.00
O709   O     0.28718   0.38795   0.45564   0.00000  Uiso   1.00
N710   N     0.04916   0.56861   0.55466   0.00000  Uiso   1.00
O711   O     0.07393   0.55621   0.59211   0.00000  Uiso   1.00
O712   O     0.04615   0.61205   0.54437   0.00000  Uiso   1.00
C713   C     0.12143   0.38070   0.42032   0.00000  Uiso   1.00
H714   H     0.10981   0.41389   0.43069   0.00000  Uiso   1.00
H715   H     0.14266   0.38491   0.39108   0.00000  Uiso   1.00
H716   H     0.09351   0.36237   0.40358   0.00000  Uiso   1.00
C717   C     0.21191   0.61930   0.57968   0.00000  Uiso   1.00
H718   H     0.22352   0.58611   0.56931   0.00000  Uiso   1.00
H719   H     0.23983   0.63763   0.59642   0.00000  Uiso   1.00
H720   H     0.19067   0.61509   0.60892   0.00000  Uiso   1.00
C721   C     0.22132   0.38404   0.57251   0.00000  Uiso   1.00
H722   H     0.22396   0.42111   0.56991   0.00000  Uiso   1.00
H723   H     0.21323   0.37673   0.61047   0.00000  Uiso   1.00
H724   H     0.25286   0.37266   0.56798   0.00000  Uiso   1.00
C725   C     0.11202   0.61596   0.42749   0.00000  Uiso   1.00
H726   H     0.10937   0.57889   0.43009   0.00000  Uiso   1.00
H727   H     0.08047   0.62734   0.43202   0.00000  Uiso   1.00
H728   H     0.12010   0.62327   0.38953   0.00000  Uiso   1.00
O729   O     0.43988   0.53958   0.50000   0.00000  Uiso   1.00
O730   O     0.56012   0.46042   0.50000   0.00000  Uiso   1.00
O731   O     0.56012   0.53958   0.50000   0.00000  Uiso   1.00
O732   O     0.43988   0.46042   0.50000   0.00000  Uiso   1.00
C733   C     0.42089   0.49938   0.50030   0.00000  Uiso   1.00
C734   C     0.57911   0.50062   0.49970   0.00000  Uiso   1.00
O735   O     0.50000   0.53959   0.42946   0.00000  Uiso   1.00
O736   O     0.50000   0.46041   0.57054   0.00000  Uiso   1.00
O737   O     0.50000   0.53959   0.57054   0.00000  Uiso   1.00
O738   O     0.50000   0.46041   0.42946   0.00000  Uiso   1.00
C739   C     0.49979   0.49984   0.40703   0.00000  Uiso   1.00
C740   C     0.50021   0.50016   0.59297   0.00000  Uiso   1.00
Cu741  Cu    0.50000   0.54689   0.50000   0.00000  Uiso   1.00
Cu742  Cu    0.50000   0.45311   0.50000   0.00000  Uiso   1.00
C743   C     0.49992   0.49979   0.35522   0.00000  Uiso   1.00
C744   C     0.50008   0.50021   0.64478   0.00000  Uiso   1.00
C745   C     0.35144   0.46328   0.47702   0.00000  Uiso   1.00
C746   C     0.64856   0.53672   0.52298   0.00000  Uiso   1.00
C747   C     0.64208   0.46541   0.47427   0.00000  Uiso   1.00
C748   C     0.35792   0.53459   0.52574   0.00000  Uiso   1.00
C749   C     0.62375   0.50166   0.49811   0.00000  Uiso   1.00
C750   C     0.37625   0.49834   0.50189   0.00000  Uiso   1.00
C751   C     0.47656   0.35699   0.46420   0.00000  Uiso   1.00
C752   C     0.52344   0.64301   0.53580   0.00000  Uiso   1.00
C753   C     0.52451   0.35907   0.53489   0.00000  Uiso   1.00
C754   C     0.47549   0.64092   0.46511   0.00000  Uiso   1.00
N755   N     0.50000   0.61736   0.50000   0.00000  Uiso   1.00
N756   N     0.50000   0.38264   0.50000   0.00000  Uiso   1.00
N757   N     0.36907   0.42599   0.45265   0.00000  Uiso   1.00
O758   O     0.37845   0.38923   0.47767   0.00000  Uiso   1.00
O759   O     0.36488   0.42360   0.40460   0.00000  Uiso   1.00
N760   N     0.63093   0.57401   0.54735   0.00000  Uiso   1.00
O761   O     0.62155   0.61077   0.52232   0.00000  Uiso   1.00
O762   O     0.63513   0.57640   0.59540   0.00000  Uiso   1.00
N763   N     0.61750   0.43139   0.44534   0.00000  Uiso   1.00
O764   O     0.59274   0.44379   0.40789   0.00000  Uiso   1.00
O765   O     0.62051   0.38795   0.45564   0.00000  Uiso   1.00
N766   N     0.38250   0.56861   0.55466   0.00000  Uiso   1.00
O767   O     0.40726   0.55621   0.59211   0.00000  Uiso   1.00
O768   O     0.37948   0.61205   0.54437   0.00000  Uiso   1.00
C769   C     0.45476   0.38070   0.42032   0.00000  Uiso   1.00
H770   H     0.44314   0.41389   0.43069   0.00000  Uiso   1.00
H771   H     0.47600   0.38491   0.39108   0.00000  Uiso   1.00
H772   H     0.42684   0.36237   0.40358   0.00000  Uiso   1.00
C773   C     0.54524   0.61930   0.57968   0.00000  Uiso   1.00
H774   H     0.55686   0.58611   0.56931   0.00000  Uiso   1.00
H775   H     0.57316   0.63763   0.59642   0.00000  Uiso   1.00
H776   H     0.52400   0.61509   0.60892   0.00000  Uiso   1.00
C777   C     0.55465   0.38404   0.57251   0.00000  Uiso   1.00
H778   H     0.55730   0.42111   0.56991   0.00000  Uiso   1.00
H779   H     0.54657   0.37673   0.61047   0.00000  Uiso   1.00
H780   H     0.58619   0.37266   0.56798   0.00000  Uiso   1.00
C781   C     0.44535   0.61596   0.42749   0.00000  Uiso   1.00
H782   H     0.44270   0.57889   0.43009   0.00000  Uiso   1.00
H783   H     0.41381   0.62734   0.43202   0.00000  Uiso   1.00
H784   H     0.45343   0.62327   0.38953   0.00000  Uiso   1.00
O785   O     0.77321   0.53958   0.50000   0.00000  Uiso   1.00
O786   O     0.89345   0.46042   0.50000   0.00000  Uiso   1.00
O787   O     0.89345   0.53958   0.50000   0.00000  Uiso   1.00
O788   O     0.77321   0.46042   0.50000   0.00000  Uiso   1.00
C789   C     0.75423   0.49938   0.50030   0.00000  Uiso   1.00
C790   C     0.91244   0.50062   0.49970   0.00000  Uiso   1.00
O791   O     0.83333   0.53959   0.42946   0.00000  Uiso   1.00
O792   O     0.83333   0.46041   0.57054   0.00000  Uiso   1.00
O793   O     0.83333   0.53959   0.57054   0.00000  Uiso   1.00
O794   O     0.83333   0.46041   0.42946   0.00000  Uiso   1.00
C795   C     0.83312   0.49984   0.40703   0.00000  Uiso   1.00
C796   C     0.83355   0.50016   0.59297   0.00000  Uiso   1.00
Cu797  Cu    0.83333   0.54689   0.50000   0.00000  Uiso   1.00
Cu798  Cu    0.83333   0.45311   0.50000   0.00000  Uiso   1.00
C799   C     0.83325   0.49979   0.35522   0.00000  Uiso   1.00
C800   C     0.83341   0.50021   0.64478   0.00000  Uiso   1.00
C801   C     0.68477   0.46328   0.47702   0.00000  Uiso   1.00
C802   C     0.98189   0.53672   0.52298   0.00000  Uiso   1.00
C803   C     0.97542   0.46541   0.47427   0.00000  Uiso   1.00
C804   C     0.69125   0.53459   0.52574   0.00000  Uiso   1.00
C805   C     0.95708   0.50166   0.49811   0.00000  Uiso   1.00
C806   C     0.70958   0.49834   0.50189   0.00000  Uiso   1.00
C807   C     0.80989   0.35699   0.46420   0.00000  Uiso   1.00
C808   C     0.85677   0.64301   0.53580   0.00000  Uiso   1.00
C809   C     0.85785   0.35907   0.53489   0.00000  Uiso   1.00
C810   C     0.80882   0.64092   0.46511   0.00000  Uiso   1.00
N811   N     0.83333   0.61736   0.50000   0.00000  Uiso   1.00
N812   N     0.83333   0.38264   0.50000   0.00000  Uiso   1.00
N813   N     0.70241   0.42599   0.45265   0.00000  Uiso   1.00
O814   O     0.71178   0.38923   0.47767   0.00000  Uiso   1.00
O815   O     0.69821   0.42360   0.40460   0.00000  Uiso   1.00
N816   N     0.96426   0.57401   0.54735   0.00000  Uiso   1.00
O817   O     0.95488   0.61077   0.52232   0.00000  Uiso   1.00
O818   O     0.96846   0.57640   0.59540   0.00000  Uiso   1.00
N819   N     0.95084   0.43139   0.44534   0.00000  Uiso   1.00
O820   O     0.92607   0.44379   0.40789   0.00000  Uiso   1.00
O821   O     0.95385   0.38795   0.45564   0.00000  Uiso   1.00
N822   N     0.71583   0.56861   0.55466   0.00000  Uiso   1.00
O823   O     0.74060   0.55621   0.59211   0.00000  Uiso   1.00
O824   O     0.71282   0.61205   0.54437   0.00000  Uiso   1.00
C825   C     0.78809   0.38070   0.42032   0.00000  Uiso   1.00
H826   H     0.77647   0.41389   0.43069   0.00000  Uiso   1.00
H827   H     0.80933   0.38491   0.39108   0.00000  Uiso   1.00
H828   H     0.76017   0.36237   0.40358   0.00000  Uiso   1.00
C829   C     0.87857   0.61930   0.57968   0.00000  Uiso   1.00
H830   H     0.89019   0.58611   0.56931   0.00000  Uiso   1.00
H831   H     0.90650   0.63763   0.59642   0.00000  Uiso   1.00
H832   H     0.85734   0.61509   0.60892   0.00000  Uiso   1.00
C833   C     0.88798   0.38404   0.57251   0.00000  Uiso   1.00
H834   H     0.89063   0.42111   0.56991   0.00000  Uiso   1.00
H835   H     0.87990   0.37673   0.61047   0.00000  Uiso   1.00
H836   H     0.91953   0.37266   0.56798   0.00000  Uiso   1.00
C837   C     0.77868   0.61596   0.42749   0.00000  Uiso   1.00
H838   H     0.77604   0.57889   0.43009   0.00000  Uiso   1.00
H839   H     0.74714   0.62734   0.43202   0.00000  Uiso   1.00
H840   H     0.78677   0.62327   0.38953   0.00000  Uiso   1.00
O841   O     0.10655   0.87291   0.50000   0.00000  Uiso   1.00
O842   O     0.22679   0.79375   0.50000   0.00000  Uiso   1.00
O843   O     0.22679   0.87291   0.50000   0.00000  Uiso   1.00
O844   O     0.10655   0.79375   0.50000   0.00000  Uiso   1.00
C845   C     0.08756   0.83271   0.50030   0.00000  Uiso   1.00
C846   C     0.24577   0.83395   0.49970   0.00000  Uiso   1.00
O847   O     0.16667   0.87292   0.42946   0.00000  Uiso   1.00
O848   O     0.16667   0.79375   0.57054   0.00000  Uiso   1.00
O849   O     0.16667   0.87292   0.57054   0.00000  Uiso   1.00
O850   O     0.16667   0.79375   0.42946   0.00000  Uiso   1.00
C851   C     0.16645   0.83318   0.40703   0.00000  Uiso   1.00
C852   C     0.16688   0.83349   0.59297   0.00000  Uiso   1.00
Cu853  Cu    0.16667   0.88022   0.50000   0.00000  Uiso   1.00
Cu854  Cu    0.16667   0.78645   0.50000   0.00000  Uiso   1.00
C855   C     0.16659   0.83312   0.35522   0.00000  Uiso   1.00
C856   C     0.16675   0.83354   0.64478   0.00000  Uiso   1.00
C857   C     0.01811   0.79661   0.47702   0.00000  Uiso   1.00
C858   C     0.31523   0.87005   0.52298   0.00000  Uiso   1.00
C859   C     0.30875   0.79874   0.47427   0.00000  Uiso   1.00
C860   C     0.02458   0.86792   0.52574   0.00000  Uiso   1.00
C861   C     0.29042   0.83500   0.49811   0.00000  Uiso   1.00
C862   C     0.04292   0.83167   0.50189   0.00000  Uiso   1.00
C863   C     0.14323   0.69032   0.46420   0.00000  Uiso   1.00
C864   C     0.19011   0.97634   0.53580   0.00000  Uiso   1.00
C865   C     0.19118   0.69241   0.53489   0.00000  Uiso   1.00
C866   C     0.14215   0.97426   0.46511   0.00000  Uiso   1.00
N867   N     0.16667   0.95069   0.50000   0.00000  Uiso   1.00
N868   N     0.16667   0.71598   0.50000   0.00000  Uiso   1.00
N869   N     0.03574   0.75932   0.45265   0.00000  Uiso   1.00
O870   O     0.04511   0.72256   0.47767   0.00000  Uiso   1.00
O871   O     0.03154   0.75694   0.40460   0.00000  Uiso   1.00
N872   N     0.29759   0.90735   0.54735   0.00000  Uiso   1.00
O873   O     0.28821   0.94410   0.52232   0.00000  Uiso   1.00
O874   O     0.30179   0.90974   0.59540   0.00000  Uiso   1.00
N875   N     0.28417   0.76472   0.44534   0.00000  Uiso   1.00
O876   O     0.25940   0.77712   0.40789   0.00000  Uiso   1.00
O877   O     0.28718   0.72128   0.45564   0.00000  Uiso   1.00
N878   N     0.04916   0.90194   0.55466   0.00000  Uiso   1.00
O879   O     0.07393   0.88954   0.59211   0.00000  Uiso   1.00
O880   O     0.04615   0.94538   0.54437   0.00000  Uiso   1.00
C881   C     0.12143   0.71404   0.42032   0.00000  Uiso   1.00
H882   H     0.10981   0.74722   0.43069   0.00000  Uiso   1.00
H883   H     0.14266   0.71824   0.39108   0.00000  Uiso   1.00
H884   H     0.09351   0.69570   0.40358   0.00000  Uiso   1.00
C885   C     0.21191   0.95263   0.57968   0.00000  Uiso   1.00
H886   H     0.22352   0.91945   0.56931   0.00000  Uiso   1.00
H887   H     0.23983   0.97096   0.59642   0.00000  Uiso   1.00
H888   H     0.19067   0.94843   0.60892   0.00000  Uiso   1.00
C889   C     0.22132   0.71738   0.57251   0.00000  Uiso   1.00
H890   H     0.22396   0.75444   0.56991   0.00000  Uiso   1.00
H891   H     0.21323   0.71007   0.61047   0.00000  Uiso   1.00
H892   H     0.25286   0.70599   0.56798   0.00000  Uiso   1.00
C893   C     0.11202   0.94929   0.42749   0.00000  Uiso   1.00
H894   H     0.10937   0.91222   0.43009   0.00000  Uiso   1.00
H895   H     0.08047   0.96067   0.43202   0.00000  Uiso   1.00
H896   H     0.12010   0.95660   0.38953   0.00000  Uiso   1.00
O897   O     0.43988   0.87291   0.50000   0.00000  Uiso   1.00
O898   O     0.56012   0.79375   0.50000   0.00000  Uiso   1.00
O899   O     0.56012   0.87291   0.50000   0.00000  Uiso   1.00
O900   O     0.43988   0.79375   0.50000   0.00000  Uiso   1.00
C901   C     0.42089   0.83271   0.50030   0.00000  Uiso   1.00
C902   C     0.57911   0.83395   0.49970   0.00000  Uiso   1.00
O903   O     0.50000   0.87292   0.42946   0.00000  Uiso   1.00
O904   O     0.50000   0.79375   0.57054   0.00000  Uiso   1.00
O905   O     0.50000   0.87292   0.57054   0.00000  Uiso   1.00
O906   O     0.50000   0.79375   0.42946   0.00000  Uiso   1.00
C907   C     0.49979   0.83318   0.40703   0.00000  Uiso   1.00
C908   C     0.50021   0.83349   0.59297   0.00000  Uiso   1.00
Cu909  Cu    0.50000   0.88022   0.50000   0.00000  Uiso   1.00
Cu910  Cu    0.50000   0.78645   0.50000   0.00000  Uiso   1.00
C911   C     0.49992   0.83312   0.35522   0.00000  Uiso   1.00
C912   C     0.50008   0.83354   0.64478   0.00000  Uiso   1.00
C913   C     0.35144   0.79661   0.47702   0.00000  Uiso   1.00
C914   C     0.64856   0.87005   0.52298   0.00000  Uiso   1.00
C915   C     0.64208   0.79874   0.47427   0.00000  Uiso   1.00
C916   C     0.35792   0.86792   0.52574   0.00000  Uiso   1.00
C917   C     0.62375   0.83500   0.49811   0.00000  Uiso   1.00
C918   C     0.37625   0.83167   0.50189   0.00000  Uiso   1.00
C919   C     0.47656   0.69032   0.46420   0.00000  Uiso   1.00
C920   C     0.52344   0.97634   0.53580   0.00000  Uiso   1.00
C921   C     0.52451   0.69241   0.53489   0.00000  Uiso   1.00
C922   C     0.47549   0.97426   0.46511   0.00000  Uiso   1.00
N923   N     0.50000   0.95069   0.50000   0.00000  Uiso   1.00
N924   N     0.50000   0.71598   0.50000   0.00000  Uiso   1.00
N925   N     0.36907   0.75932   0.45265   0.00000  Uiso   1.00
O926   O     0.37845   0.72256   0.47767   0.00000  Uiso   1.00
O927   O     0.36488   0.75694   0.40460   0.00000  Uiso   1.00
N928   N     0.63093   0.90735   0.54735   0.00000  Uiso   1.00
O929   O     0.62155   0.94410   0.52232   0.00000  Uiso   1.00
O930   O     0.63513   0.90974   0.59540   0.00000  Uiso   1.00
N931   N     0.61750   0.76472   0.44534   0.00000  Uiso   1.00
O932   O     0.59274   0.77712   0.40789   0.00000  Uiso   1.00
O933   O     0.62051   0.72128   0.45564   0.00000  Uiso   1.00
N934   N     0.38250   0.90194   0.55466   0.00000  Uiso   1.00
O935   O     0.40726   0.88954   0.59211   0.00000  Uiso   1.00
O936   O     0.37948   0.94538   0.54437   0.00000  Uiso   1.00
C937   C     0.45476   0.71404   0.42032   0.00000  Uiso   1.00
H938   H     0.44314   0.74722   0.43069   0.00000  Uiso   1.00
H939   H     0.47600   0.71824   0.39108   0.00000  Uiso   1.00
H940   H     0.42684   0.69570   0.40358   0.00000  Uiso   1.00
C941   C     0.54524   0.95263   0.57968   0.00000  Uiso   1.00
H942   H     0.55686   0.91945   0.56931   0.00000  Uiso   1.00
H943   H     0.57316   0.97096   0.59642   0.00000  Uiso   1.00
H944   H     0.52400   0.94843   0.60892   0.00000  Uiso   1.00
C945   C     0.55465   0.71738   0.57251   0.00000  Uiso   1.00
H946   H     0.55730   0.75444   0.56991   0.00000  Uiso   1.00
H947   H     0.54657   0.71007   0.61047   0.00000  Uiso   1.00
H948   H     0.58619   0.70599   0.56798   0.00000  Uiso   1.00
C949   C     0.44535   0.94929   0.42749   0.00000  Uiso   1.00
H950   H     0.44270   0.91222   0.43009   0.00000  Uiso   1.00
H951   H     0.41381   0.96067   0.43202   0.00000  Uiso   1.00
H952   H     0.45343   0.95660   0.38953   0.00000  Uiso   1.00
O953   O     0.77321   0.87291   0.50000   0.00000  Uiso   1.00
O954   O     0.89345   0.79375   0.50000   0.00000  Uiso   1.00
O955   O     0.89345   0.87291   0.50000   0.00000  Uiso   1.00
O956   O     0.77321   0.79375   0.50000   0.00000  Uiso   1.00
C957   C     0.75423   0.83271   0.50030   0.00000  Uiso   1.00
C958   C     0.91244   0.83395   0.49970   0.00000  Uiso   1.00
O959   O     0.83333   0.87292   0.42946   0.00000  Uiso   1.00
O960   O     0.83333   0.79375   0.57054   0.00000  Uiso   1.00
O961   O     0.83333   0.87292   0.57054   0.00000  Uiso   1.00
O962   O     0.83333   0.79375   0.42946   0.00000  Uiso   1.00
C963   C     0.83312   0.83318   0.40703   0.00000  Uiso   1.00
C964   C     0.83355   0.83349   0.59297   0.00000  Uiso   1.00
Cu965  Cu    0.83333   0.88022   0.50000   0.00000  Uiso   1.00
Cu966  Cu    0.83333   0.78645   0.50000   0.00000  Uiso   1.00
C967   C     0.83325   0.83312   0.35522   0.00000  Uiso   1.00
C968   C     0.83341   0.83354   0.64478   0.00000  Uiso   1.00
C969   C     0.68477   0.79661   0.47702   0.00000  Uiso   1.00
C970   C     0.98189   0.87005   0.52298   0.00000  Uiso   1.00
C971   C     0.97542   0.79874   0.47427   0.00000  Uiso   1.00
C972   C     0.69125   0.86792   0.52574   0.00000  Uiso   1.00
C973   C     0.95708   0.83500   0.49811   0.00000  Uiso   1.00
C974   C     0.70958   0.83167   0.50189   0.00000  Uiso   1.00
C975   C     0.80989   0.69032   0.46420   0.00000  Uiso   1.00
C976   C     0.85677   0.97634   0.53580   0.00000  Uiso   1.00
C977   C     0.85785   0.69241   0.53489   0.00000  Uiso   1.00
C978   C     0.80882   0.97426   0.46511   0.00000  Uiso   1.00
N979   N     0.83333   0.95069   0.50000   0.00000  Uiso   1.00
N980   N     0.83333   0.71598   0.50000   0.00000  Uiso   1.00
N981   N     0.70241   0.75932   0.45265   0.00000  Uiso   1.00
O982   O     0.71178   0.72256   0.47767   0.00000  Uiso   1.00
O983   O     0.69821   0.75694   0.40460   0.00000  Uiso   1.00
N984   N     0.96426   0.90735   0.54735   0.00000  Uiso   1.00
O985   O     0.95488   0.94410   0.52232   0.00000  Uiso   1.00
O986   O     0.96846   0.90974   0.59540   0.00000  Uiso   1.00
N987   N     0.95084   0.76472   0.44534   0.00000  Uiso   1.00
O988   O     0.92607   0.77712   0.40789   0.00000  Uiso   1.00
O989   O     0.95385   0.72128   0.45564   0.00000  Uiso   1.00
N990   N     0.71583   0.90194   0.55466   0.00000  Uiso   1.00
O991   O     0.74060   0.88954   0.59211   0.00000  Uiso   1.00
O992   O     0.71282   0.94538   0.54437   0.00000  Uiso   1.00
C993   C     0.78809   0.71404   0.42032   0.00000  Uiso   1.00
H994   H     0.77647   0.74722   0.43069   0.00000  Uiso   1.00
H995   H     0.80933   0.71824   0.39108   0.00000  Uiso   1.00
H996   H     0.76017   0.69570   0.40358   0.00000  Uiso   1.00
C997   C     0.87857   0.95263   0.57968   0.00000  Uiso   1.00
H998   H     0.89019   0.91945   0.56931   0.00000  Uiso   1.00
H999   H     0.90650   0.97096   0.59642   0.00000  Uiso   1.00
H1000  H     0.85734   0.94843   0.60892   0.00000  Uiso   1.00
C1001  C     0.88798   0.71738   0.57251   0.00000  Uiso   1.00
H1002  H     0.89063   0.75444   0.56991   0.00000  Uiso   1.00
H1003  H     0.87990   0.71007   0.61047   0.00000  Uiso   1.00
H1004  H     0.91953   0.70599   0.56798   0.00000  Uiso   1.00
C1005  C     0.77868   0.94929   0.42749   0.00000  Uiso   1.00
H1006  H     0.77604   0.91222   0.43009   0.00000  Uiso   1.00
H1007  H     0.74714   0.96067   0.43202   0.00000  Uiso   1.00
H1008  H     0.78677   0.95660   0.38953   0.00000  Uiso   1.00
O1009  O     0.10655   0.20625   0.83333   0.00000  Uiso   1.00
O1010  O     0.22679   0.12709   0.83334   0.00000  Uiso   1.00
O1011  O     0.22679   0.20625   0.83334   0.00000  Uiso   1.00
O1012  O     0.10655   0.12709   0.83333   0.00000  Uiso   1.00
C1013  C     0.08756   0.16605   0.83363   0.00000  Uiso   1.00
C1014  C     0.24577   0.16729   0.83303   0.00000  Uiso   1.00
O1015  O     0.16667   0.20625   0.76280   0.00000  Uiso   1.00
O1016  O     0.16667   0.12708   0.90387   0.00000  Uiso   1.00
O1017  O     0.16667   0.20625   0.90387   0.00000  Uiso   1.00
O1018  O     0.16667   0.12708   0.76280   0.00000  Uiso   1.00
C1019  C     0.16645   0.16651   0.74036   0.00000  Uiso   1.00
C1020  C     0.16688   0.16682   0.92630   0.00000  Uiso   1.00
Cu1021 Cu    0.16667   0.21355   0.83333   0.00000  Uiso   1.00
Cu1022 Cu    0.16667   0.11978   0.83333   0.00000  Uiso   1.00
C1023  C     0.16659   0.16646   0.68855   0.00000  Uiso   1.00
C1024  C     0.16675   0.16687   0.97812   0.00000  Uiso   1.00
C1025  C     0.01811   0.12995   0.81035   0.00000  Uiso   1.00
C1026  C     0.31523   0.20338   0.85631   0.00000  Uiso   1.00
C1027  C     0.30875   0.13208   0.80760   0.00000  Uiso   1.00
C1028  C     0.02458   0.20126   0.85907   0.00000  Uiso   1.00
C1029  C     0.29042   0.16833   0.83145   0.00000  Uiso   1.00
C1030  C     0.04292   0.16500   0.83522   0.00000  Uiso   1.00
C1031  C     0.14323   0.02366   0.79753   0.00000  Uiso   1.00
C1032  C     0.19011   0.30968   0.86914   0.00000  Uiso   1.00
C1033  C     0.19118   0.02574   0.86823   0.00000  Uiso   1.00
C1034  C     0.14215   0.30759   0.79844   0.00000  Uiso   1.00
N1035  N     0.16667   0.28402   0.83333   0.00000  Uiso   1.00
N1036  N     0.16667   0.04931   0.83333   0.00000  Uiso   1.00
N1037  N     0.03574   0.09265   0.78598   0.00000  Uiso   1.00
O1038  O     0.04511   0.05590   0.81101   0.00000  Uiso   1.00
O1039  O     0.03154   0.09027   0.73793   0.00000  Uiso   1.00
N1040  N     0.29759   0.24068   0.88069   0.00000  Uiso   1.00
O1041  O     0.28821   0.27744   0.85566   0.00000  Uiso   1.00
O1042  O     0.30179   0.24307   0.92874   0.00000  Uiso   1.00
N1043  N     0.28417   0.09805   0.77868   0.00000  Uiso   1.00
O1044  O     0.25940   0.11045   0.74122   0.00000  Uiso   1.00
O1045  O     0.28718   0.05462   0.78897   0.00000  Uiso   1.00
N1046  N     0.04916   0.23528   0.88799   0.00000  Uiso   1.00
O1047  O     0.07393   0.22288   0.92545   0.00000  Uiso   1.00
O1048  O     0.04615   0.27872   0.87770   0.00000  Uiso   1.00
C1049  C     0.12143   0.04737   0.75365   0.00000  Uiso   1.00
H1050  H     0.10981   0.08055   0.76402   0.00000  Uiso   1.00
H1051  H     0.14266   0.05157   0.72441   0.00000  Uiso   1.00
H1052  H     0.09351   0.02904   0.73691   0.00000  Uiso   1.00
C1053  C     0.21191   0.28596   0.91301   0.00000  Uiso   1.00
H1054  H     0.22352   0.25278   0.90264   0.00000  Uiso   1.00
H1055  H     0.23983   0.30430   0.92976   0.00000  Uiso   1.00
H1056  H     0.19067   0.28176   0.94225   0.00000  Uiso   1.00
C1057  C     0.22132   0.05071   0.90584   0.00000  Uiso   1.00
H1058  H     0.22396   0.08778   0.90324   0.00000  Uiso   1.00
H1059  H     0.21323   0.04340   0.94380   0.00000  Uiso   1.00
H1060  H     0.25286   0.03933   0.90131   0.00000  Uiso   1.00
C1061  C     0.11202   0.28262   0.76083   0.00000  Uiso   1.00
H1062  H     0.10937   0.24556   0.76343   0.00000  Uiso   1.00
H1063  H     0.08047   0.29401   0.76536   0.00000  Uiso   1.00
H1064  H     0.12010   0.28993   0.72286   0.00000  Uiso   1.00
O1065  O     0.43988   0.20625   0.83333   0.00000  Uiso   1.00
O1066  O     0.56012   0.12709   0.83334   0.00000  Uiso   1.00
O1067  O     0.56012   0.20625   0.83334   0.00000  Uiso   1.00
O1068  O     0.43988   0.12709   0.83333   0.00000  Uiso   1.00
C1069  C     0.42089   0.16605   0.83363   0.00000  Uiso   1.00
C1070  C     0.57911   0.16729   0.83303   0.00000  Uiso   1.00
O1071  O     0.50000   0.20625   0.76280   0.00000  Uiso   1.00
O1072  O     0.50000   0.12708   0.90387   0.00000  Uiso   1.00
O1073  O     0.50000   0.20625   0.90387   0.00000  Uiso   1.00
O1074  O     0.50000   0.12708   0.76280   0.00000  Uiso   1.00
C1075  C     0.49979   0.16651   0.74036   0.00000  Uiso   1.00
C1076  C     0.50021   0.16682   0.92630   0.00000  Uiso   1.00
Cu1077 Cu    0.50000   0.21355   0.83333   0.00000  Uiso   1.00
Cu1078 Cu    0.50000   0.11978   0.83333   0.00000  Uiso   1.00
C1079  C     0.49992   0.16646   0.68855   0.00000  Uiso   1.00
C1080  C     0.50008   0.16687   0.97812   0.00000  Uiso   1.00
C1081  C     0.35144   0.12995   0.81035   0.00000  Uiso   1.00
C1082  C     0.64856   0.20338   0.85631   0.00000  Uiso   1.00
C1083  C     0.64208   0.13208   0.80760   0.00000  Uiso   1.00
C1084  C     0.35792   0.20126   0.85907   0.00000  Uiso   1.00
C1085  C     0.62375   0.16833   0.83145   0.00000  Uiso   1.00
C1086  C     0.37625   0.16500   0.83522   0.00000  Uiso   1.00
C1087  C     0.47656   0.02366   0.79753   0.00000  Uiso   1.00
C1088  C     0.52344   0.30968   0.86914   0.00000  Uiso   1.00
C1089  C     0.52451   0.02574   0.86823   0.00000  Uiso   1.00
C1090  C     0.47549   0.30759   0.79844   0.00000  Uiso   1.00
N1091  N     0.50000   0.28402   0.83333   0.00000  Uiso   1.00
N1092  N     0.50000   0.04931   0.83333   0.00000  Uiso   1.00
N1093  N     0.36907   0.09265   0.78598   0.00000  Uiso   1.00
O1094  O     0.37845   0.05590   0.81101   0.00000  Uiso   1.00
O1095  O     0.36488   0.09027   0.73793   0.00000  Uiso   1.00
N1096  N     0.63093   0.24068   0.88069   0.00000  Uiso   1.00
O1097  O     0.62155   0.27744   0.85566   0.00000  Uiso   1.00
O1098  O     0.63513   0.24307   0.92874   0.00000  Uiso   1.00
N1099  N     0.61750   0.09805   0.77868   0.00000  Uiso   1.00
O1100  O     0.59274   0.11045   0.74122   0.00000  Uiso   1.00
O1101  O     0.62051   0.05462   0.78897   0.00000  Uiso   1.00
N1102  N     0.38250   0.23528   0.88799   0.00000  Uiso   1.00
O1103  O     0.40726   0.22288   0.92545   0.00000  Uiso   1.00
O1104  O     0.37948   0.27872   0.87770   0.00000  Uiso   1.00
C1105  C     0.45476   0.04737   0.75365   0.00000  Uiso   1.00
H1106  H     0.44314   0.08055   0.76402   0.00000  Uiso   1.00
H1107  H     0.47600   0.05157   0.72441   0.00000  Uiso   1.00
H1108  H     0.42684   0.02904   0.73691   0.00000  Uiso   1.00
C1109  C     0.54524   0.28596   0.91301   0.00000  Uiso   1.00
H1110  H     0.55686   0.25278   0.90264   0.00000  Uiso   1.00
H1111  H     0.57316   0.30430   0.92976   0.00000  Uiso   1.00
H1112  H     0.52400   0.28176   0.94225   0.00000  Uiso   1.00
C1113  C     0.55465   0.05071   0.90584   0.00000  Uiso   1.00
H1114  H     0.55730   0.08778   0.90324   0.00000  Uiso   1.00
H1115  H     0.54657   0.04340   0.94380   0.00000  Uiso   1.00
H1116  H     0.58619   0.03933   0.90131   0.00000  Uiso   1.00
C1117  C     0.44535   0.28262   0.76083   0.00000  Uiso   1.00
H1118  H     0.44270   0.24556   0.76343   0.00000  Uiso   1.00
H1119  H     0.41381   0.29401   0.76536   0.00000  Uiso   1.00
H1120  H     0.45343   0.28993   0.72286   0.00000  Uiso   1.00
O1121  O     0.77321   0.20625   0.83333   0.00000  Uiso   1.00
O1122  O     0.89345   0.12709   0.83334   0.00000  Uiso   1.00
O1123  O     0.89345   0.20625   0.83334   0.00000  Uiso   1.00
O1124  O     0.77321   0.12709   0.83333   0.00000  Uiso   1.00
C1125  C     0.75423   0.16605   0.83363   0.00000  Uiso   1.00
C1126  C     0.91244   0.16729   0.83303   0.00000  Uiso   1.00
O1127  O     0.83333   0.20625   0.76280   0.00000  Uiso   1.00
O1128  O     0.83333   0.12708   0.90387   0.00000  Uiso   1.00
O1129  O     0.83333   0.20625   0.90387   0.00000  Uiso   1.00
O1130  O     0.83333   0.12708   0.76280   0.00000  Uiso   1.00
C1131  C     0.83312   0.16651   0.74036   0.00000  Uiso   1.00
C1132  C     0.83355   0.16682   0.92630   0.00000  Uiso   1.00
Cu1133 Cu    0.83333   0.21355   0.83333   0.00000  Uiso   1.00
Cu1134 Cu    0.83333   0.11978   0.83333   0.00000  Uiso   1.00
C1135  C     0.83325   0.16646   0.68855   0.00000  Uiso   1.00
C1136  C     0.83341   0.16687   0.97812   0.00000  Uiso   1.00
C1137  C     0.68477   0.12995   0.81035   0.00000  Uiso   1.00
C1138  C     0.98189   0.20338   0.85631   0.00000  Uiso   1.00
C1139  C     0.97542   0.13208   0.80760   0.00000  Uiso   1.00
C1140  C     0.69125   0.20126   0.85907   0.00000  Uiso   1.00
C1141  C     0.95708   0.16833   0.83145   0.00000  Uiso   1.00
C1142  C     0.70958   0.16500   0.83522   0.00000  Uiso   1.00
C1143  C     0.80989   0.02366   0.79753   0.00000  Uiso   1.00
C1144  C     0.85677   0.30968   0.86914   0.00000  Uiso   1.00
C1145  C     0.85785   0.02574   0.86823   0.00000  Uiso   1.00
C1146  C     0.80882   0.30759   0.79844   0.00000  Uiso   1.00
N1147  N     0.83333   0.28402   0.83333   0.00000  Uiso   1.00
N1148  N     0.83333   0.04931   0.83333   0.00000  Uiso   1.00
N1149  N     0.70241   0.09265   0.78598   0.00000  Uiso   1.00
O1150  O     0.71178   0.05590   0.81101   0.00000  Uiso   1.00
O1151  O     0.69821   0.09027   0.73793   0.00000  Uiso   1.00
N1152  N     0.96426   0.24068   0.88069   0.00000  Uiso   1.00
O1153  O     0.95488   0.27744   0.85566   0.00000  Uiso   1.00
O1154  O     0.96846   0.24307   0.92874   0.00000  Uiso   1.00
N1155  N     0.95084   0.09805   0.77868   0.00000  Uiso   1.00
O1156  O     0.92607   0.11045   0.74122   0.00000  Uiso   1.00
O1157  O     0.95385   0.05462   0.78897   0.00000  Uiso   1.00
N1158  N     0.71583   0.23528   0.88799   0.00000  Uiso   1.00
O1159  O     0.74060   0.22288   0.92545   0.00000  Uiso   1.00
O1160  O     0.71282   0.27872   0.87770   0.00000  Uiso   1.00
C1161  C     0.78809   0.04737   0.75365   0.00000  Uiso   1.00
H1162  H     0.77647   0.08055   0.76402   0.00000  Uiso   1.00
H1163  H     0.80933   0.05157   0.72441   0.00000  Uiso   1.00
H1164  H     0.76017   0.02904   0.73691   0.00000  Uiso   1.00
C1165  C     0.87857   0.28596   0.91301   0.00000  Uiso   1.00
H1166  H     0.89019   0.25278   0.90264   0.00000  Uiso   1.00
H1167  H     0.90650   0.30430   0.92976   0.00000  Uiso   1.00
H1168  H     0.85734   0.28176   0.94225   0.00000  Uiso   1.00
C1169  C     0.88798   0.05071   0.90584   0.00000  Uiso   1.00
H1170  H     0.89063   0.08778   0.90324   0.00000  Uiso   1.00
H1171  H     0.87990   0.04340   0.94380   0.00000  Uiso   1.00
H1172  H     0.91953   0.03933   0.90131   0.00000  Uiso   1.00
C1173  C     0.77868   0.28262   0.76083   0.00000  Uiso   1.00
H1174  H     0.77604   0.24556   0.76343   0.00000  Uiso   1.00
H1175  H     0.74714   0.29401   0.76536   0.00000  Uiso   1.00
H1176  H     0.78677   0.28993   0.72286   0.00000  Uiso   1.00
O1177  O     0.10655   0.53958   0.83333   0.00000  Uiso   1.00
O1178  O     0.22679   0.46042   0.83334   0.00000  Uiso   1.00
O1179  O     0.22679   0.53958   0.83334   0.00000  Uiso   1.00
O1180  O     0.10655   0.46042   0.83333   0.00000  Uiso   1.00
C1181  C     0.08756   0.49938   0.83363   0.00000  Uiso   1.00
C1182  C     0.24577   0.50062   0.83303   0.00000  Uiso   1.00
O1183  O     0.16667   0.53959   0.76280   0.00000  Uiso   1.00
O1184  O     0.16667   0.46041   0.90387   0.00000  Uiso   1.00
O1185  O     0.16667   0.53959   0.90387   0.00000  Uiso   1.00
O1186  O     0.16667   0.46041   0.76280   0.00000  Uiso   1.00
C1187  C     0.16645   0.49984   0.74036   0.00000  Uiso   1.00
C1188  C     0.16688   0.50016   0.92630   0.00000  Uiso   1.00
Cu1189 Cu    0.16667   0.54689   0.83333   0.00000  Uiso   1.00
Cu1190 Cu    0.16667   0.45311   0.83333   0.00000  Uiso   1.00
C1191  C     0.16659   0.49979   0.68855   0.00000  Uiso   1.00
C1192  C     0.16675   0.50021   0.97812   0.00000  Uiso   1.00
C1193  C     0.01811   0.46328   0.81035   0.00000  Uiso   1.00
C1194  C     0.31523   0.53672   0.85631   0.00000  Uiso   1.00
C1195  C     0.30875   0.46541   0.80760   0.00000  Uiso   1.00
C1196  C     0.02458   0.53459   0.85907   0.00000  Uiso   1.00
C1197  C     0.29042   0.50166   0.83145   0.00000  Uiso   1.00
C1198  C     0.04292   0.49834   0.83522   0.00000  Uiso   1.00
C1199  C     0.14323   0.35699   0.79753   0.00000  Uiso   1.00
C1200  C     0.19011   0.64301   0.86914   0.00000  Uiso   1.00
C1201  C     0.19118   0.35907   0.86823   0.00000  Uiso   1.00
C1202  C     0.14215   0.64092   0.79844   0.00000  Uiso   1.00
N1203  N     0.16667   0.61736   0.83333   0.00000  Uiso   1.00
N1204  N     0.16667   0.38264   0.83333   0.00000  Uiso   1.00
N1205  N     0.03574   0.42599   0.78598   0.00000  Uiso   1.00
O1206  O     0.04511   0.38923   0.81101   0.00000  Uiso   1.00
O1207  O     0.03154   0.42360   0.73793   0.00000  Uiso   1.00
N1208  N     0.29759   0.57401   0.88069   0.00000  Uiso   1.00
O1209  O     0.28821   0.61077   0.85566   0.00000  Uiso   1.00
O1210  O     0.30179   0.57640   0.92874   0.00000  Uiso   1.00
N1211  N     0.28417   0.43139   0.77868   0.00000  Uiso   1.00
O1212  O     0.25940   0.44379   0.74122   0.00000  Uiso   1.00
O1213  O     0.28718   0.38795   0.78897   0.00000  Uiso   1.00
N1214  N     0.04916   0.56861   0.88799   0.00000  Uiso   1.00
O1215  O     0.07393   0.55621   0.92545   0.00000  Uiso   1.00
O1216  O     0.04615   0.61205   0.87770   0.00000  Uiso   1.00
C1217  C     0.12143   0.38070   0.75365   0.00000  Uiso   1.00
H1218  H     0.10981   0.41389   0.76402   0.00000  Uiso   1.00
H1219  H     0.14266   0.38491   0.72441   0.00000  Uiso   1.00
H1220  H     0.09351   0.36237   0.73691   0.00000  Uiso   1.00
C1221  C     0.21191   0.61930   0.91301   0.00000  Uiso   1.00
H1222  H     0.22352   0.58611   0.90264   0.00000  Uiso   1.00
H1223  H     0.23983   0.63763   0.92976   0.00000  Uiso   1.00
H1224  H     0.19067   0.61509   0.94225   0.00000  Uiso   1.00
C1225  C     0.22132   0.38404   0.90584   0.00000  Uiso   1.00
H1226  H     0.22396   0.42111   0.90324   0.00000  Uiso   1.00
H1227  H     0.21323   0.37673   0.94380   0.00000  Uiso   1.00
H1228  H     0.25286   0.37266   0.90131   0.00000  Uiso   1.00
C1229  C     0.11202   0.61596   0.76083   0.00000  Uiso   1.00
H1230  H     0.10937   0.57889   0.76343   0.00000  Uiso   1.00
H1231  H     0.08047   0.62734   0.76536   0.00000  Uiso   1.00
H1232  H     0.12010   0.62327   0.72286   0.00000  Uiso   1.00
O1233  O     0.43988   0.53958   0.83333   0.00000  Uiso   1.00
O1234  O     0.56012   0.46042   0.83334   0.00000  Uiso   1.00
O1235  O     0.56012   0.53958   0.83334   0.00000  Uiso   1.00
O1236  O     0.43988   0.46042   0.83333   0.00000  Uiso   1.00
C1237  C     0.42089   0.49938   0.83363   0.00000  Uiso   1.00
C1238  C     0.57911   0.50062   0.83303   0.00000  Uiso   1.00
O1239  O     0.50000   0.53959   0.76280   0.00000  Uiso   1.00
O1240  O     0.50000   0.46041   0.90387   0.00000  Uiso   1.00
O1241  O     0.50000   0.53959   0.90387   0.00000  Uiso   1.00
O1242  O     0.50000   0.46041   0.76280   0.00000  Uiso   1.00
C1243  C     0.49979   0.49984   0.74036   0.00000  Uiso   1.00
C1244  C     0.50021   0.50016   0.92630   0.00000  Uiso   1.00
Cu1245 Cu    0.50000   0.54689   0.83333   0.00000  Uiso   1.00
Cu1246 Cu    0.50000   0.45311   0.83333   0.00000  Uiso   1.00
C1247  C     0.49992   0.49979   0.68855   0.00000  Uiso   1.00
C1248  C     0.50008   0.50021   0.97812   0.00000  Uiso   1.00
C1249  C     0.35144   0.46328   0.81035   0.00000  Uiso   1.00
C1250  C     0.64856   0.53672   0.85631   0.00000  Uiso   1.00
C1251  C     0.64208   0.46541   0.80760   0.00000  Uiso   1.00
C1252  C     0.35792   0.53459   0.85907   0.00000  Uiso   1.00
C1253  C     0.62375   0.50166   0.83145   0.00000  Uiso   1.00
C1254  C     0.37625   0.49834   0.83522   0.00000  Uiso   1.00
C1255  C     0.47656   0.35699   0.79753   0.00000  Uiso   1.00
C1256  C     0.52344   0.64301   0.86914   0.00000  Uiso   1.00
C1257  C     0.52451   0.35907   0.86823   0.00000  Uiso   1.00
C1258  C     0.47549   0.64092   0.79844   0.00000  Uiso   1.00
N1259  N     0.50000   0.61736   0.83333   0.00000  Uiso   1.00
N1260  N     0.50000   0.38264   0.83333   0.00000  Uiso   1.00
N1261  N     0.36907   0.42599   0.78598   0.00000  Uiso   1.00
O1262  O     0.37845   0.38923   0.81101   0.00000  Uiso   1.00
O1263  O     0.36488   0.42360   0.73793   0.00000  Uiso   1.00
N1264  N     0.63093   0.57401   0.88069   0.00000  Uiso   1.00
O1265  O     0.62155   0.61077   0.85566   0.00000  Uiso   1.00
O1266  O     0.63513   0.57640   0.92874   0.00000  Uiso   1.00
N1267  N     0.61750   0.43139   0.77868   0.00000  Uiso   1.00
O1268  O     0.59274   0.44379   0.74122   0.00000  Uiso   1.00
O1269  O     0.62051   0.38795   0.78897   0.00000  Uiso   1.00
N1270  N     0.38250   0.56861   0.88799   0.00000  Uiso   1.00
O1271  O     0.40726   0.55621   0.92545   0.00000  Uiso   1.00
O1272  O     0.37948   0.61205   0.87770   0.00000  Uiso   1.00
C1273  C     0.45476   0.38070   0.75365   0.00000  Uiso   1.00
H1274  H     0.44314   0.41389   0.76402   0.00000  Uiso   1.00
H1275  H     0.47600   0.38491   0.72441   0.00000  Uiso   1.00
H1276  H     0.42684   0.36237   0.73691   0.00000  Uiso   1.00
C1277  C     0.54524   0.61930   0.91301   0.00000  Uiso   1.00
H1278  H     0.55686   0.58611   0.90264   0.00000  Uiso   1.00
H1279  H     0.57316   0.63763   0.92976   0.00000  Uiso   1.00
H1280  H     0.52400   0.61509   0.94225   0.00000  Uiso   1.00
C1281  C     0.55465   0.38404   0.90584   0.00000  Uiso   1.00
H1282  H     0.55730   0.42111   0.90324   0.00000  Uiso   1.00
H1283  H     0.54657   0.37673   0.94380   0.00000  Uiso   1.00
H1284  H     0.58619   0.37266   0.90131   0.00000  Uiso   1.00
C1285  C     0.44535   0.61596   0.76083   0.00000  Uiso   1.00
H1286  H     0.44270   0.57889   0.76343   0.00000  Uiso   1.00
H1287  H     0.41381   0.62734   0.76536   0.00000  Uiso   1.00
H1288  H     0.45343   0.62327   0.72286   0.00000  Uiso   1.00
O1289  O     0.77321   0.53958   0.83333   0.00000  Uiso   1.00
O1290  O     0.89345   0.46042   0.83334   0.00000  Uiso   1.00
O1291  O     0.89345   0.53958   0.83334   0.00000  Uiso   1.00
O1292  O     0.77321   0.46042   0.83333   0.00000  Uiso   1.00
C1293  C     0.75423   0.49938   0.83363   0.00000  Uiso   1.00
C1294  C     0.91244   0.50062   0.83303   0.00000  Uiso   1.00
O1295  O     0.83333   0.53959   0.76280   0.00000  Uiso   1.00
O1296  O     0.83333   0.46041   0.90387   0.00000  Uiso   1.00
O1297  O     0.83333   0.53959   0.90387   0.00000  Uiso   1.00
O1298  O     0.83333   0.46041   0.76280   0.00000  Uiso   1.00
C1299  C     0.83312   0.49984   0.74036   0.00000  Uiso   1.00
C1300  C     0.83355   0.50016   0.92630   0.00000  Uiso   1.00
Cu1301 Cu    0.83333   0.54689   0.83333   0.00000  Uiso   1.00
Cu1302 Cu    0.83333   0.45311   0.83333   0.00000  Uiso   1.00
C1303  C     0.83325   0.49979   0.68855   0.00000  Uiso   1.00
C1304  C     0.83341   0.50021   0.97812   0.00000  Uiso   1.00
C1305  C     0.68477   0.46328   0.81035   0.00000  Uiso   1.00
C1306  C     0.98189   0.53672   0.85631   0.00000  Uiso   1.00
C1307  C     0.97542   0.46541   0.80760   0.00000  Uiso   1.00
C1308  C     0.69125   0.53459   0.85907   0.00000  Uiso   1.00
C1309  C     0.95708   0.50166   0.83145   0.00000  Uiso   1.00
C1310  C     0.70958   0.49834   0.83522   0.00000  Uiso   1.00
C1311  C     0.80989   0.35699   0.79753   0.00000  Uiso   1.00
C1312  C     0.85677   0.64301   0.86914   0.00000  Uiso   1.00
C1313  C     0.85785   0.35907   0.86823   0.00000  Uiso   1.00
C1314  C     0.80882   0.64092   0.79844   0.00000  Uiso   1.00
N1315  N     0.83333   0.61736   0.83333   0.00000  Uiso   1.00
N1316  N     0.83333   0.38264   0.83333   0.00000  Uiso   1.00
N1317  N     0.70241   0.42599   0.78598   0.00000  Uiso   1.00
O1318  O     0.71178   0.38923   0.81101   0.00000  Uiso   1.00
O1319  O     0.69821   0.42360   0.73793   0.00000  Uiso   1.00
N1320  N     0.96426   0.57401   0.88069   0.00000  Uiso   1.00
O1321  O     0.95488   0.61077   0.85566   0.00000  Uiso   1.00
O1322  O     0.96846   0.57640   0.92874   0.00000  Uiso   1.00
N1323  N     0.95084   0.43139   0.77868   0.00000  Uiso   1.00
O1324  O     0.92607   0.44379   0.74122   0.00000  Uiso   1.00
O1325  O     0.95385   0.38795   0.78897   0.00000  Uiso   1.00
N1326  N     0.71583   0.56861   0.88799   0.00000  Uiso   1.00
O1327  O     0.74060   0.55621   0.92545   0.00000  Uiso   1.00
O1328  O     0.71282   0.61205   0.87770   0.00000  Uiso   1.00
C1329  C     0.78809   0.38070   0.75365   0.00000  Uiso   1.00
H1330  H     0.77647   0.41389   0.76402   0.00000  Uiso   1.00
H1331  H     0.80933   0.38491   0.72441   0.00000  Uiso   1.00
H1332  H     0.76017   0.36237   0.73691   0.00000  Uiso   1.00
C1333  C     0.87857   0.61930   0.91301   0.00000  Uiso   1.00
H1334  H     0.89019   0.58611   0.90264   0.00000  Uiso   1.00
H1335  H     0.90650   0.63763   0.92976   0.00000  Uiso   1.00
H1336  H     0.85734   0.61509   0.94225   0.00000  Uiso   1.00
C1337  C     0.88798   0.38404   0.90584   0.00000  Uiso   1.00
H1338  H     0.89063   0.42111   0.90324   0.00000  Uiso   1.00
H1339  H     0.87990   0.37673   0.94380   0.00000  Uiso   1.00
H1340  H     0.91953   0.37266   0.90131   0.00000  Uiso   1.00
C1341  C     0.77868   0.61596   0.76083   0.00000  Uiso   1.00
H1342  H     0.77604   0.57889   0.76343   0.00000  Uiso   1.00
H1343  H     0.74714   0.62734   0.76536   0.00000  Uiso   1.00
H1344  H     0.78677   0.62327   0.72286   0.00000  Uiso   1.00
O1345  O     0.10655   0.87291   0.83333   0.00000  Uiso   1.00
O1346  O     0.22679   0.79375   0.83334   0.00000  Uiso   1.00
O1347  O     0.22679   0.87291   0.83334   0.00000  Uiso   1.00
O1348  O     0.10655   0.79375   0.83333   0.00000  Uiso   1.00
C1349  C     0.08756   0.83271   0.83363   0.00000  Uiso   1.00
C1350  C     0.24577   0.83395   0.83303   0.00000  Uiso   1.00
O1351  O     0.16667   0.87292   0.76280   0.00000  Uiso   1.00
O1352  O     0.16667   0.79375   0.90387   0.00000  Uiso   1.00
O1353  O     0.16667   0.87292   0.90387   0.00000  Uiso   1.00
O1354  O     0.16667   0.79375   0.76280   0.00000  Uiso   1.00
C1355  C     0.16645   0.83318   0.74036   0.00000  Uiso   1.00
C1356  C     0.16688   0.83349   0.92630   0.00000  Uiso   1.00
Cu1357 Cu    0.16667   0.88022   0.83333   0.00000  Uiso   1.00
Cu1358 Cu    0.16667   0.78645   0.83333   0.00000  Uiso   1.00
C1359  C     0.16659   0.83312   0.68855   0.00000  Uiso   1.00
C1360  C     0.16675   0.83354   0.97812   0.00000  Uiso   1.00
C1361  C     0.01811   0.79661   0.81035   0.00000  Uiso   1.00
C1362  C     0.31523   0.87005   0.85631   0.00000  Uiso   1.00
C1363  C     0.30875   0.79874   0.80760   0.00000  Uiso   1.00
C1364  C     0.02458   0.86792   0.85907   0.00000  Uiso   1.00
C1365  C     0.29042   0.83500   0.83145   0.00000  Uiso   1.00
C1366  C     0.04292   0.83167   0.83522   0.00000  Uiso   1.00
C1367  C     0.14323   0.69032   0.79753   0.00000  Uiso   1.00
C1368  C     0.19011   0.97634   0.86914   0.00000  Uiso   1.00
C1369  C     0.19118   0.69241   0.86823   0.00000  Uiso   1.00
C1370  C     0.14215   0.97426   0.79844   0.00000  Uiso   1.00
N1371  N     0.16667   0.95069   0.83333   0.00000  Uiso   1.00
N1372  N     0.16667   0.71598   0.83333   0.00000  Uiso   1.00
N1373  N     0.03574   0.75932   0.78598   0.00000  Uiso   1.00
O1374  O     0.04511   0.72256   0.81101   0.00000  Uiso   1.00
O1375  O     0.03154   0.75694   0.73793   0.00000  Uiso   1.00
N1376  N     0.29759   0.90735   0.88069   0.00000  Uiso   1.00
O1377  O     0.28821   0.94410   0.85566   0.00000  Uiso   1.00
O1378  O     0.30179   0.90974   0.92874   0.00000  Uiso   1.00
N1379  N     0.28417   0.76472   0.77868   0.00000  Uiso   1.00
O1380  O     0.25940   0.77712   0.74122   0.00000  Uiso   1.00
O1381  O     0.28718   0.72128   0.78897   0.00000  Uiso   1.00
N1382  N     0.04916   0.90194   0.88799   0.00000  Uiso   1.00
O1383  O     0.07393   0.88954   0.92545   0.00000  Uiso   1.00
O1384  O     0.04615   0.94538   0.87770   0.00000  Uiso   1.00
C1385  C     0.12143   0.71404   0.75365   0.00000  Uiso   1.00
H1386  H     0.10981   0.74722   0.76402   0.00000  Uiso   1.00
H1387  H     0.14266   0.71824   0.72441   0.00000  Uiso   1.00
H1388  H     0.09351   0.69570   0.73691   0.00000  Uiso   1.00
C1389  C     0.21191   0.95263   0.91301   0.00000  Uiso   1.00
H1390  H     0.22352   0.91945   0.90264   0.00000  Uiso   1.00
H1391  H     0.23983   0.97096   0.92976   0.00000  Uiso   1.00
H1392  H     0.19067   0.94843   0.94225   0.00000  Uiso   1.00
C1393  C     0.22132   0.71738   0.90584   0.00000  Uiso   1.00
H1394  H     0.22396   0.75444   0.90324   0.00000  Uiso   1.00
H1395  H     0.21323   0.71007   0.94380   0.00000  Uiso   1.00
H1396  H     0.25286   0.70599   0.90131   0.00000  Uiso   1.00
C1397  C     0.11202   0.94929   0.76083   0.00000  Uiso   1.00
H1398  H     0.10937   0.91222   0.76343   0.00000  Uiso   1.00
H1399  H     0.08047   0.96067   0.76536   0.00000  Uiso   1.00
H1400  H     0.12010   0.95660   0.72286   0.00000  Uiso   1.00
O1401  O     0.43988   0.87291   0.83333   0.00000  Uiso   1.00
O1402  O     0.56012   0.79375   0.83334   0.00000  Uiso   1.00
O1403  O     0.56012   0.87291   0.83334   0.00000  Uiso   1.00
O1404  O     0.43988   0.79375   0.83333   0.00000  Uiso   1.00
C1405  C     0.42089   0.83271   0.83363   0.00000  Uiso   1.00
C1406  C     0.57911   0.83395   0.83303   0.00000  Uiso   1.00
O1407  O     0.50000   0.87292   0.76280   0.00000  Uiso   1.00
O1408  O     0.50000   0.79375   0.90387   0.00000  Uiso   1.00
O1409  O     0.50000   0.87292   0.90387   0.00000  Uiso   1.00
O1410  O     0.50000   0.79375   0.76280   0.00000  Uiso   1.00
C1411  C     0.49979   0.83318   0.74036   0.00000  Uiso   1.00
C1412  C     0.50021   0.83349   0.92630   0.00000  Uiso   1.00
Cu1413 Cu    0.50000   0.88022   0.83333   0.00000  Uiso   1.00
Cu1414 Cu    0.50000   0.78645   0.83333   0.00000  Uiso   1.00
C1415  C     0.49992   0.83312   0.68855   0.00000  Uiso   1.00
C1416  C     0.50008   0.83354   0.97812   0.00000  Uiso   1.00
C1417  C     0.35144   0.79661   0.81035   0.00000  Uiso   1.00
C1418  C     0.64856   0.87005   0.85631   0.00000  Uiso   1.00
C1419  C     0.64208   0.79874   0.80760   0.00000  Uiso   1.00
C1420  C     0.35792   0.86792   0.85907   0.00000  Uiso   1.00
C1421  C     0.62375   0.83500   0.83145   0.00000  Uiso   1.00
C1422  C     0.37625   0.83167   0.83522   0.00000  Uiso   1.00
C1423  C     0.47656   0.69032   0.79753   0.00000  Uiso   1.00
C1424  C     0.52344   0.97634   0.86914   0.00000  Uiso   1.00
C1425  C     0.52451   0.69241   0.86823   0.00000  Uiso   1.00
C1426  C     0.47549   0.97426   0.79844   0.00000  Uiso   1.00
N1427  N     0.50000   0.95069   0.83333   0.00000  Uiso   1.00
N1428  N     0.50000   0.71598   0.83333   0.00000  Uiso   1.00
N1429  N     0.36907   0.75932   0.78598   0.00000  Uiso   1.00
O1430  O     0.37845   0.72256   0.81101   0.00000  Uiso   1.00
O1431  O     0.36488   0.75694   0.73793   0.00000  Uiso   1.00
N1432  N     0.63093   0.90735   0.88069   0.00000  Uiso   1.00
O1433  O     0.62155   0.94410   0.85566   0.00000  Uiso   1.00
O1434  O     0.63513   0.90974   0.92874   0.00000  Uiso   1.00
N1435  N     0.61750   0.76472   0.77868   0.00000  Uiso   1.00
O1436  O     0.59274   0.77712   0.74122   0.00000  Uiso   1.00
O1437  O     0.62051   0.72128   0.78897   0.00000  Uiso   1.00
N1438  N     0.38250   0.90194   0.88799   0.00000  Uiso   1.00
O1439  O     0.40726   0.88954   0.92545   0.00000  Uiso   1.00
O1440  O     0.37948   0.94538   0.87770   0.00000  Uiso   1.00
C1441  C     0.45476   0.71404   0.75365   0.00000  Uiso   1.00
H1442  H     0.44314   0.74722   0.76402   0.00000  Uiso   1.00
H1443  H     0.47600   0.71824   0.72441   0.00000  Uiso   1.00
H1444  H     0.42684   0.69570   0.73691   0.00000  Uiso   1.00
C1445  C     0.54524   0.95263   0.91301   0.00000  Uiso   1.00
H1446  H     0.55686   0.91945   0.90264   0.00000  Uiso   1.00
H1447  H     0.57316   0.97096   0.92976   0.00000  Uiso   1.00
H1448  H     0.52400   0.94843   0.94225   0.00000  Uiso   1.00
C1449  C     0.55465   0.71738   0.90584   0.00000  Uiso   1.00
H1450  H     0.55730   0.75444   0.90324   0.00000  Uiso   1.00
H1451  H     0.54657   0.71007   0.94380   0.00000  Uiso   1.00
H1452  H     0.58619   0.70599   0.90131   0.00000  Uiso   1.00
C1453  C     0.44535   0.94929   0.76083   0.00000  Uiso   1.00
H1454  H     0.44270   0.91222   0.76343   0.00000  Uiso   1.00
H1455  H     0.41381   0.96067   0.76536   0.00000  Uiso   1.00
H1456  H     0.45343   0.95660   0.72286   0.00000  Uiso   1.00
O1457  O     0.77321   0.87291   0.83333   0.00000  Uiso   1.00
O1458  O     0.89345   0.79375   0.83334   0.00000  Uiso   1.00
O1459  O     0.89345   0.87291   0.83334   0.00000  Uiso   1.00
O1460  O     0.77321   0.79375   0.83333   0.00000  Uiso   1.00
C1461  C     0.75423   0.83271   0.83363   0.00000  Uiso   1.00
C1462  C     0.91244   0.83395   0.83303   0.00000  Uiso   1.00
O1463  O     0.83333   0.87292   0.76280   0.00000  Uiso   1.00
O1464  O     0.83333   0.79375   0.90387   0.00000  Uiso   1.00
O1465  O     0.83333   0.87292   0.90387   0.00000  Uiso   1.00
O1466  O     0.83333   0.79375   0.76280   0.00000  Uiso   1.00
C1467  C     0.83312   0.83318   0.74036   0.00000  Uiso   1.00
C1468  C     0.83355   0.83349   0.92630   0.00000  Uiso   1.00
Cu1469 Cu    0.83333   0.88022   0.83333   0.00000  Uiso   1.00
Cu1470 Cu    0.83333   0.78645   0.83333   0.00000  Uiso   1.00
C1471  C     0.83325   0.83312   0.68855   0.00000  Uiso   1.00
C1472  C     0.83341   0.83354   0.97812   0.00000  Uiso   1.00
C1473  C     0.68477   0.79661   0.81035   0.00000  Uiso   1.00
C1474  C     0.98189   0.87005   0.85631   0.00000  Uiso   1.00
C1475  C     0.97542   0.79874   0.80760   0.00000  Uiso   1.00
C1476  C     0.69125   0.86792   0.85907   0.00000  Uiso   1.00
C1477  C     0.95708   0.83500   0.83145   0.00000  Uiso   1.00
C1478  C     0.70958   0.83167   0.83522   0.00000  Uiso   1.00
C1479  C     0.80989   0.69032   0.79753   0.00000  Uiso   1.00
C1480  C     0.85677   0.97634   0.86914   0.00000  Uiso   1.00
C1481  C     0.85785   0.69241   0.86823   0.00000  Uiso   1.00
C1482  C     0.80882   0.97426   0.79844   0.00000  Uiso   1.00
N1483  N     0.83333   0.95069   0.83333   0.00000  Uiso   1.00
N1484  N     0.83333   0.71598   0.83333   0.00000  Uiso   1.00
N1485  N     0.70241   0.75932   0.78598   0.00000  Uiso   1.00
O1486  O     0.71178   0.72256   0.81101   0.00000  Uiso   1.00
O1487  O     0.69821   0.75694   0.73793   0.00000  Uiso   1.00
N1488  N     0.96426   0.90735   0.88069   0.00000  Uiso   1.00
O1489  O     0.95488   0.94410   0.85566   0.00000  Uiso   1.00
O1490  O     0.96846   0.90974   0.92874   0.00000  Uiso   1.00
N1491  N     0.95084   0.76472   0.77868   0.00000  Uiso   1.00
O1492  O     0.92607   0.77712   0.74122   0.00000  Uiso   1.00
O1493  O     0.95385   0.72128   0.78897   0.00000  Uiso   1.00
N1494  N     0.71583   0.90194   0.88799   0.00000  Uiso   1.00
O1495  O     0.74060   0.88954   0.92545   0.00000  Uiso   1.00
O1496  O     0.71282   0.94538   0.87770   0.00000  Uiso   1.00
C1497  C     0.78809   0.71404   0.75365   0.00000  Uiso   1.00
H1498  H     0.77647   0.74722   0.76402   0.00000  Uiso   1.00
H1499  H     0.80933   0.71824   0.72441   0.00000  Uiso   1.00
H1500  H     0.76017   0.69570   0.73691   0.00000  Uiso   1.00
C1501  C     0.87857   0.95263   0.91301   0.00000  Uiso   1.00
H1502  H     0.89019   0.91945   0.90264   0.00000  Uiso   1.00
H1503  H     0.90650   0.97096   0.92976   0.00000  Uiso   1.00
H1504  H     0.85734   0.94843   0.94225   0.00000  Uiso   1.00
C1505  C     0.88798   0.71738   0.90584   0.00000  Uiso   1.00
H1506  H     0.89063   0.75444   0.90324   0.00000  Uiso   1.00
H1507  H     0.87990   0.71007   0.94380   0.00000  Uiso   1.00
H1508  H     0.91953   0.70599   0.90131   0.00000  Uiso   1.00
C1509  C     0.77868   0.94929   0.76083   0.00000  Uiso   1.00
H1510  H     0.77604   0.91222   0.76343   0.00000  Uiso   1.00
H1511  H     0.74714   0.96067   0.76536   0.00000  Uiso   1.00
H1512  H     0.78677   0.95660   0.72286   0.00000  Uiso   1.00
loop_
_geom_bond_atom_site_label_1
_geom_bond_atom_site_label_2
_geom_bond_distance
_geom_bond_site_symmetry_2
_ccdc_geom_bond_type
O1     C5      1.310   .     A
O1     Cu13    1.974   .     S
O2     C6      1.310   .     A
O2     Cu14    1.974   .     S
O3     Cu13    1.986   .     S
O3     C6      1.307   .     A
O4     Cu14    1.986   .     S
O4     C5      1.307   .     A
C5     C22     1.466   .     S
C6     C21     1.466   .     S
O7     C11     1.301   .     A
O7     Cu13    1.927   .     S
O8     C12     1.301   .     A
O8     Cu14    1.927   .     S
O9     C12     1.305   .     A
O9     Cu13    1.932   .     S
O10    C11     1.305   .     A
O10    Cu14    1.932   .     S
C11    C15     1.409   .     S
C12    C16     1.409   .     S
Cu13   Cu14    2.727   .     S
Cu13   N27     2.050   .     S
Cu14   N28     2.050   .     S
C15    C1024   1.191   1_554 S
C16    C519    1.191   .     S
C17    N29     1.428   .     S
C17    C22     1.412   .     A
C17    C131    1.396   1_455 S
C18    C21     1.412   .     A
C18    N32     1.428   .     S
C18    C76     1.396   .     S
C19    N35     1.438   .     S
C19    C21     1.409   .     A
C19    C73     1.396   .     S
C20    N38     1.438   .     S
C20    C22     1.409   .     A
C20    C130    1.396   1_455 S
C23    N28     1.381   .     A
C23    C41     1.514   .     S
C23    C362    1.437   1_545 S
C24    N27     1.381   .     A
C24    C45     1.514   .     S
C24    C193    1.437   .     S
C25    N28     1.384   .     A
C25    C49     1.518   .     S
C25    C360    1.437   1_545 S
C26    N27     1.384   .     A
C26    C53     1.518   .     S
C26    C191    1.437   .     S
N29    O30     1.302   .     A
N29    O31     1.302   .     A
N32    O33     1.302   .     A
N32    O34     1.302   .     A
N35    O37     1.301   .     A
N35    O36     1.301   .     A
N38    O40     1.301   .     A
N38    O39     1.301   .     A
C41    H42     1.091   .     S
C41    H43     1.110   .     S
C41    H44     1.104   .     S
C45    H47     1.104   .     S
C45    H46     1.091   .     S
C45    H48     1.110   .     S
C49    H52     1.110   .     S
C49    H51     1.111   .     S
C49    H50     1.083   .     S
C53    H55     1.110   .     S
C53    H56     1.111   .     S
C53    H54     1.083   .     S
O57    C61     1.310   .     A
O57    Cu69    1.974   .     S
O58    C62     1.310   .     A
O58    Cu70    1.974   .     S
O59    Cu69    1.986   .     S
O59    C62     1.307   .     A
O60    Cu70    1.986   .     S
O60    C61     1.307   .     A
C61    C78     1.466   .     S
C62    C77     1.466   .     S
O63    C67     1.301   .     A
O63    Cu69    1.927   .     S
O64    C68     1.301   .     A
O64    Cu70    1.927   .     S
O65    C68     1.305   .     A
O65    Cu69    1.932   .     S
O66    C67     1.305   .     A
O66    Cu70    1.932   .     S
C67    C71     1.409   .     S
C68    C72     1.409   .     S
Cu69   Cu70    2.727   .     S
Cu69   N83     2.050   .     S
Cu70   N84     2.050   .     S
C71    C1080   1.191   1_554 S
C72    C575    1.191   .     S
C73    N85     1.428   .     S
C73    C78     1.412   .     A
C74    C77     1.412   .     A
C74    N88     1.428   .     S
C74    C132    1.396   .     S
C75    N91     1.438   .     S
C75    C77     1.409   .     A
C75    C129    1.396   .     S
C76    N94     1.438   .     S
C76    C78     1.409   .     A
C79    N84     1.381   .     A
C79    C97     1.514   .     S
C79    C418    1.437   1_545 S
C80    N83     1.381   .     A
C80    C101    1.514   .     S
C80    C249    1.437   .     S
C81    N84     1.384   .     A
C81    C105    1.518   .     S
C81    C416    1.437   1_545 S
C82    N83     1.384   .     A
C82    C109    1.518   .     S
C82    C247    1.437   .     S
N85    O86     1.302   .     A
N85    O87     1.302   .     A
N88    O89     1.302   .     A
N88    O90     1.302   .     A
N91    O93     1.301   .     A
N91    O92     1.301   .     A
N94    O96     1.301   .     A
N94    O95     1.301   .     A
C97    H98     1.091   .     S
C97    H99     1.110   .     S
C97    H100    1.104   .     S
C101   H103    1.104   .     S
C101   H102    1.091   .     S
C101   H104    1.110   .     S
C105   H108    1.110   .     S
C105   H107    1.111   .     S
C105   H106    1.083   .     S
C109   H111    1.110   .     S
C109   H112    1.111   .     S
C109   H110    1.083   .     S
O113   C117    1.310   .     A
O113   Cu125   1.974   .     S
O114   C118    1.310   .     A
O114   Cu126   1.974   .     S
O115   Cu125   1.986   .     S
O115   C118    1.307   .     A
O116   Cu126   1.986   .     S
O116   C117    1.307   .     A
C117   C134    1.466   .     S
C118   C133    1.466   .     S
O119   C123    1.301   .     A
O119   Cu125   1.927   .     S
O120   C124    1.301   .     A
O120   Cu126   1.927   .     S
O121   C124    1.305   .     A
O121   Cu125   1.932   .     S
O122   C123    1.305   .     A
O122   Cu126   1.932   .     S
C123   C127    1.409   .     S
C124   C128    1.409   .     S
Cu125  Cu126   2.727   .     S
Cu125  N139    2.050   .     S
Cu126  N140    2.050   .     S
C127   C1136   1.191   1_554 S
C128   C631    1.191   .     S
C129   N141    1.428   .     S
C129   C134    1.412   .     A
C130   C133    1.412   .     A
C130   N144    1.428   .     S
C130   C20     1.396   1_655 S
C131   N147    1.438   .     S
C131   C133    1.409   .     A
C131   C17     1.396   1_655 S
C132   N150    1.438   .     S
C132   C134    1.409   .     A
C135   N140    1.381   .     A
C135   C153    1.514   .     S
C135   C474    1.437   1_545 S
C136   N139    1.381   .     A
C136   C157    1.514   .     S
C136   C305    1.437   .     S
C137   N140    1.384   .     A
C137   C161    1.518   .     S
C137   C472    1.437   1_545 S
C138   N139    1.384   .     A
C138   C165    1.518   .     S
C138   C303    1.437   .     S
N141   O142    1.302   .     A
N141   O143    1.302   .     A
N144   O145    1.302   .     A
N144   O146    1.302   .     A
N147   O149    1.301   .     A
N147   O148    1.301   .     A
N150   O152    1.301   .     A
N150   O151    1.301   .     A
C153   H154    1.091   .     S
C153   H155    1.110   .     S
C153   H156    1.104   .     S
C157   H159    1.104   .     S
C157   H158    1.091   .     S
C157   H160    1.110   .     S
C161   H164    1.110   .     S
C161   H163    1.111   .     S
C161   H162    1.083   .     S
C165   H167    1.110   .     S
C165   H168    1.111   .     S
C165   H166    1.083   .     S
O169   C173    1.310   .     A
O169   Cu181   1.974   .     S
O170   C174    1.310   .     A
O170   Cu182   1.974   .     S
O171   Cu181   1.986   .     S
O171   C174    1.307   .     A
O172   Cu182   1.986   .     S
O172   C173    1.307   .     A
C173   C190    1.466   .     S
C174   C189    1.466   .     S
O175   C179    1.301   .     A
O175   Cu181   1.927   .     S
O176   C180    1.301   .     A
O176   Cu182   1.927   .     S
O177   C180    1.305   .     A
O177   Cu181   1.932   .     S
O178   C179    1.305   .     A
O178   Cu182   1.932   .     S
C179   C183    1.409   .     S
C180   C184    1.409   .     S
Cu181  Cu182   2.727   .     S
Cu181  N195    2.050   .     S
Cu182  N196    2.050   .     S
C183   C1192   1.191   1_554 S
C184   C687    1.191   .     S
C185   N197    1.428   .     S
C185   C190    1.412   .     A
C185   C299    1.396   1_455 S
C186   C189    1.412   .     A
C186   N200    1.428   .     S
C186   C244    1.396   .     S
C187   N203    1.438   .     S
C187   C189    1.409   .     A
C187   C241    1.396   .     S
C188   N206    1.438   .     S
C188   C190    1.409   .     A
C188   C298    1.396   1_455 S
C191   N196    1.381   .     A
C191   C209    1.514   .     S
C192   N195    1.381   .     A
C192   C213    1.514   .     S
C192   C361    1.437   .     S
C193   N196    1.384   .     A
C193   C217    1.518   .     S
C194   N195    1.384   .     A
C194   C221    1.518   .     S
C194   C359    1.437   .     S
N197   O198    1.302   .     A
N197   O199    1.302   .     A
N200   O201    1.302   .     A
N200   O202    1.302   .     A
N203   O205    1.301   .     A
N203   O204    1.301   .     A
N206   O208    1.301   .     A
N206   O207    1.301   .     A
C209   H210    1.091   .     S
C209   H211    1.110   .     S
C209   H212    1.104   .     S
C213   H215    1.104   .     S
C213   H214    1.091   .     S
C213   H216    1.110   .     S
C217   H220    1.110   .     S
C217   H219    1.111   .     S
C217   H218    1.083   .     S
C221   H223    1.110   .     S
C221   H224    1.111   .     S
C221   H222    1.083   .     S
O225   C229    1.310   .     A
O225   Cu237   1.974   .     S
O226   C230    1.310   .     A
O226   Cu238   1.974   .     S
O227   Cu237   1.986   .     S
O227   C230    1.307   .     A
O228   Cu238   1.986   .     S
O228   C229    1.307   .     A
C229   C246    1.466   .     S
C230   C245    1.466   .     S
O231   C235    1.301   .     A
O231   Cu237   1.927   .     S
O232   C236    1.301   .     A
O232   Cu238   1.927   .     S
O233   C236    1.305   .     A
O233   Cu237   1.932   .     S
O234   C235    1.305   .     A
O234   Cu238   1.932   .     S
C235   C239    1.409   .     S
C236   C240    1.409   .     S
Cu237  Cu238   2.727   .     S
Cu237  N251    2.050   .     S
Cu238  N252    2.050   .     S
C239   C1248   1.191   1_554 S
C240   C743    1.191   .     S
C241   N253    1.428   .     S
C241   C246    1.412   .     A
C242   C245    1.412   .     A
C242   N256    1.428   .     S
C242   C300    1.396   .     S
C243   N259    1.438   .     S
C243   C245    1.409   .     A
C243   C297    1.396   .     S
C244   N262    1.438   .     S
C244   C246    1.409   .     A
C247   N252    1.381   .     A
C247   C265    1.514   .     S
C248   N251    1.381   .     A
C248   C269    1.514   .     S
C248   C417    1.437   .     S
C249   N252    1.384   .     A
C249   C273    1.518   .     S
C250   N251    1.384   .     A
C250   C277    1.518   .     S
C250   C415    1.437   .     S
N253   O254    1.302   .     A
N253   O255    1.302   .     A
N256   O257    1.302   .     A
N256   O258    1.302   .     A
N259   O261    1.301   .     A
N259   O260    1.301   .     A
N262   O264    1.301   .     A
N262   O263    1.301   .     A
C265   H266    1.091   .     S
C265   H267    1.110   .     S
C265   H268    1.104   .     S
C269   H271    1.104   .     S
C269   H270    1.091   .     S
C269   H272    1.110   .     S
C273   H276    1.110   .     S
C273   H275    1.111   .     S
C273   H274    1.083   .     S
C277   H279    1.110   .     S
C277   H280    1.111   .     S
C277   H278    1.083   .     S
O281   C285    1.310   .     A
O281   Cu293   1.974   .     S
O282   C286    1.310   .     A
O282   Cu294   1.974   .     S
O283   Cu293   1.986   .     S
O283   C286    1.307   .     A
O284   Cu294   1.986   .     S
O284   C285    1.307   .     A
C285   C302    1.466   .     S
C286   C301    1.466   .     S
O287   C291    1.301   .     A
O287   Cu293   1.927   .     S
O288   C292    1.301   .     A
O288   Cu294   1.927   .     S
O289   C292    1.305   .     A
O289   Cu293   1.932   .     S
O290   C291    1.305   .     A
O290   Cu294   1.932   .     S
C291   C295    1.409   .     S
C292   C296    1.409   .     S
Cu293  Cu294   2.727   .     S
Cu293  N307    2.050   .     S
Cu294  N308    2.050   .     S
C295   C1304   1.191   1_554 S
C296   C799    1.191   .     S
C297   N309    1.428   .     S
C297   C302    1.412   .     A
C298   C301    1.412   .     A
C298   N312    1.428   .     S
C298   C188    1.396   1_655 S
C299   N315    1.438   .     S
C299   C301    1.409   .     A
C299   C185    1.396   1_655 S
C300   N318    1.438   .     S
C300   C302    1.409   .     A
C303   N308    1.381   .     A
C303   C321    1.514   .     S
C304   N307    1.381   .     A
C304   C325    1.514   .     S
C304   C473    1.437   .     S
C305   N308    1.384   .     A
C305   C329    1.518   .     S
C306   N307    1.384   .     A
C306   C333    1.518   .     S
C306   C471    1.437   .     S
N309   O310    1.302   .     A
N309   O311    1.302   .     A
N312   O313    1.302   .     A
N312   O314    1.302   .     A
N315   O317    1.301   .     A
N315   O316    1.301   .     A
N318   O320    1.301   .     A
N318   O319    1.301   .     A
C321   H322    1.091   .     S
C321   H323    1.110   .     S
C321   H324    1.104   .     S
C325   H327    1.104   .     S
C325   H326    1.091   .     S
C325   H328    1.110   .     S
C329   H332    1.110   .     S
C329   H331    1.111   .     S
C329   H330    1.083   .     S
C333   H335    1.110   .     S
C333   H336    1.111   .     S
C333   H334    1.083   .     S
O337   C341    1.310   .     A
O337   Cu349   1.974   .     S
O338   C342    1.310   .     A
O338   Cu350   1.974   .     S
O339   Cu349   1.986   .     S
O339   C342    1.307   .     A
O340   Cu350   1.986   .     S
O340   C341    1.307   .     A
C341   C358    1.466   .     S
C342   C357    1.466   .     S
O343   C347    1.301   .     A
O343   Cu349   1.927   .     S
O344   C348    1.301   .     A
O344   Cu350   1.927   .     S
O345   C348    1.305   .     A
O345   Cu349   1.932   .     S
O346   C347    1.305   .     A
O346   Cu350   1.932   .     S
C347   C351    1.409   .     S
C348   C352    1.409   .     S
Cu349  Cu350   2.727   .     S
Cu349  N363    2.050   .     S
Cu350  N364    2.050   .     S
C351   C1360   1.191   1_554 S
C352   C855    1.191   .     S
C353   N365    1.428   .     S
C353   C358    1.412   .     A
C353   C467    1.396   1_455 S
C354   C357    1.412   .     A
C354   N368    1.428   .     S
C354   C412    1.396   .     S
C355   N371    1.438   .     S
C355   C357    1.409   .     A
C355   C409    1.396   .     S
C356   N374    1.438   .     S
C356   C358    1.409   .     A
C356   C466    1.396   1_455 S
C359   N364    1.381   .     A
C359   C377    1.514   .     S
C360   N363    1.381   .     A
C360   C381    1.514   .     S
C360   C25     1.437   1_565 S
C361   N364    1.384   .     A
C361   C385    1.518   .     S
C362   N363    1.384   .     A
C362   C389    1.518   .     S
C362   C23     1.437   1_565 S
N365   O366    1.302   .     A
N365   O367    1.302   .     A
N368   O369    1.302   .     A
N368   O370    1.302   .     A
N371   O373    1.301   .     A
N371   O372    1.301   .     A
N374   O376    1.301   .     A
N374   O375    1.301   .     A
C377   H378    1.091   .     S
C377   H379    1.110   .     S
C377   H380    1.104   .     S
C381   H383    1.104   .     S
C381   H382    1.091   .     S
C381   H384    1.110   .     S
C385   H388    1.110   .     S
C385   H387    1.111   .     S
C385   H386    1.083   .     S
C389   H391    1.110   .     S
C389   H392    1.111   .     S
C389   H390    1.083   .     S
O393   C397    1.310   .     A
O393   Cu405   1.974   .     S
O394   C398    1.310   .     A
O394   Cu406   1.974   .     S
O395   Cu405   1.986   .     S
O395   C398    1.307   .     A
O396   Cu406   1.986   .     S
O396   C397    1.307   .     A
C397   C414    1.466   .     S
C398   C413    1.466   .     S
O399   C403    1.301   .     A
O399   Cu405   1.927   .     S
O400   C404    1.301   .     A
O400   Cu406   1.927   .     S
O401   C404    1.305   .     A
O401   Cu405   1.932   .     S
O402   C403    1.305   .     A
O402   Cu406   1.932   .     S
C403   C407    1.409   .     S
C404   C408    1.409   .     S
Cu405  Cu406   2.727   .     S
Cu405  N419    2.050   .     S
Cu406  N420    2.050   .     S
C407   C1416   1.191   1_554 S
C408   C911    1.191   .     S
C409   N421    1.428   .     S
C409   C414    1.412   .     A
C410   C413    1.412   .     A
C410   N424    1.428   .     S
C410   C468    1.396   .     S
C411   N427    1.438   .     S
C411   C413    1.409   .     A
C411   C465    1.396   .     S
C412   N430    1.438   .     S
C412   C414    1.409   .     A
C415   N420    1.381   .     A
C415   C433    1.514   .     S
C416   N419    1.381   .     A
C416   C437    1.514   .     S
C416   C81     1.437   1_565 S
C417   N420    1.384   .     A
C417   C441    1.518   .     S
C418   N419    1.384   .     A
C418   C445    1.518   .     S
C418   C79     1.437   1_565 S
N421   O422    1.302   .     A
N421   O423    1.302   .     A
N424   O425    1.302   .     A
N424   O426    1.302   .     A
N427   O429    1.301   .     A
N427   O428    1.301   .     A
N430   O432    1.301   .     A
N430   O431    1.301   .     A
C433   H434    1.091   .     S
C433   H435    1.110   .     S
C433   H436    1.104   .     S
C437   H439    1.104   .     S
C437   H438    1.091   .     S
C437   H440    1.110   .     S
C441   H444    1.110   .     S
C441   H443    1.111   .     S
C441   H442    1.083   .     S
C445   H447    1.110   .     S
C445   H448    1.111   .     S
C445   H446    1.083   .     S
O449   C453    1.310   .     A
O449   Cu461   1.974   .     S
O450   C454    1.310   .     A
O450   Cu462   1.974   .     S
O451   Cu461   1.986   .     S
O451   C454    1.307   .     A
O452   Cu462   1.986   .     S
O452   C453    1.307   .     A
C453   C470    1.466   .     S
C454   C469    1.466   .     S
O455   C459    1.301   .     A
O455   Cu461   1.927   .     S
O456   C460    1.301   .     A
O456   Cu462   1.927   .     S
O457   C460    1.305   .     A
O457   Cu461   1.932   .     S
O458   C459    1.305   .     A
O458   Cu462   1.932   .     S
C459   C463    1.409   .     S
C460   C464    1.409   .     S
Cu461  Cu462   2.727   .     S
Cu461  N475    2.050   .     S
Cu462  N476    2.050   .     S
C463   C1472   1.191   1_554 S
C464   C967    1.191   .     S
C465   N477    1.428   .     S
C465   C470    1.412   .     A
C466   C469    1.412   .     A
C466   N480    1.428   .     S
C466   C356    1.396   1_655 S
C467   N483    1.438   .     S
C467   C469    1.409   .     A
C467   C353    1.396   1_655 S
C468   N486    1.438   .     S
C468   C470    1.409   .     A
C471   N476    1.381   .     A
C471   C489    1.514   .     S
C472   N475    1.381   .     A
C472   C493    1.514   .     S
C472   C137    1.437   1_565 S
C473   N476    1.384   .     A
C473   C497    1.518   .     S
C474   N475    1.384   .     A
C474   C501    1.518   .     S
C474   C135    1.437   1_565 S
N477   O478    1.302   .     A
N477   O479    1.302   .     A
N480   O481    1.302   .     A
N480   O482    1.302   .     A
N483   O485    1.301   .     A
N483   O484    1.301   .     A
N486   O488    1.301   .     A
N486   O487    1.301   .     A
C489   H490    1.091   .     S
C489   H491    1.110   .     S
C489   H492    1.104   .     S
C493   H495    1.104   .     S
C493   H494    1.091   .     S
C493   H496    1.110   .     S
C497   H500    1.110   .     S
C497   H499    1.111   .     S
C497   H498    1.083   .     S
C501   H503    1.110   .     S
C501   H504    1.111   .     S
C501   H502    1.083   .     S
O505   C509    1.310   .     A
O505   Cu517   1.974   .     S
O506   C510    1.310   .     A
O506   Cu518   1.974   .     S
O507   Cu517   1.986   .     S
O507   C510    1.307   .     A
O508   Cu518   1.986   .     S
O508   C509    1.307   .     A
C509   C526    1.466   .     S
C510   C525    1.466   .     S
O511   C515    1.301   .     A
O511   Cu517   1.927   .     S
O512   C516    1.301   .     A
O512   Cu518   1.927   .     S
O513   C516    1.305   .     A
O513   Cu517   1.932   .     S
O514   C515    1.305   .     A
O514   Cu518   1.932   .     S
C515   C519    1.409   .     S
C516   C520    1.409   .     S
Cu517  Cu518   2.727   .     S
Cu517  N531    2.050   .     S
Cu518  N532    2.050   .     S
C520   C1023   1.191   .     S
C521   N533    1.428   .     S
C521   C526    1.412   .     A
C521   C635    1.396   1_455 S
C522   C525    1.412   .     A
C522   N536    1.428   .     S
C522   C580    1.396   .     S
C523   N539    1.438   .     S
C523   C525    1.409   .     A
C523   C577    1.396   .     S
C524   N542    1.438   .     S
C524   C526    1.409   .     A
C524   C634    1.396   1_455 S
C527   N532    1.381   .     A
C527   C545    1.514   .     S
C527   C866    1.437   1_545 S
C528   N531    1.381   .     A
C528   C549    1.514   .     S
C528   C697    1.437   .     S
C529   N532    1.384   .     A
C529   C553    1.518   .     S
C529   C864    1.437   1_545 S
C530   N531    1.384   .     A
C530   C557    1.518   .     S
C530   C695    1.437   .     S
N533   O534    1.302   .     A
N533   O535    1.302   .     A
N536   O537    1.302   .     A
N536   O538    1.302   .     A
N539   O541    1.301   .     A
N539   O540    1.301   .     A
N542   O544    1.301   .     A
N542   O543    1.301   .     A
C545   H546    1.091   .     S
C545   H547    1.110   .     S
C545   H548    1.104   .     S
C549   H551    1.104   .     S
C549   H550    1.091   .     S
C549   H552    1.110   .     S
C553   H556    1.110   .     S
C553   H555    1.111   .     S
C553   H554    1.083   .     S
C557   H559    1.110   .     S
C557   H560    1.111   .     S
C557   H558    1.083   .     S
O561   C565    1.310   .     A
O561   Cu573   1.974   .     S
O562   C566    1.310   .     A
O562   Cu574   1.974   .     S
O563   Cu573   1.986   .     S
O563   C566    1.307   .     A
O564   Cu574   1.986   .     S
O564   C565    1.307   .     A
C565   C582    1.466   .     S
C566   C581    1.466   .     S
O567   C571    1.301   .     A
O567   Cu573   1.927   .     S
O568   C572    1.301   .     A
O568   Cu574   1.927   .     S
O569   C572    1.305   .     A
O569   Cu573   1.932   .     S
O570   C571    1.305   .     A
O570   Cu574   1.932   .     S
C571   C575    1.409   .     S
C572   C576    1.409   .     S
Cu573  Cu574   2.727   .     S
Cu573  N587    2.050   .     S
Cu574  N588    2.050   .     S
C576   C1079   1.191   .     S
C577   N589    1.428   .     S
C577   C582    1.412   .     A
C578   C581    1.412   .     A
C578   N592    1.428   .     S
C578   C636    1.396   .     S
C579   N595    1.438   .     S
C579   C581    1.409   .     A
C579   C633    1.396   .     S
C580   N598    1.438   .     S
C580   C582    1.409   .     A
C583   N588    1.381   .     A
C583   C601    1.514   .     S
C583   C922    1.437   1_545 S
C584   N587    1.381   .     A
C584   C605    1.514   .     S
C584   C753    1.437   .     S
C585   N588    1.384   .     A
C585   C609    1.518   .     S
C585   C920    1.437   1_545 S
C586   N587    1.384   .     A
C586   C613    1.518   .     S
C586   C751    1.437   .     S
N589   O590    1.302   .     A
N589   O591    1.302   .     A
N592   O593    1.302   .     A
N592   O594    1.302   .     A
N595   O597    1.301   .     A
N595   O596    1.301   .     A
N598   O600    1.301   .     A
N598   O599    1.301   .     A
C601   H602    1.091   .     S
C601   H603    1.110   .     S
C601   H604    1.104   .     S
C605   H607    1.104   .     S
C605   H606    1.091   .     S
C605   H608    1.110   .     S
C609   H612    1.110   .     S
C609   H611    1.111   .     S
C609   H610    1.083   .     S
C613   H615    1.110   .     S
C613   H616    1.111   .     S
C613   H614    1.083   .     S
O617   C621    1.310   .     A
O617   Cu629   1.974   .     S
O618   C622    1.310   .     A
O618   Cu630   1.974   .     S
O619   Cu629   1.986   .     S
O619   C622    1.307   .     A
O620   Cu630   1.986   .     S
O620   C621    1.307   .     A
C621   C638    1.466   .     S
C622   C637    1.466   .     S
O623   C627    1.301   .     A
O623   Cu629   1.927   .     S
O624   C628    1.301   .     A
O624   Cu630   1.927   .     S
O625   C628    1.305   .     A
O625   Cu629   1.932   .     S
O626   C627    1.305   .     A
O626   Cu630   1.932   .     S
C627   C631    1.409   .     S
C628   C632    1.409   .     S
Cu629  Cu630   2.727   .     S
Cu629  N643    2.050   .     S
Cu630  N644    2.050   .     S
C632   C1135   1.191   .     S
C633   N645    1.428   .     S
C633   C638    1.412   .     A
C634   C637    1.412   .     A
C634   N648    1.428   .     S
C634   C524    1.396   1_655 S
C635   N651    1.438   .     S
C635   C637    1.409   .     A
C635   C521    1.396   1_655 S
C636   N654    1.438   .     S
C636   C638    1.409   .     A
C639   N644    1.381   .     A
C639   C657    1.514   .     S
C639   C978    1.437   1_545 S
C640   N643    1.381   .     A
C640   C661    1.514   .     S
C640   C809    1.437   .     S
C641   N644    1.384   .     A
C641   C665    1.518   .     S
C641   C976    1.437   1_545 S
C642   N643    1.384   .     A
C642   C669    1.518   .     S
C642   C807    1.437   .     S
N645   O646    1.302   .     A
N645   O647    1.302   .     A
N648   O649    1.302   .     A
N648   O650    1.302   .     A
N651   O653    1.301   .     A
N651   O652    1.301   .     A
N654   O656    1.301   .     A
N654   O655    1.301   .     A
C657   H658    1.091   .     S
C657   H659    1.110   .     S
C657   H660    1.104   .     S
C661   H663    1.104   .     S
C661   H662    1.091   .     S
C661   H664    1.110   .     S
C665   H668    1.110   .     S
C665   H667    1.111   .     S
C665   H666    1.083   .     S
C669   H671    1.110   .     S
C669   H672    1.111   .     S
C669   H670    1.083   .     S
O673   C677    1.310   .     A
O673   Cu685   1.974   .     S
O674   C678    1.310   .     A
O674   Cu686   1.974   .     S
O675   Cu685   1.986   .     S
O675   C678    1.307   .     A
O676   Cu686   1.986   .     S
O676   C677    1.307   .     A
C677   C694    1.466   .     S
C678   C693    1.466   .     S
O679   C683    1.301   .     A
O679   Cu685   1.927   .     S
O680   C684    1.301   .     A
O680   Cu686   1.927   .     S
O681   C684    1.305   .     A
O681   Cu685   1.932   .     S
O682   C683    1.305   .     A
O682   Cu686   1.932   .     S
C683   C687    1.409   .     S
C684   C688    1.409   .     S
Cu685  Cu686   2.727   .     S
Cu685  N699    2.050   .     S
Cu686  N700    2.050   .     S
C688   C1191   1.191   .     S
C689   N701    1.428   .     S
C689   C694    1.412   .     A
C689   C803    1.396   1_455 S
C690   C693    1.412   .     A
C690   N704    1.428   .     S
C690   C748    1.396   .     S
C691   N707    1.438   .     S
C691   C693    1.409   .     A
C691   C745    1.396   .     S
C692   N710    1.438   .     S
C692   C694    1.409   .     A
C692   C802    1.396   1_455 S
C695   N700    1.381   .     A
C695   C713    1.514   .     S
C696   N699    1.381   .     A
C696   C717    1.514   .     S
C696   C865    1.437   .     S
C697   N700    1.384   .     A
C697   C721    1.518   .     S
C698   N699    1.384   .     A
C698   C725    1.518   .     S
C698   C863    1.437   .     S
N701   O702    1.302   .     A
N701   O703    1.302   .     A
N704   O705    1.302   .     A
N704   O706    1.302   .     A
N707   O709    1.301   .     A
N707   O708    1.301   .     A
N710   O712    1.301   .     A
N710   O711    1.301   .     A
C713   H714    1.091   .     S
C713   H715    1.110   .     S
C713   H716    1.104   .     S
C717   H719    1.104   .     S
C717   H718    1.091   .     S
C717   H720    1.110   .     S
C721   H724    1.110   .     S
C721   H723    1.111   .     S
C721   H722    1.083   .     S
C725   H727    1.110   .     S
C725   H728    1.111   .     S
C725   H726    1.083   .     S
O729   C733    1.310   .     A
O729   Cu741   1.974   .     S
O730   C734    1.310   .     A
O730   Cu742   1.974   .     S
O731   Cu741   1.986   .     S
O731   C734    1.307   .     A
O732   Cu742   1.986   .     S
O732   C733    1.307   .     A
C733   C750    1.466   .     S
C734   C749    1.466   .     S
O735   C739    1.301   .     A
O735   Cu741   1.927   .     S
O736   C740    1.301   .     A
O736   Cu742   1.927   .     S
O737   C740    1.305   .     A
O737   Cu741   1.932   .     S
O738   C739    1.305   .     A
O738   Cu742   1.932   .     S
C739   C743    1.409   .     S
C740   C744    1.409   .     S
Cu741  Cu742   2.727   .     S
Cu741  N755    2.050   .     S
Cu742  N756    2.050   .     S
C744   C1247   1.191   .     S
C745   N757    1.428   .     S
C745   C750    1.412   .     A
C746   C749    1.412   .     A
C746   N760    1.428   .     S
C746   C804    1.396   .     S
C747   N763    1.438   .     S
C747   C749    1.409   .     A
C747   C801    1.396   .     S
C748   N766    1.438   .     S
C748   C750    1.409   .     A
C751   N756    1.381   .     A
C751   C769    1.514   .     S
C752   N755    1.381   .     A
C752   C773    1.514   .     S
C752   C921    1.437   .     S
C753   N756    1.384   .     A
C753   C777    1.518   .     S
C754   N755    1.384   .     A
C754   C781    1.518   .     S
C754   C919    1.437   .     S
N757   O758    1.302   .     A
N757   O759    1.302   .     A
N760   O761    1.302   .     A
N760   O762    1.302   .     A
N763   O765    1.301   .     A
N763   O764    1.301   .     A
N766   O768    1.301   .     A
N766   O767    1.301   .     A
C769   H770    1.091   .     S
C769   H771    1.110   .     S
C769   H772    1.104   .     S
C773   H775    1.104   .     S
C773   H774    1.091   .     S
C773   H776    1.110   .     S
C777   H780    1.110   .     S
C777   H779    1.111   .     S
C777   H778    1.083   .     S
C781   H783    1.110   .     S
C781   H784    1.111   .     S
C781   H782    1.083   .     S
O785   C789    1.310   .     A
O785   Cu797   1.974   .     S
O786   C790    1.310   .     A
O786   Cu798   1.974   .     S
O787   Cu797   1.986   .     S
O787   C790    1.307   .     A
O788   Cu798   1.986   .     S
O788   C789    1.307   .     A
C789   C806    1.466   .     S
C790   C805    1.466   .     S
O791   C795    1.301   .     A
O791   Cu797   1.927   .     S
O792   C796    1.301   .     A
O792   Cu798   1.927   .     S
O793   C796    1.305   .     A
O793   Cu797   1.932   .     S
O794   C795    1.305   .     A
O794   Cu798   1.932   .     S
C795   C799    1.409   .     S
C796   C800    1.409   .     S
Cu797  Cu798   2.727   .     S
Cu797  N811    2.050   .     S
Cu798  N812    2.050   .     S
C800   C1303   1.191   .     S
C801   N813    1.428   .     S
C801   C806    1.412   .     A
C802   C805    1.412   .     A
C802   N816    1.428   .     S
C802   C692    1.396   1_655 S
C803   N819    1.438   .     S
C803   C805    1.409   .     A
C803   C689    1.396   1_655 S
C804   N822    1.438   .     S
C804   C806    1.409   .     A
C807   N812    1.381   .     A
C807   C825    1.514   .     S
C808   N811    1.381   .     A
C808   C829    1.514   .     S
C808   C977    1.437   .     S
C809   N812    1.384   .     A
C809   C833    1.518   .     S
C810   N811    1.384   .     A
C810   C837    1.518   .     S
C810   C975    1.437   .     S
N813   O814    1.302   .     A
N813   O815    1.302   .     A
N816   O817    1.302   .     A
N816   O818    1.302   .     A
N819   O821    1.301   .     A
N819   O820    1.301   .     A
N822   O824    1.301   .     A
N822   O823    1.301   .     A
C825   H826    1.091   .     S
C825   H827    1.110   .     S
C825   H828    1.104   .     S
C829   H831    1.104   .     S
C829   H830    1.091   .     S
C829   H832    1.110   .     S
C833   H836    1.110   .     S
C833   H835    1.111   .     S
C833   H834    1.083   .     S
C837   H839    1.110   .     S
C837   H840    1.111   .     S
C837   H838    1.083   .     S
O841   C845    1.310   .     A
O841   Cu853   1.974   .     S
O842   C846    1.310   .     A
O842   Cu854   1.974   .     S
O843   Cu853   1.986   .     S
O843   C846    1.307   .     A
O844   Cu854   1.986   .     S
O844   C845    1.307   .     A
C845   C862    1.466   .     S
C846   C861    1.466   .     S
O847   C851    1.301   .     A
O847   Cu853   1.927   .     S
O848   C852    1.301   .     A
O848   Cu854   1.927   .     S
O849   C852    1.305   .     A
O849   Cu853   1.932   .     S
O850   C851    1.305   .     A
O850   Cu854   1.932   .     S
C851   C855    1.409   .     S
C852   C856    1.409   .     S
Cu853  Cu854   2.727   .     S
Cu853  N867    2.050   .     S
Cu854  N868    2.050   .     S
C856   C1359   1.191   .     S
C857   N869    1.428   .     S
C857   C862    1.412   .     A
C857   C971    1.396   1_455 S
C858   C861    1.412   .     A
C858   N872    1.428   .     S
C858   C916    1.396   .     S
C859   N875    1.438   .     S
C859   C861    1.409   .     A
C859   C913    1.396   .     S
C860   N878    1.438   .     S
C860   C862    1.409   .     A
C860   C970    1.396   1_455 S
C863   N868    1.381   .     A
C863   C881    1.514   .     S
C864   N867    1.381   .     A
C864   C885    1.514   .     S
C864   C529    1.437   1_565 S
C865   N868    1.384   .     A
C865   C889    1.518   .     S
C866   N867    1.384   .     A
C866   C893    1.518   .     S
C866   C527    1.437   1_565 S
N869   O870    1.302   .     A
N869   O871    1.302   .     A
N872   O873    1.302   .     A
N872   O874    1.302   .     A
N875   O877    1.301   .     A
N875   O876    1.301   .     A
N878   O880    1.301   .     A
N878   O879    1.301   .     A
C881   H882    1.091   .     S
C881   H883    1.110   .     S
C881   H884    1.104   .     S
C885   H887    1.104   .     S
C885   H886    1.091   .     S
C885   H888    1.110   .     S
C889   H892    1.110   .     S
C889   H891    1.111   .     S
C889   H890    1.083   .     S
C893   H895    1.110   .     S
C893   H896    1.111   .     S
C893   H894    1.083   .     S
O897   C901    1.310   .     A
O897   Cu909   1.974   .     S
O898   C902    1.310   .     A
O898   Cu910   1.974   .     S
O899   Cu909   1.986   .     S
O899   C902    1.307   .     A
O900   Cu910   1.986   .     S
O900   C901    1.307   .     A
C901   C918    1.466   .     S
C902   C917    1.466   .     S
O903   C907    1.301   .     A
O903   Cu909   1.927   .     S
O904   C908    1.301   .     A
O904   Cu910   1.927   .     S
O905   C908    1.305   .     A
O905   Cu909   1.932   .     S
O906   C907    1.305   .     A
O906   Cu910   1.932   .     S
C907   C911    1.409   .     S
C908   C912    1.409   .     S
Cu909  Cu910   2.727   .     S
Cu909  N923    2.050   .     S
Cu910  N924    2.050   .     S
C912   C1415   1.191   .     S
C913   N925    1.428   .     S
C913   C918    1.412   .     A
C914   C917    1.412   .     A
C914   N928    1.428   .     S
C914   C972    1.396   .     S
C915   N931    1.438   .     S
C915   C917    1.409   .     A
C915   C969    1.396   .     S
C916   N934    1.438   .     S
C916   C918    1.409   .     A
C919   N924    1.381   .     A
C919   C937    1.514   .     S
C920   N923    1.381   .     A
C920   C941    1.514   .     S
C920   C585    1.437   1_565 S
C921   N924    1.384   .     A
C921   C945    1.518   .     S
C922   N923    1.384   .     A
C922   C949    1.518   .     S
C922   C583    1.437   1_565 S
N925   O926    1.302   .     A
N925   O927    1.302   .     A
N928   O929    1.302   .     A
N928   O930    1.302   .     A
N931   O933    1.301   .     A
N931   O932    1.301   .     A
N934   O936    1.301   .     A
N934   O935    1.301   .     A
C937   H938    1.091   .     S
C937   H939    1.110   .     S
C937   H940    1.104   .     S
C941   H943    1.104   .     S
C941   H942    1.091   .     S
C941   H944    1.110   .     S
C945   H948    1.110   .     S
C945   H947    1.111   .     S
C945   H946    1.083   .     S
C949   H951    1.110   .     S
C949   H952    1.111   .     S
C949   H950    1.083   .     S
O953   C957    1.310   .     A
O953   Cu965   1.974   .     S
O954   C958    1.310   .     A
O954   Cu966   1.974   .     S
O955   Cu965   1.986   .     S
O955   C958    1.307   .     A
O956   Cu966   1.986   .     S
O956   C957    1.307   .     A
C957   C974    1.466   .     S
C958   C973    1.466   .     S
O959   C963    1.301   .     A
O959   Cu965   1.927   .     S
O960   C964    1.301   .     A
O960   Cu966   1.927   .     S
O961   C964    1.305   .     A
O961   Cu965   1.932   .     S
O962   C963    1.305   .     A
O962   Cu966   1.932   .     S
C963   C967    1.409   .     S
C964   C968    1.409   .     S
Cu965  Cu966   2.727   .     S
Cu965  N979    2.050   .     S
Cu966  N980    2.050   .     S
C968   C1471   1.191   .     S
C969   N981    1.428   .     S
C969   C974    1.412   .     A
C970   C973    1.412   .     A
C970   N984    1.428   .     S
C970   C860    1.396   1_655 S
C971   N987    1.438   .     S
C971   C973    1.409   .     A
C971   C857    1.396   1_655 S
C972   N990    1.438   .     S
C972   C974    1.409   .     A
C975   N980    1.381   .     A
C975   C993    1.514   .     S
C976   N979    1.381   .     A
C976   C997    1.514   .     S
C976   C641    1.437   1_565 S
C977   N980    1.384   .     A
C977   C1001   1.518   .     S
C978   N979    1.384   .     A
C978   C1005   1.518   .     S
C978   C639    1.437   1_565 S
N981   O982    1.302   .     A
N981   O983    1.302   .     A
N984   O985    1.302   .     A
N984   O986    1.302   .     A
N987   O989    1.301   .     A
N987   O988    1.301   .     A
N990   O992    1.301   .     A
N990   O991    1.301   .     A
C993   H994    1.091   .     S
C993   H995    1.110   .     S
C993   H996    1.104   .     S
C997   H999    1.104   .     S
C997   H998    1.091   .     S
C997   H1000   1.110   .     S
C1001  H1004   1.110   .     S
C1001  H1003   1.111   .     S
C1001  H1002   1.083   .     S
C1005  H1007   1.110   .     S
C1005  H1008   1.111   .     S
C1005  H1006   1.083   .     S
O1009  C1013   1.310   .     A
O1009  Cu1021  1.974   .     S
O1010  C1014   1.310   .     A
O1010  Cu1022  1.974   .     S
O1011  Cu1021  1.986   .     S
O1011  C1014   1.307   .     A
O1012  Cu1022  1.986   .     S
O1012  C1013   1.307   .     A
C1013  C1030   1.466   .     S
C1014  C1029   1.466   .     S
O1015  C1019   1.301   .     A
O1015  Cu1021  1.927   .     S
O1016  C1020   1.301   .     A
O1016  Cu1022  1.927   .     S
O1017  C1020   1.305   .     A
O1017  Cu1021  1.932   .     S
O1018  C1019   1.305   .     A
O1018  Cu1022  1.932   .     S
C1019  C1023   1.409   .     S
C1020  C1024   1.409   .     S
Cu1021 Cu1022  2.727   .     S
Cu1021 N1035   2.050   .     S
Cu1022 N1036   2.050   .     S
C1024  C15     1.191   1_556 S
C1025  N1037   1.428   .     S
C1025  C1030   1.412   .     A
C1025  C1139   1.396   1_455 S
C1026  C1029   1.412   .     A
C1026  N1040   1.428   .     S
C1026  C1084   1.396   .     S
C1027  N1043   1.438   .     S
C1027  C1029   1.409   .     A
C1027  C1081   1.396   .     S
C1028  N1046   1.438   .     S
C1028  C1030   1.409   .     A
C1028  C1138   1.396   1_455 S
C1031  N1036   1.381   .     A
C1031  C1049   1.514   .     S
C1031  C1370   1.437   1_545 S
C1032  N1035   1.381   .     A
C1032  C1053   1.514   .     S
C1032  C1201   1.437   .     S
C1033  N1036   1.384   .     A
C1033  C1057   1.518   .     S
C1033  C1368   1.437   1_545 S
C1034  N1035   1.384   .     A
C1034  C1061   1.518   .     S
C1034  C1199   1.437   .     S
N1037  O1038   1.302   .     A
N1037  O1039   1.302   .     A
N1040  O1041   1.302   .     A
N1040  O1042   1.302   .     A
N1043  O1045   1.301   .     A
N1043  O1044   1.301   .     A
N1046  O1048   1.301   .     A
N1046  O1047   1.301   .     A
C1049  H1050   1.091   .     S
C1049  H1051   1.110   .     S
C1049  H1052   1.104   .     S
C1053  H1055   1.104   .     S
C1053  H1054   1.091   .     S
C1053  H1056   1.110   .     S
C1057  H1060   1.110   .     S
C1057  H1059   1.111   .     S
C1057  H1058   1.083   .     S
C1061  H1063   1.110   .     S
C1061  H1064   1.111   .     S
C1061  H1062   1.083   .     S
O1065  C1069   1.310   .     A
O1065  Cu1077  1.974   .     S
O1066  C1070   1.310   .     A
O1066  Cu1078  1.974   .     S
O1067  Cu1077  1.986   .     S
O1067  C1070   1.307   .     A
O1068  Cu1078  1.986   .     S
O1068  C1069   1.307   .     A
C1069  C1086   1.466   .     S
C1070  C1085   1.466   .     S
O1071  C1075   1.301   .     A
O1071  Cu1077  1.927   .     S
O1072  C1076   1.301   .     A
O1072  Cu1078  1.927   .     S
O1073  C1076   1.305   .     A
O1073  Cu1077  1.932   .     S
O1074  C1075   1.305   .     A
O1074  Cu1078  1.932   .     S
C1075  C1079   1.409   .     S
C1076  C1080   1.409   .     S
Cu1077 Cu1078  2.727   .     S
Cu1077 N1091   2.050   .     S
Cu1078 N1092   2.050   .     S
C1080  C71     1.191   1_556 S
C1081  N1093   1.428   .     S
C1081  C1086   1.412   .     A
C1082  C1085   1.412   .     A
C1082  N1096   1.428   .     S
C1082  C1140   1.396   .     S
C1083  N1099   1.438   .     S
C1083  C1085   1.409   .     A
C1083  C1137   1.396   .     S
C1084  N1102   1.438   .     S
C1084  C1086   1.409   .     A
C1087  N1092   1.381   .     A
C1087  C1105   1.514   .     S
C1087  C1426   1.437   1_545 S
C1088  N1091   1.381   .     A
C1088  C1109   1.514   .     S
C1088  C1257   1.437   .     S
C1089  N1092   1.384   .     A
C1089  C1113   1.518   .     S
C1089  C1424   1.437   1_545 S
C1090  N1091   1.384   .     A
C1090  C1117   1.518   .     S
C1090  C1255   1.437   .     S
N1093  O1094   1.302   .     A
N1093  O1095   1.302   .     A
N1096  O1097   1.302   .     A
N1096  O1098   1.302   .     A
N1099  O1101   1.301   .     A
N1099  O1100   1.301   .     A
N1102  O1104   1.301   .     A
N1102  O1103   1.301   .     A
C1105  H1106   1.091   .     S
C1105  H1107   1.110   .     S
C1105  H1108   1.104   .     S
C1109  H1111   1.104   .     S
C1109  H1110   1.091   .     S
C1109  H1112   1.110   .     S
C1113  H1116   1.110   .     S
C1113  H1115   1.111   .     S
C1113  H1114   1.083   .     S
C1117  H1119   1.110   .     S
C1117  H1120   1.111   .     S
C1117  H1118   1.083   .     S
O1121  C1125   1.310   .     A
O1121  Cu1133  1.974   .     S
O1122  C1126   1.310   .     A
O1122  Cu1134  1.974   .     S
O1123  Cu1133  1.986   .     S
O1123  C1126   1.307   .     A
O1124  Cu1134  1.986   .     S
O1124  C1125   1.307   .     A
C1125  C1142   1.466   .     S
C1126  C1141   1.466   .     S
O1127  C1131   1.301   .     A
O1127  Cu1133  1.927   .     S
O1128  C1132   1.301   .     A
O1128  Cu1134  1.927   .     S
O1129  C1132   1.305   .     A
O1129  Cu1133  1.932   .     S
O1130  C1131   1.305   .     A
O1130  Cu1134  1.932   .     S
C1131  C1135   1.409   .     S
C1132  C1136   1.409   .     S
Cu1133 Cu1134  2.727   .     S
Cu1133 N1147   2.050   .     S
Cu1134 N1148   2.050   .     S
C1136  C127    1.191   1_556 S
C1137  N1149   1.428   .     S
C1137  C1142   1.412   .     A
C1138  C1141   1.412   .     A
C1138  N1152   1.428   .     S
C1138  C1028   1.396   1_655 S
C1139  N1155   1.438   .     S
C1139  C1141   1.409   .     A
C1139  C1025   1.396   1_655 S
C1140  N1158   1.438   .     S
C1140  C1142   1.409   .     A
C1143  N1148   1.381   .     A
C1143  C1161   1.514   .     S
C1143  C1482   1.437   1_545 S
C1144  N1147   1.381   .     A
C1144  C1165   1.514   .     S
C1144  C1313   1.437   .     S
C1145  N1148   1.384   .     A
C1145  C1169   1.518   .     S
C1145  C1480   1.437   1_545 S
C1146  N1147   1.384   .     A
C1146  C1173   1.518   .     S
C1146  C1311   1.437   .     S
N1149  O1150   1.302   .     A
N1149  O1151   1.302   .     A
N1152  O1153   1.302   .     A
N1152  O1154   1.302   .     A
N1155  O1157   1.301   .     A
N1155  O1156   1.301   .     A
N1158  O1160   1.301   .     A
N1158  O1159   1.301   .     A
C1161  H1162   1.091   .     S
C1161  H1163   1.110   .     S
C1161  H1164   1.104   .     S
C1165  H1167   1.104   .     S
C1165  H1166   1.091   .     S
C1165  H1168   1.110   .     S
C1169  H1172   1.110   .     S
C1169  H1171   1.111   .     S
C1169  H1170   1.083   .     S
C1173  H1175   1.110   .     S
C1173  H1176   1.111   .     S
C1173  H1174   1.083   .     S
O1177  C1181   1.310   .     A
O1177  Cu1189  1.974   .     S
O1178  C1182   1.310   .     A
O1178  Cu1190  1.974   .     S
O1179  Cu1189  1.986   .     S
O1179  C1182   1.307   .     A
O1180  Cu1190  1.986   .     S
O1180  C1181   1.307   .     A
C1181  C1198   1.466   .     S
C1182  C1197   1.466   .     S
O1183  C1187   1.301   .     A
O1183  Cu1189  1.927   .     S
O1184  C1188   1.301   .     A
O1184  Cu1190  1.927   .     S
O1185  C1188   1.305   .     A
O1185  Cu1189  1.932   .     S
O1186  C1187   1.305   .     A
O1186  Cu1190  1.932   .     S
C1187  C1191   1.409   .     S
C1188  C1192   1.409   .     S
Cu1189 Cu1190  2.727   .     S
Cu1189 N1203   2.050   .     S
Cu1190 N1204   2.050   .     S
C1192  C183    1.191   1_556 S
C1193  N1205   1.428   .     S
C1193  C1198   1.412   .     A
C1193  C1307   1.396   1_455 S
C1194  C1197   1.412   .     A
C1194  N1208   1.428   .     S
C1194  C1252   1.396   .     S
C1195  N1211   1.438   .     S
C1195  C1197   1.409   .     A
C1195  C1249   1.396   .     S
C1196  N1214   1.438   .     S
C1196  C1198   1.409   .     A
C1196  C1306   1.396   1_455 S
C1199  N1204   1.381   .     A
C1199  C1217   1.514   .     S
C1200  N1203   1.381   .     A
C1200  C1221   1.514   .     S
C1200  C1369   1.437   .     S
C1201  N1204   1.384   .     A
C1201  C1225   1.518   .     S
C1202  N1203   1.384   .     A
C1202  C1229   1.518   .     S
C1202  C1367   1.437   .     S
N1205  O1206   1.302   .     A
N1205  O1207   1.302   .     A
N1208  O1209   1.302   .     A
N1208  O1210   1.302   .     A
N1211  O1213   1.301   .     A
N1211  O1212   1.301   .     A
N1214  O1216   1.301   .     A
N1214  O1215   1.301   .     A
C1217  H1218   1.091   .     S
C1217  H1219   1.110   .     S
C1217  H1220   1.104   .     S
C1221  H1223   1.104   .     S
C1221  H1222   1.091   .     S
C1221  H1224   1.110   .     S
C1225  H1228   1.110   .     S
C1225  H1227   1.111   .     S
C1225  H1226   1.083   .     S
C1229  H1231   1.110   .     S
C1229  H1232   1.111   .     S
C1229  H1230   1.083   .     S
O1233  C1237   1.310   .     A
O1233  Cu1245  1.974   .     S
O1234  C1238   1.310   .     A
O1234  Cu1246  1.974   .     S
O1235  Cu1245  1.986   .     S
O1235  C1238   1.307   .     A
O1236  Cu1246  1.986   .     S
O1236  C1237   1.307   .     A
C1237  C1254   1.466   .     S
C1238  C1253   1.466   .     S
O1239  C1243   1.301   .     A
O1239  Cu1245  1.927   .     S
O1240  C1244   1.301   .     A
O1240  Cu1246  1.927   .     S
O1241  C1244   1.305   .     A
O1241  Cu1245  1.932   .     S
O1242  C1243   1.305   .     A
O1242  Cu1246  1.932   .     S
C1243  C1247   1.409   .     S
C1244  C1248   1.409   .     S
Cu1245 Cu1246  2.727   .     S
Cu1245 N1259   2.050   .     S
Cu1246 N1260   2.050   .     S
C1248  C239    1.191   1_556 S
C1249  N1261   1.428   .     S
C1249  C1254   1.412   .     A
C1250  C1253   1.412   .     A
C1250  N1264   1.428   .     S
C1250  C1308   1.396   .     S
C1251  N1267   1.438   .     S
C1251  C1253   1.409   .     A
C1251  C1305   1.396   .     S
C1252  N1270   1.438   .     S
C1252  C1254   1.409   .     A
C1255  N1260   1.381   .     A
C1255  C1273   1.514   .     S
C1256  N1259   1.381   .     A
C1256  C1277   1.514   .     S
C1256  C1425   1.437   .     S
C1257  N1260   1.384   .     A
C1257  C1281   1.518   .     S
C1258  N1259   1.384   .     A
C1258  C1285   1.518   .     S
C1258  C1423   1.437   .     S
N1261  O1262   1.302   .     A
N1261  O1263   1.302   .     A
N1264  O1265   1.302   .     A
N1264  O1266   1.302   .     A
N1267  O1269   1.301   .     A
N1267  O1268   1.301   .     A
N1270  O1272   1.301   .     A
N1270  O1271   1.301   .     A
C1273  H1274   1.091   .     S
C1273  H1275   1.110   .     S
C1273  H1276   1.104   .     S
C1277  H1279   1.104   .     S
C1277  H1278   1.091   .     S
C1277  H1280   1.110   .     S
C1281  H1284   1.110   .     S
C1281  H1283   1.111   .     S
C1281  H1282   1.083   .     S
C1285  H1287   1.110   .     S
C1285  H1288   1.111   .     S
C1285  H1286   1.083   .     S
O1289  C1293   1.310   .     A
O1289  Cu1301  1.974   .     S
O1290  C1294   1.310   .     A
O1290  Cu1302  1.974   .     S
O1291  Cu1301  1.986   .     S
O1291  C1294   1.307   .     A
O1292  Cu1302  1.986   .     S
O1292  C1293   1.307   .     A
C1293  C1310   1.466   .     S
C1294  C1309   1.466   .     S
O1295  C1299   1.301   .     A
O1295  Cu1301  1.927   .     S
O1296  C1300   1.301   .     A
O1296  Cu1302  1.927   .     S
O1297  C1300   1.305   .     A
O1297  Cu1301  1.932   .     S
O1298  C1299   1.305   .     A
O1298  Cu1302  1.932   .     S
C1299  C1303   1.409   .     S
C1300  C1304   1.409   .     S
Cu1301 Cu1302  2.727   .     S
Cu1301 N1315   2.050   .     S
Cu1302 N1316   2.050   .     S
C1304  C295    1.191   1_556 S
C1305  N1317   1.428   .     S
C1305  C1310   1.412   .     A
C1306  C1309   1.412   .     A
C1306  N1320   1.428   .     S
C1306  C1196   1.396   1_655 S
C1307  N1323   1.438   .     S
C1307  C1309   1.409   .     A
C1307  C1193   1.396   1_655 S
C1308  N1326   1.438   .     S
C1308  C1310   1.409   .     A
C1311  N1316   1.381   .     A
C1311  C1329   1.514   .     S
C1312  N1315   1.381   .     A
C1312  C1333   1.514   .     S
C1312  C1481   1.437   .     S
C1313  N1316   1.384   .     A
C1313  C1337   1.518   .     S
C1314  N1315   1.384   .     A
C1314  C1341   1.518   .     S
C1314  C1479   1.437   .     S
N1317  O1318   1.302   .     A
N1317  O1319   1.302   .     A
N1320  O1321   1.302   .     A
N1320  O1322   1.302   .     A
N1323  O1325   1.301   .     A
N1323  O1324   1.301   .     A
N1326  O1328   1.301   .     A
N1326  O1327   1.301   .     A
C1329  H1330   1.091   .     S
C1329  H1331   1.110   .     S
C1329  H1332   1.104   .     S
C1333  H1335   1.104   .     S
C1333  H1334   1.091   .     S
C1333  H1336   1.110   .     S
C1337  H1340   1.110   .     S
C1337  H1339   1.111   .     S
C1337  H1338   1.083   .     S
C1341  H1343   1.110   .     S
C1341  H1344   1.111   .     S
C1341  H1342   1.083   .     S
O1345  C1349   1.310   .     A
O1345  Cu1357  1.974   .     S
O1346  C1350   1.310   .     A
O1346  Cu1358  1.974   .     S
O1347  Cu1357  1.986   .     S
O1347  C1350   1.307   .     A
O1348  Cu1358  1.986   .     S
O1348  C1349   1.307   .     A
C1349  C1366   1.466   .     S
C1350  C1365   1.466   .     S
O1351  C1355   1.301   .     A
O1351  Cu1357  1.927   .     S
O1352  C1356   1.301   .     A
O1352  Cu1358  1.927   .     S
O1353  C1356   1.305   .     A
O1353  Cu1357  1.932   .     S
O1354  C1355   1.305   .     A
O1354  Cu1358  1.932   .     S
C1355  C1359   1.409   .     S
C1356  C1360   1.409   .     S
Cu1357 Cu1358  2.727   .     S
Cu1357 N1371   2.050   .     S
Cu1358 N1372   2.050   .     S
C1360  C351    1.191   1_556 S
C1361  N1373   1.428   .     S
C1361  C1366   1.412   .     A
C1361  C1475   1.396   1_455 S
C1362  C1365   1.412   .     A
C1362  N1376   1.428   .     S
C1362  C1420   1.396   .     S
C1363  N1379   1.438   .     S
C1363  C1365   1.409   .     A
C1363  C1417   1.396   .     S
C1364  N1382   1.438   .     S
C1364  C1366   1.409   .     A
C1364  C1474   1.396   1_455 S
C1367  N1372   1.381   .     A
C1367  C1385   1.514   .     S
C1368  N1371   1.381   .     A
C1368  C1389   1.514   .     S
C1368  C1033   1.437   1_565 S
C1369  N1372   1.384   .     A
C1369  C1393   1.518   .     S
C1370  N1371   1.384   .     A
C1370  C1397   1.518   .     S
C1370  C1031   1.437   1_565 S
N1373  O1374   1.302   .     A
N1373  O1375   1.302   .     A
N1376  O1377   1.302   .     A
N1376  O1378   1.302   .     A
N1379  O1381   1.301   .     A
N1379  O1380   1.301   .     A
N1382  O1384   1.301   .     A
N1382  O1383   1.301   .     A
C1385  H1386   1.091   .     S
C1385  H1387   1.110   .     S
C1385  H1388   1.104   .     S
C1389  H1391   1.104   .     S
C1389  H1390   1.091   .     S
C1389  H1392   1.110   .     S
C1393  H1396   1.110   .     S
C1393  H1395   1.111   .     S
C1393  H1394   1.083   .     S
C1397  H1399   1.110   .     S
C1397  H1400   1.111   .     S
C1397  H1398   1.083   .     S
O1401  C1405   1.310   .     A
O1401  Cu1413  1.974   .     S
O1402  C1406   1.310   .     A
O1402  Cu1414  1.974   .     S
O1403  Cu1413  1.986   .     S
O1403  C1406   1.307   .     A
O1404  Cu1414  1.986   .     S
O1404  C1405   1.307   .     A
C1405  C1422   1.466   .     S
C1406  C1421   1.466   .     S
O1407  C1411   1.301   .     A
O1407  Cu1413  1.927   .     S
O1408  C1412   1.301   .     A
O1408  Cu1414  1.927   .     S
O1409  C1412   1.305   .     A
O1409  Cu1413  1.932   .     S
O1410  C1411   1.305   .     A
O1410  Cu1414  1.932   .     S
C1411  C1415   1.409   .     S
C1412  C1416   1.409   .     S
Cu1413 Cu1414  2.727   .     S
Cu1413 N1427   2.050   .     S
Cu1414 N1428   2.050   .     S
C1416  C407    1.191   1_556 S
C1417  N1429   1.428   .     S
C1417  C1422   1.412   .     A
C1418  C1421   1.412   .     A
C1418  N1432   1.428   .     S
C1418  C1476   1.396   .     S
C1419  N1435   1.438   .     S
C1419  C1421   1.409   .     A
C1419  C1473   1.396   .     S
C1420  N1438   1.438   .     S
C1420  C1422   1.409   .     A
C1423  N1428   1.381   .     A
C1423  C1441   1.514   .     S
C1424  N1427   1.381   .     A
C1424  C1445   1.514   .     S
C1424  C1089   1.437   1_565 S
C1425  N1428   1.384   .     A
C1425  C1449   1.518   .     S
C1426  N1427   1.384   .     A
C1426  C1453   1.518   .     S
C1426  C1087   1.437   1_565 S
N1429  O1430   1.302   .     A
N1429  O1431   1.302   .     A
N1432  O1433   1.302   .     A
N1432  O1434   1.302   .     A
N1435  O1437   1.301   .     A
N1435  O1436   1.301   .     A
N1438  O1440   1.301   .     A
N1438  O1439   1.301   .     A
C1441  H1442   1.091   .     S
C1441  H1443   1.110   .     S
C1441  H1444   1.104   .     S
C1445  H1447   1.104   .     S
C1445  H1446   1.091   .     S
C1445  H1448   1.110   .     S
C1449  H1452   1.110   .     S
C1449  H1451   1.111   .     S
C1449  H1450   1.083   .     S
C1453  H1455   1.110   .     S
C1453  H1456   1.111   .     S
C1453  H1454   1.083   .     S
O1457  C1461   1.310   .     A
O1457  Cu1469  1.974   .     S
O1458  C1462   1.310   .     A
O1458  Cu1470  1.974   .     S
O1459  Cu1469  1.986   .     S
O1459  C1462   1.307   .     A
O1460  Cu1470  1.986   .     S
O1460  C1461   1.307   .     A
C1461  C1478   1.466   .     S
C1462  C1477   1.466   .     S
O1463  C1467   1.301   .     A
O1463  Cu1469  1.927   .     S
O1464  C1468   1.301   .     A
O1464  Cu1470  1.927   .     S
O1465  C1468   1.305   .     A
O1465  Cu1469  1.932   .     S
O1466  C1467   1.305   .     A
O1466  Cu1470  1.932   .     S
C1467  C1471   1.409   .     S
C1468  C1472   1.409   .     S
Cu1469 Cu1470  2.727   .     S
Cu1469 N1483   2.050   .     S
Cu1470 N1484   2.050   .     S
C1472  C463    1.191   1_556 S
C1473  N1485   1.428   .     S
C1473  C1478   1.412   .     A
C1474  C1477   1.412   .     A
C1474  N1488   1.428   .     S
C1474  C1364   1.396   1_655 S
C1475  N1491   1.438   .     S
C1475  C1477   1.409   .     A
C1475  C1361   1.396   1_655 S
C1476  N1494   1.438   .     S
C1476  C1478   1.409   .     A
C1479  N1484   1.381   .     A
C1479  C1497   1.514   .     S
C1480  N1483   1.381   .     A
C1480  C1501   1.514   .     S
C1480  C1145   1.437   1_565 S
C1481  N1484   1.384   .     A
C1481  C1505   1.518   .     S
C1482  N1483   1.384   .     A
C1482  C1509   1.518   .     S
C1482  C1143   1.437   1_565 S
N1485  O1486   1.302   .     A
N1485  O1487   1.302   .     A
N1488  O1489   1.302   .     A
N1488  O1490   1.302   .     A
N1491  O1493   1.301   .     A
N1491  O1492   1.301   .     A
N1494  O1496   1.301   .     A
N1494  O1495   1.301   .     A
C1497  H1498   1.091   .     S
C1497  H1499   1.110   .     S
C1497  H1500   1.104   .     S
C1501  H1503   1.104   .     S
C1501  H1502   1.091   .     S
C1501  H1504   1.110   .     S
C1505  H1508   1.110   .     S
C1505  H1507   1.111   .     S
C1505  H1506   1.083   .     S
C1509  H1511   1.110   .     S
C1509  H1512   1.111   .     S
C1509  H1510   1.083   .     S
