data_str_m2_o10_o17_pcu_sym.135
_audit_creation_date              2020-01-03
_audit_creation_method            'Materials Studio'
_symmetry_space_group_name_H-M    'P1'
_symmetry_Int_Tables_number       1
_symmetry_cell_setting            triclinic
loop_
_symmetry_equiv_pos_as_xyz
  x,y,z
_cell_length_a                    29.9936
_cell_length_b                    26.0843
_cell_length_c                    22.5310
_cell_angle_alpha                 102.6085
_cell_angle_beta                  94.8270
_cell_angle_gamma                 93.5660
loop_
_atom_site_label
_atom_site_type_symbol
_atom_site_fract_x
_atom_site_fract_y
_atom_site_fract_z
_atom_site_U_iso_or_equiv
_atom_site_adp_type
_atom_site_occupancy
C1     C     0.24786   0.06681   0.15160   0.00000  Uiso   1.00
C2     C     0.25214   0.26653   0.18174   0.00000  Uiso   1.00
C3     C     0.01843   0.07376   0.12131   0.00000  Uiso   1.00
C4     C     0.48157   0.25957   0.21203   0.00000  Uiso   1.00
C5     C     0.24018   0.01142   0.14542   0.00000  Uiso   1.00
C6     C     0.25982   0.32191   0.18791   0.00000  Uiso   1.00
C7     C     0.16476   0.16713   0.16720   0.00000  Uiso   1.00
C8     C     0.33524   0.16620   0.16613   0.00000  Uiso   1.00
C9     C     0.40978   0.21067   0.18940   0.00000  Uiso   1.00
C10    C     0.09022   0.12266   0.14394   0.00000  Uiso   1.00
C11    C     0.38323   0.16431   0.16484   0.00000  Uiso   1.00
C12    C     0.11677   0.16903   0.16849   0.00000  Uiso   1.00
C13    C     0.40206   0.11721   0.14010   0.00000  Uiso   1.00
C14    C     0.09794   0.21612   0.19324   0.00000  Uiso   1.00
C15    C     0.44961   0.11672   0.14162   0.00000  Uiso   1.00
C16    C     0.05039   0.21661   0.19171   0.00000  Uiso   1.00
C17    C     0.47638   0.16541   0.16599   0.00000  Uiso   1.00
C18    C     0.02362   0.16792   0.16734   0.00000  Uiso   1.00
C19    C     0.45595   0.21185   0.18928   0.00000  Uiso   1.00
C20    C     0.04405   0.12148   0.14406   0.00000  Uiso   1.00
C21    C     0.47193   0.07044   0.12028   0.00000  Uiso   1.00
C22    C     0.02807   0.26289   0.21306   0.00000  Uiso   1.00
Cu23   Cu    0.25501   0.17246   0.22813   0.00000  Uiso   1.00
Cu24   Cu    0.24500   0.16087   0.10521   0.00000  Uiso   1.00
H25    H     0.39405   0.24636   0.20780   0.00000  Uiso   1.00
H26    H     0.10595   0.08697   0.12553   0.00000  Uiso   1.00
H27    H     0.03505   0.03833   0.10460   0.00000  Uiso   1.00
H28    H     0.46495   0.29500   0.22873   0.00000  Uiso   1.00
N29    N     0.23745   0.15214   0.01284   0.00000  Uiso   1.00
N30    N     0.26256   0.18119   0.32049   0.00000  Uiso   1.00
O31    O     0.25326   0.09538   0.20659   0.00000  Uiso   1.00
O32    O     0.24675   0.23796   0.12674   0.00000  Uiso   1.00
O33    O     0.24480   0.08559   0.10279   0.00000  Uiso   1.00
O34    O     0.25520   0.24774   0.23055   0.00000  Uiso   1.00
O35    O     0.18936   0.17155   0.21857   0.00000  Uiso   1.00
O36    O     0.31065   0.16179   0.11476   0.00000  Uiso   1.00
O37    O     0.18090   0.16176   0.11477   0.00000  Uiso   1.00
O38    O     0.31910   0.17157   0.21857   0.00000  Uiso   1.00
C39    C     0.37146   0.07104   0.11360   0.00000  Uiso   1.00
N40    N     0.34659   0.03461   0.09252   0.00000  Uiso   1.00
C41    C     0.12854   0.26230   0.21973   0.00000  Uiso   1.00
N42    N     0.15341   0.29872   0.24081   0.00000  Uiso   1.00
C43    C     0.44969   0.01806   0.09840   0.00000  Uiso   1.00
N44    N     0.43248   0.30916   0.08092   0.00000  Uiso   1.00
C45    C     0.05031   0.31527   0.23493   0.00000  Uiso   1.00
N46    N     0.06753   0.02417   0.25241   0.00000  Uiso   1.00
Br47   Br    0.19365   0.31034   0.08163   0.00000  Uiso   1.00
Br48   Br    0.30635   0.02300   0.25170   0.00000  Uiso   1.00
Br49   Br    0.19293   0.10127   0.30114   0.00000  Uiso   1.00
Br50   Br    0.30707   0.23207   0.03219   0.00000  Uiso   1.00
C51    C     0.74786   0.06681   0.15160   0.00000  Uiso   1.00
C52    C     0.75214   0.26653   0.18174   0.00000  Uiso   1.00
C53    C     0.51843   0.07376   0.12131   0.00000  Uiso   1.00
C54    C     0.98157   0.25957   0.21203   0.00000  Uiso   1.00
C55    C     0.74018   0.01142   0.14542   0.00000  Uiso   1.00
C56    C     0.75982   0.32191   0.18791   0.00000  Uiso   1.00
C57    C     0.66476   0.16713   0.16720   0.00000  Uiso   1.00
C58    C     0.83524   0.16620   0.16613   0.00000  Uiso   1.00
C59    C     0.90978   0.21067   0.18940   0.00000  Uiso   1.00
C60    C     0.59022   0.12266   0.14394   0.00000  Uiso   1.00
C61    C     0.88323   0.16431   0.16484   0.00000  Uiso   1.00
C62    C     0.61677   0.16903   0.16849   0.00000  Uiso   1.00
C63    C     0.90206   0.11721   0.14010   0.00000  Uiso   1.00
C64    C     0.59794   0.21612   0.19324   0.00000  Uiso   1.00
C65    C     0.94961   0.11672   0.14162   0.00000  Uiso   1.00
C66    C     0.55039   0.21661   0.19171   0.00000  Uiso   1.00
C67    C     0.97638   0.16541   0.16599   0.00000  Uiso   1.00
C68    C     0.52362   0.16792   0.16734   0.00000  Uiso   1.00
C69    C     0.95595   0.21185   0.18928   0.00000  Uiso   1.00
C70    C     0.54405   0.12148   0.14406   0.00000  Uiso   1.00
C71    C     0.97193   0.07044   0.12028   0.00000  Uiso   1.00
C72    C     0.52807   0.26289   0.21306   0.00000  Uiso   1.00
Cu73   Cu    0.75501   0.17246   0.22813   0.00000  Uiso   1.00
Cu74   Cu    0.74500   0.16087   0.10521   0.00000  Uiso   1.00
H75    H     0.89405   0.24636   0.20780   0.00000  Uiso   1.00
H76    H     0.60595   0.08697   0.12553   0.00000  Uiso   1.00
H77    H     0.53505   0.03833   0.10460   0.00000  Uiso   1.00
H78    H     0.96495   0.29500   0.22873   0.00000  Uiso   1.00
N79    N     0.73745   0.15214   0.01284   0.00000  Uiso   1.00
N80    N     0.76256   0.18119   0.32049   0.00000  Uiso   1.00
O81    O     0.75326   0.09538   0.20659   0.00000  Uiso   1.00
O82    O     0.74675   0.23796   0.12674   0.00000  Uiso   1.00
O83    O     0.74480   0.08559   0.10279   0.00000  Uiso   1.00
O84    O     0.75520   0.24774   0.23055   0.00000  Uiso   1.00
O85    O     0.68936   0.17155   0.21857   0.00000  Uiso   1.00
O86    O     0.81065   0.16179   0.11476   0.00000  Uiso   1.00
O87    O     0.68090   0.16176   0.11477   0.00000  Uiso   1.00
O88    O     0.81910   0.17157   0.21857   0.00000  Uiso   1.00
C89    C     0.87146   0.07104   0.11360   0.00000  Uiso   1.00
N90    N     0.84659   0.03461   0.09252   0.00000  Uiso   1.00
C91    C     0.62854   0.26230   0.21973   0.00000  Uiso   1.00
N92    N     0.65341   0.29872   0.24081   0.00000  Uiso   1.00
C93    C     0.94969   0.01806   0.09840   0.00000  Uiso   1.00
N94    N     0.93248   0.30916   0.08092   0.00000  Uiso   1.00
C95    C     0.55031   0.31527   0.23493   0.00000  Uiso   1.00
N96    N     0.56753   0.02417   0.25241   0.00000  Uiso   1.00
Br97   Br    0.69365   0.31034   0.08163   0.00000  Uiso   1.00
Br98   Br    0.80635   0.02300   0.25170   0.00000  Uiso   1.00
Br99   Br    0.69293   0.10127   0.30114   0.00000  Uiso   1.00
Br100  Br    0.80707   0.23207   0.03219   0.00000  Uiso   1.00
C101   C     0.24786   0.40014   0.15160   0.00000  Uiso   1.00
C102   C     0.25214   0.59986   0.18174   0.00000  Uiso   1.00
C103   C     0.01843   0.40709   0.12131   0.00000  Uiso   1.00
C104   C     0.48157   0.59291   0.21203   0.00000  Uiso   1.00
C105   C     0.24018   0.34475   0.14542   0.00000  Uiso   1.00
C106   C     0.25982   0.65525   0.18791   0.00000  Uiso   1.00
C107   C     0.16476   0.50047   0.16720   0.00000  Uiso   1.00
C108   C     0.33524   0.49953   0.16613   0.00000  Uiso   1.00
C109   C     0.40978   0.54401   0.18940   0.00000  Uiso   1.00
C110   C     0.09022   0.45599   0.14394   0.00000  Uiso   1.00
C111   C     0.38323   0.49764   0.16484   0.00000  Uiso   1.00
C112   C     0.11677   0.50236   0.16849   0.00000  Uiso   1.00
C113   C     0.40206   0.45054   0.14010   0.00000  Uiso   1.00
C114   C     0.09794   0.54946   0.19324   0.00000  Uiso   1.00
C115   C     0.44961   0.45006   0.14162   0.00000  Uiso   1.00
C116   C     0.05039   0.54994   0.19171   0.00000  Uiso   1.00
C117   C     0.47638   0.49874   0.16599   0.00000  Uiso   1.00
C118   C     0.02362   0.50126   0.16734   0.00000  Uiso   1.00
C119   C     0.45595   0.54519   0.18928   0.00000  Uiso   1.00
C120   C     0.04405   0.45481   0.14406   0.00000  Uiso   1.00
C121   C     0.47193   0.40378   0.12028   0.00000  Uiso   1.00
C122   C     0.02807   0.59622   0.21306   0.00000  Uiso   1.00
Cu123  Cu    0.25501   0.50579   0.22813   0.00000  Uiso   1.00
Cu124  Cu    0.24500   0.49421   0.10521   0.00000  Uiso   1.00
H125   H     0.39405   0.57969   0.20780   0.00000  Uiso   1.00
H126   H     0.10595   0.42031   0.12553   0.00000  Uiso   1.00
H127   H     0.03505   0.37167   0.10460   0.00000  Uiso   1.00
H128   H     0.46495   0.62833   0.22873   0.00000  Uiso   1.00
N129   N     0.23745   0.48547   0.01284   0.00000  Uiso   1.00
N130   N     0.26256   0.51453   0.32049   0.00000  Uiso   1.00
O131   O     0.25326   0.42871   0.20659   0.00000  Uiso   1.00
O132   O     0.24675   0.57129   0.12674   0.00000  Uiso   1.00
O133   O     0.24480   0.41892   0.10279   0.00000  Uiso   1.00
O134   O     0.25520   0.58108   0.23055   0.00000  Uiso   1.00
O135   O     0.18936   0.50488   0.21857   0.00000  Uiso   1.00
O136   O     0.31065   0.49512   0.11476   0.00000  Uiso   1.00
O137   O     0.18090   0.49510   0.11477   0.00000  Uiso   1.00
O138   O     0.31910   0.50490   0.21857   0.00000  Uiso   1.00
C139   C     0.37146   0.40437   0.11360   0.00000  Uiso   1.00
N140   N     0.34659   0.36795   0.09252   0.00000  Uiso   1.00
C141   C     0.12854   0.59563   0.21973   0.00000  Uiso   1.00
N142   N     0.15341   0.63205   0.24081   0.00000  Uiso   1.00
C143   C     0.44969   0.35139   0.09840   0.00000  Uiso   1.00
N144   N     0.43248   0.64250   0.08092   0.00000  Uiso   1.00
C145   C     0.05031   0.64861   0.23493   0.00000  Uiso   1.00
N146   N     0.06753   0.35750   0.25241   0.00000  Uiso   1.00
Br147  Br    0.19365   0.64367   0.08163   0.00000  Uiso   1.00
Br148  Br    0.30635   0.35633   0.25170   0.00000  Uiso   1.00
Br149  Br    0.19293   0.43460   0.30114   0.00000  Uiso   1.00
Br150  Br    0.30707   0.56540   0.03219   0.00000  Uiso   1.00
C151   C     0.74786   0.40014   0.15160   0.00000  Uiso   1.00
C152   C     0.75214   0.59986   0.18174   0.00000  Uiso   1.00
C153   C     0.51843   0.40709   0.12131   0.00000  Uiso   1.00
C154   C     0.98157   0.59291   0.21203   0.00000  Uiso   1.00
C155   C     0.74018   0.34475   0.14542   0.00000  Uiso   1.00
C156   C     0.75982   0.65525   0.18791   0.00000  Uiso   1.00
C157   C     0.66476   0.50047   0.16720   0.00000  Uiso   1.00
C158   C     0.83524   0.49953   0.16613   0.00000  Uiso   1.00
C159   C     0.90978   0.54401   0.18940   0.00000  Uiso   1.00
C160   C     0.59022   0.45599   0.14394   0.00000  Uiso   1.00
C161   C     0.88323   0.49764   0.16484   0.00000  Uiso   1.00
C162   C     0.61677   0.50236   0.16849   0.00000  Uiso   1.00
C163   C     0.90206   0.45054   0.14010   0.00000  Uiso   1.00
C164   C     0.59794   0.54946   0.19324   0.00000  Uiso   1.00
C165   C     0.94961   0.45006   0.14162   0.00000  Uiso   1.00
C166   C     0.55039   0.54994   0.19171   0.00000  Uiso   1.00
C167   C     0.97638   0.49874   0.16599   0.00000  Uiso   1.00
C168   C     0.52362   0.50126   0.16734   0.00000  Uiso   1.00
C169   C     0.95595   0.54519   0.18928   0.00000  Uiso   1.00
C170   C     0.54405   0.45481   0.14406   0.00000  Uiso   1.00
C171   C     0.97193   0.40378   0.12028   0.00000  Uiso   1.00
C172   C     0.52807   0.59622   0.21306   0.00000  Uiso   1.00
Cu173  Cu    0.75501   0.50579   0.22813   0.00000  Uiso   1.00
Cu174  Cu    0.74500   0.49421   0.10521   0.00000  Uiso   1.00
H175   H     0.89405   0.57969   0.20780   0.00000  Uiso   1.00
H176   H     0.60595   0.42031   0.12553   0.00000  Uiso   1.00
H177   H     0.53505   0.37167   0.10460   0.00000  Uiso   1.00
H178   H     0.96495   0.62833   0.22873   0.00000  Uiso   1.00
N179   N     0.73745   0.48547   0.01284   0.00000  Uiso   1.00
N180   N     0.76256   0.51453   0.32049   0.00000  Uiso   1.00
O181   O     0.75326   0.42871   0.20659   0.00000  Uiso   1.00
O182   O     0.74675   0.57129   0.12674   0.00000  Uiso   1.00
O183   O     0.74480   0.41892   0.10279   0.00000  Uiso   1.00
O184   O     0.75520   0.58108   0.23055   0.00000  Uiso   1.00
O185   O     0.68936   0.50488   0.21857   0.00000  Uiso   1.00
O186   O     0.81065   0.49512   0.11476   0.00000  Uiso   1.00
O187   O     0.68090   0.49510   0.11477   0.00000  Uiso   1.00
O188   O     0.81910   0.50490   0.21857   0.00000  Uiso   1.00
C189   C     0.87146   0.40437   0.11360   0.00000  Uiso   1.00
N190   N     0.84659   0.36795   0.09252   0.00000  Uiso   1.00
C191   C     0.62854   0.59563   0.21973   0.00000  Uiso   1.00
N192   N     0.65341   0.63205   0.24081   0.00000  Uiso   1.00
C193   C     0.94969   0.35139   0.09840   0.00000  Uiso   1.00
N194   N     0.93248   0.64250   0.08092   0.00000  Uiso   1.00
C195   C     0.55031   0.64861   0.23493   0.00000  Uiso   1.00
N196   N     0.56753   0.35750   0.25241   0.00000  Uiso   1.00
Br197  Br    0.69365   0.64367   0.08163   0.00000  Uiso   1.00
Br198  Br    0.80635   0.35633   0.25170   0.00000  Uiso   1.00
Br199  Br    0.69293   0.43460   0.30114   0.00000  Uiso   1.00
Br200  Br    0.80707   0.56540   0.03219   0.00000  Uiso   1.00
C201   C     0.24786   0.73347   0.15160   0.00000  Uiso   1.00
C202   C     0.25214   0.93319   0.18174   0.00000  Uiso   1.00
C203   C     0.01843   0.74043   0.12131   0.00000  Uiso   1.00
C204   C     0.48157   0.92624   0.21203   0.00000  Uiso   1.00
C205   C     0.24018   0.67809   0.14542   0.00000  Uiso   1.00
C206   C     0.25982   0.98858   0.18791   0.00000  Uiso   1.00
C207   C     0.16476   0.83380   0.16720   0.00000  Uiso   1.00
C208   C     0.33524   0.83287   0.16613   0.00000  Uiso   1.00
C209   C     0.40978   0.87734   0.18940   0.00000  Uiso   1.00
C210   C     0.09022   0.78933   0.14394   0.00000  Uiso   1.00
C211   C     0.38323   0.83097   0.16484   0.00000  Uiso   1.00
C212   C     0.11677   0.83569   0.16849   0.00000  Uiso   1.00
C213   C     0.40206   0.78388   0.14010   0.00000  Uiso   1.00
C214   C     0.09794   0.88279   0.19324   0.00000  Uiso   1.00
C215   C     0.44961   0.78339   0.14162   0.00000  Uiso   1.00
C216   C     0.05039   0.88328   0.19171   0.00000  Uiso   1.00
C217   C     0.47638   0.83208   0.16599   0.00000  Uiso   1.00
C218   C     0.02362   0.83459   0.16734   0.00000  Uiso   1.00
C219   C     0.45595   0.87852   0.18928   0.00000  Uiso   1.00
C220   C     0.04405   0.78815   0.14406   0.00000  Uiso   1.00
C221   C     0.47193   0.73711   0.12028   0.00000  Uiso   1.00
C222   C     0.02807   0.92956   0.21306   0.00000  Uiso   1.00
Cu223  Cu    0.25501   0.83913   0.22813   0.00000  Uiso   1.00
Cu224  Cu    0.24500   0.82754   0.10521   0.00000  Uiso   1.00
H225   H     0.39405   0.91303   0.20780   0.00000  Uiso   1.00
H226   H     0.10595   0.75364   0.12553   0.00000  Uiso   1.00
H227   H     0.03505   0.70500   0.10460   0.00000  Uiso   1.00
H228   H     0.46495   0.96167   0.22873   0.00000  Uiso   1.00
N229   N     0.23745   0.81881   0.01284   0.00000  Uiso   1.00
N230   N     0.26256   0.84786   0.32049   0.00000  Uiso   1.00
O231   O     0.25326   0.76204   0.20659   0.00000  Uiso   1.00
O232   O     0.24675   0.90462   0.12674   0.00000  Uiso   1.00
O233   O     0.24480   0.75226   0.10279   0.00000  Uiso   1.00
O234   O     0.25520   0.91441   0.23055   0.00000  Uiso   1.00
O235   O     0.18936   0.83821   0.21857   0.00000  Uiso   1.00
O236   O     0.31065   0.82845   0.11476   0.00000  Uiso   1.00
O237   O     0.18090   0.82843   0.11477   0.00000  Uiso   1.00
O238   O     0.31910   0.83824   0.21857   0.00000  Uiso   1.00
C239   C     0.37146   0.73770   0.11360   0.00000  Uiso   1.00
N240   N     0.34659   0.70128   0.09252   0.00000  Uiso   1.00
C241   C     0.12854   0.92896   0.21973   0.00000  Uiso   1.00
N242   N     0.15341   0.96539   0.24081   0.00000  Uiso   1.00
C243   C     0.44969   0.68473   0.09840   0.00000  Uiso   1.00
N244   N     0.43248   0.97583   0.08092   0.00000  Uiso   1.00
C245   C     0.05031   0.98194   0.23493   0.00000  Uiso   1.00
N246   N     0.06753   0.69084   0.25241   0.00000  Uiso   1.00
Br247  Br    0.19365   0.97700   0.08163   0.00000  Uiso   1.00
Br248  Br    0.30635   0.68966   0.25170   0.00000  Uiso   1.00
Br249  Br    0.19293   0.76793   0.30114   0.00000  Uiso   1.00
Br250  Br    0.30707   0.89873   0.03219   0.00000  Uiso   1.00
C251   C     0.74786   0.73347   0.15160   0.00000  Uiso   1.00
C252   C     0.75214   0.93319   0.18174   0.00000  Uiso   1.00
C253   C     0.51843   0.74043   0.12131   0.00000  Uiso   1.00
C254   C     0.98157   0.92624   0.21203   0.00000  Uiso   1.00
C255   C     0.74018   0.67809   0.14542   0.00000  Uiso   1.00
C256   C     0.75982   0.98858   0.18791   0.00000  Uiso   1.00
C257   C     0.66476   0.83380   0.16720   0.00000  Uiso   1.00
C258   C     0.83524   0.83287   0.16613   0.00000  Uiso   1.00
C259   C     0.90978   0.87734   0.18940   0.00000  Uiso   1.00
C260   C     0.59022   0.78933   0.14394   0.00000  Uiso   1.00
C261   C     0.88323   0.83097   0.16484   0.00000  Uiso   1.00
C262   C     0.61677   0.83569   0.16849   0.00000  Uiso   1.00
C263   C     0.90206   0.78388   0.14010   0.00000  Uiso   1.00
C264   C     0.59794   0.88279   0.19324   0.00000  Uiso   1.00
C265   C     0.94961   0.78339   0.14162   0.00000  Uiso   1.00
C266   C     0.55039   0.88328   0.19171   0.00000  Uiso   1.00
C267   C     0.97638   0.83208   0.16599   0.00000  Uiso   1.00
C268   C     0.52362   0.83459   0.16734   0.00000  Uiso   1.00
C269   C     0.95595   0.87852   0.18928   0.00000  Uiso   1.00
C270   C     0.54405   0.78815   0.14406   0.00000  Uiso   1.00
C271   C     0.97193   0.73711   0.12028   0.00000  Uiso   1.00
C272   C     0.52807   0.92956   0.21306   0.00000  Uiso   1.00
Cu273  Cu    0.75501   0.83913   0.22813   0.00000  Uiso   1.00
Cu274  Cu    0.74500   0.82754   0.10521   0.00000  Uiso   1.00
H275   H     0.89405   0.91303   0.20780   0.00000  Uiso   1.00
H276   H     0.60595   0.75364   0.12553   0.00000  Uiso   1.00
H277   H     0.53505   0.70500   0.10460   0.00000  Uiso   1.00
H278   H     0.96495   0.96167   0.22873   0.00000  Uiso   1.00
N279   N     0.73745   0.81881   0.01284   0.00000  Uiso   1.00
N280   N     0.76256   0.84786   0.32049   0.00000  Uiso   1.00
O281   O     0.75326   0.76204   0.20659   0.00000  Uiso   1.00
O282   O     0.74675   0.90462   0.12674   0.00000  Uiso   1.00
O283   O     0.74480   0.75226   0.10279   0.00000  Uiso   1.00
O284   O     0.75520   0.91441   0.23055   0.00000  Uiso   1.00
O285   O     0.68936   0.83821   0.21857   0.00000  Uiso   1.00
O286   O     0.81065   0.82845   0.11476   0.00000  Uiso   1.00
O287   O     0.68090   0.82843   0.11477   0.00000  Uiso   1.00
O288   O     0.81910   0.83824   0.21857   0.00000  Uiso   1.00
C289   C     0.87146   0.73770   0.11360   0.00000  Uiso   1.00
N290   N     0.84659   0.70128   0.09252   0.00000  Uiso   1.00
C291   C     0.62854   0.92896   0.21973   0.00000  Uiso   1.00
N292   N     0.65341   0.96539   0.24081   0.00000  Uiso   1.00
C293   C     0.94969   0.68473   0.09840   0.00000  Uiso   1.00
N294   N     0.93248   0.97583   0.08092   0.00000  Uiso   1.00
C295   C     0.55031   0.98194   0.23493   0.00000  Uiso   1.00
N296   N     0.56753   0.69084   0.25241   0.00000  Uiso   1.00
Br297  Br    0.69365   0.97700   0.08163   0.00000  Uiso   1.00
Br298  Br    0.80635   0.68966   0.25170   0.00000  Uiso   1.00
Br299  Br    0.69293   0.76793   0.30114   0.00000  Uiso   1.00
Br300  Br    0.80707   0.89873   0.03219   0.00000  Uiso   1.00
C301   C     0.24786   0.06681   0.48493   0.00000  Uiso   1.00
C302   C     0.25214   0.26653   0.51507   0.00000  Uiso   1.00
C303   C     0.01843   0.07376   0.45464   0.00000  Uiso   1.00
C304   C     0.48157   0.25957   0.54536   0.00000  Uiso   1.00
C305   C     0.24018   0.01142   0.47876   0.00000  Uiso   1.00
C306   C     0.25982   0.32191   0.52124   0.00000  Uiso   1.00
C307   C     0.16476   0.16713   0.50053   0.00000  Uiso   1.00
C308   C     0.33524   0.16620   0.49947   0.00000  Uiso   1.00
C309   C     0.40978   0.21067   0.52273   0.00000  Uiso   1.00
C310   C     0.09022   0.12266   0.47727   0.00000  Uiso   1.00
C311   C     0.38323   0.16431   0.49817   0.00000  Uiso   1.00
C312   C     0.11677   0.16903   0.50183   0.00000  Uiso   1.00
C313   C     0.40206   0.11721   0.47343   0.00000  Uiso   1.00
C314   C     0.09794   0.21612   0.52657   0.00000  Uiso   1.00
C315   C     0.44961   0.11672   0.47495   0.00000  Uiso   1.00
C316   C     0.05039   0.21661   0.52505   0.00000  Uiso   1.00
C317   C     0.47638   0.16541   0.49932   0.00000  Uiso   1.00
C318   C     0.02362   0.16792   0.50068   0.00000  Uiso   1.00
C319   C     0.45595   0.21185   0.52261   0.00000  Uiso   1.00
C320   C     0.04405   0.12148   0.47739   0.00000  Uiso   1.00
C321   C     0.47193   0.07044   0.45361   0.00000  Uiso   1.00
C322   C     0.02807   0.26289   0.54639   0.00000  Uiso   1.00
Cu323  Cu    0.25501   0.17246   0.56146   0.00000  Uiso   1.00
Cu324  Cu    0.24500   0.16087   0.43854   0.00000  Uiso   1.00
H325   H     0.39405   0.24636   0.54114   0.00000  Uiso   1.00
H326   H     0.10595   0.08697   0.45886   0.00000  Uiso   1.00
H327   H     0.03505   0.03833   0.43794   0.00000  Uiso   1.00
H328   H     0.46495   0.29500   0.56206   0.00000  Uiso   1.00
N329   N     0.23745   0.15214   0.34617   0.00000  Uiso   1.00
N330   N     0.26256   0.18119   0.65383   0.00000  Uiso   1.00
O331   O     0.25326   0.09538   0.53992   0.00000  Uiso   1.00
O332   O     0.24675   0.23796   0.46008   0.00000  Uiso   1.00
O333   O     0.24480   0.08559   0.43612   0.00000  Uiso   1.00
O334   O     0.25520   0.24774   0.56388   0.00000  Uiso   1.00
O335   O     0.18936   0.17155   0.55191   0.00000  Uiso   1.00
O336   O     0.31065   0.16179   0.44809   0.00000  Uiso   1.00
O337   O     0.18090   0.16176   0.44810   0.00000  Uiso   1.00
O338   O     0.31910   0.17157   0.55190   0.00000  Uiso   1.00
C339   C     0.37146   0.07104   0.44693   0.00000  Uiso   1.00
N340   N     0.34659   0.03461   0.42585   0.00000  Uiso   1.00
C341   C     0.12854   0.26230   0.55306   0.00000  Uiso   1.00
N342   N     0.15341   0.29872   0.57414   0.00000  Uiso   1.00
C343   C     0.44969   0.01806   0.43174   0.00000  Uiso   1.00
N344   N     0.43248   0.30916   0.41426   0.00000  Uiso   1.00
C345   C     0.05031   0.31527   0.56826   0.00000  Uiso   1.00
N346   N     0.06753   0.02417   0.58575   0.00000  Uiso   1.00
Br347  Br    0.19365   0.31034   0.41496   0.00000  Uiso   1.00
Br348  Br    0.30635   0.02300   0.58503   0.00000  Uiso   1.00
Br349  Br    0.19293   0.10127   0.63448   0.00000  Uiso   1.00
Br350  Br    0.30707   0.23207   0.36552   0.00000  Uiso   1.00
C351   C     0.74786   0.06681   0.48493   0.00000  Uiso   1.00
C352   C     0.75214   0.26653   0.51507   0.00000  Uiso   1.00
C353   C     0.51843   0.07376   0.45464   0.00000  Uiso   1.00
C354   C     0.98157   0.25957   0.54536   0.00000  Uiso   1.00
C355   C     0.74018   0.01142   0.47876   0.00000  Uiso   1.00
C356   C     0.75982   0.32191   0.52124   0.00000  Uiso   1.00
C357   C     0.66476   0.16713   0.50053   0.00000  Uiso   1.00
C358   C     0.83524   0.16620   0.49947   0.00000  Uiso   1.00
C359   C     0.90978   0.21067   0.52273   0.00000  Uiso   1.00
C360   C     0.59022   0.12266   0.47727   0.00000  Uiso   1.00
C361   C     0.88323   0.16431   0.49817   0.00000  Uiso   1.00
C362   C     0.61677   0.16903   0.50183   0.00000  Uiso   1.00
C363   C     0.90206   0.11721   0.47343   0.00000  Uiso   1.00
C364   C     0.59794   0.21612   0.52657   0.00000  Uiso   1.00
C365   C     0.94961   0.11672   0.47495   0.00000  Uiso   1.00
C366   C     0.55039   0.21661   0.52505   0.00000  Uiso   1.00
C367   C     0.97638   0.16541   0.49932   0.00000  Uiso   1.00
C368   C     0.52362   0.16792   0.50068   0.00000  Uiso   1.00
C369   C     0.95595   0.21185   0.52261   0.00000  Uiso   1.00
C370   C     0.54405   0.12148   0.47739   0.00000  Uiso   1.00
C371   C     0.97193   0.07044   0.45361   0.00000  Uiso   1.00
C372   C     0.52807   0.26289   0.54639   0.00000  Uiso   1.00
Cu373  Cu    0.75501   0.17246   0.56146   0.00000  Uiso   1.00
Cu374  Cu    0.74500   0.16087   0.43854   0.00000  Uiso   1.00
H375   H     0.89405   0.24636   0.54114   0.00000  Uiso   1.00
H376   H     0.60595   0.08697   0.45886   0.00000  Uiso   1.00
H377   H     0.53505   0.03833   0.43794   0.00000  Uiso   1.00
H378   H     0.96495   0.29500   0.56206   0.00000  Uiso   1.00
N379   N     0.73745   0.15214   0.34617   0.00000  Uiso   1.00
N380   N     0.76256   0.18119   0.65383   0.00000  Uiso   1.00
O381   O     0.75326   0.09538   0.53992   0.00000  Uiso   1.00
O382   O     0.74675   0.23796   0.46008   0.00000  Uiso   1.00
O383   O     0.74480   0.08559   0.43612   0.00000  Uiso   1.00
O384   O     0.75520   0.24774   0.56388   0.00000  Uiso   1.00
O385   O     0.68936   0.17155   0.55191   0.00000  Uiso   1.00
O386   O     0.81065   0.16179   0.44809   0.00000  Uiso   1.00
O387   O     0.68090   0.16176   0.44810   0.00000  Uiso   1.00
O388   O     0.81910   0.17157   0.55190   0.00000  Uiso   1.00
C389   C     0.87146   0.07104   0.44693   0.00000  Uiso   1.00
N390   N     0.84659   0.03461   0.42585   0.00000  Uiso   1.00
C391   C     0.62854   0.26230   0.55306   0.00000  Uiso   1.00
N392   N     0.65341   0.29872   0.57414   0.00000  Uiso   1.00
C393   C     0.94969   0.01806   0.43174   0.00000  Uiso   1.00
N394   N     0.93248   0.30916   0.41426   0.00000  Uiso   1.00
C395   C     0.55031   0.31527   0.56826   0.00000  Uiso   1.00
N396   N     0.56753   0.02417   0.58575   0.00000  Uiso   1.00
Br397  Br    0.69365   0.31034   0.41496   0.00000  Uiso   1.00
Br398  Br    0.80635   0.02300   0.58503   0.00000  Uiso   1.00
Br399  Br    0.69293   0.10127   0.63448   0.00000  Uiso   1.00
Br400  Br    0.80707   0.23207   0.36552   0.00000  Uiso   1.00
C401   C     0.24786   0.40014   0.48493   0.00000  Uiso   1.00
C402   C     0.25214   0.59986   0.51507   0.00000  Uiso   1.00
C403   C     0.01843   0.40709   0.45464   0.00000  Uiso   1.00
C404   C     0.48157   0.59291   0.54536   0.00000  Uiso   1.00
C405   C     0.24018   0.34475   0.47876   0.00000  Uiso   1.00
C406   C     0.25982   0.65525   0.52124   0.00000  Uiso   1.00
C407   C     0.16476   0.50047   0.50053   0.00000  Uiso   1.00
C408   C     0.33524   0.49953   0.49947   0.00000  Uiso   1.00
C409   C     0.40978   0.54401   0.52273   0.00000  Uiso   1.00
C410   C     0.09022   0.45599   0.47727   0.00000  Uiso   1.00
C411   C     0.38323   0.49764   0.49817   0.00000  Uiso   1.00
C412   C     0.11677   0.50236   0.50183   0.00000  Uiso   1.00
C413   C     0.40206   0.45054   0.47343   0.00000  Uiso   1.00
C414   C     0.09794   0.54946   0.52657   0.00000  Uiso   1.00
C415   C     0.44961   0.45006   0.47495   0.00000  Uiso   1.00
C416   C     0.05039   0.54994   0.52505   0.00000  Uiso   1.00
C417   C     0.47638   0.49874   0.49932   0.00000  Uiso   1.00
C418   C     0.02362   0.50126   0.50068   0.00000  Uiso   1.00
C419   C     0.45595   0.54519   0.52261   0.00000  Uiso   1.00
C420   C     0.04405   0.45481   0.47739   0.00000  Uiso   1.00
C421   C     0.47193   0.40378   0.45361   0.00000  Uiso   1.00
C422   C     0.02807   0.59622   0.54639   0.00000  Uiso   1.00
Cu423  Cu    0.25501   0.50579   0.56146   0.00000  Uiso   1.00
Cu424  Cu    0.24500   0.49421   0.43854   0.00000  Uiso   1.00
H425   H     0.39405   0.57969   0.54114   0.00000  Uiso   1.00
H426   H     0.10595   0.42031   0.45886   0.00000  Uiso   1.00
H427   H     0.03505   0.37167   0.43794   0.00000  Uiso   1.00
H428   H     0.46495   0.62833   0.56206   0.00000  Uiso   1.00
N429   N     0.23745   0.48547   0.34617   0.00000  Uiso   1.00
N430   N     0.26256   0.51453   0.65383   0.00000  Uiso   1.00
O431   O     0.25326   0.42871   0.53992   0.00000  Uiso   1.00
O432   O     0.24675   0.57129   0.46008   0.00000  Uiso   1.00
O433   O     0.24480   0.41892   0.43612   0.00000  Uiso   1.00
O434   O     0.25520   0.58108   0.56388   0.00000  Uiso   1.00
O435   O     0.18936   0.50488   0.55191   0.00000  Uiso   1.00
O436   O     0.31065   0.49512   0.44809   0.00000  Uiso   1.00
O437   O     0.18090   0.49510   0.44810   0.00000  Uiso   1.00
O438   O     0.31910   0.50490   0.55190   0.00000  Uiso   1.00
C439   C     0.37146   0.40437   0.44693   0.00000  Uiso   1.00
N440   N     0.34659   0.36795   0.42585   0.00000  Uiso   1.00
C441   C     0.12854   0.59563   0.55306   0.00000  Uiso   1.00
N442   N     0.15341   0.63205   0.57414   0.00000  Uiso   1.00
C443   C     0.44969   0.35139   0.43174   0.00000  Uiso   1.00
N444   N     0.43248   0.64250   0.41426   0.00000  Uiso   1.00
C445   C     0.05031   0.64861   0.56826   0.00000  Uiso   1.00
N446   N     0.06753   0.35750   0.58575   0.00000  Uiso   1.00
Br447  Br    0.19365   0.64367   0.41496   0.00000  Uiso   1.00
Br448  Br    0.30635   0.35633   0.58503   0.00000  Uiso   1.00
Br449  Br    0.19293   0.43460   0.63448   0.00000  Uiso   1.00
Br450  Br    0.30707   0.56540   0.36552   0.00000  Uiso   1.00
C451   C     0.74786   0.40014   0.48493   0.00000  Uiso   1.00
C452   C     0.75214   0.59986   0.51507   0.00000  Uiso   1.00
C453   C     0.51843   0.40709   0.45464   0.00000  Uiso   1.00
C454   C     0.98157   0.59291   0.54536   0.00000  Uiso   1.00
C455   C     0.74018   0.34475   0.47876   0.00000  Uiso   1.00
C456   C     0.75982   0.65525   0.52124   0.00000  Uiso   1.00
C457   C     0.66476   0.50047   0.50053   0.00000  Uiso   1.00
C458   C     0.83524   0.49953   0.49947   0.00000  Uiso   1.00
C459   C     0.90978   0.54401   0.52273   0.00000  Uiso   1.00
C460   C     0.59022   0.45599   0.47727   0.00000  Uiso   1.00
C461   C     0.88323   0.49764   0.49817   0.00000  Uiso   1.00
C462   C     0.61677   0.50236   0.50183   0.00000  Uiso   1.00
C463   C     0.90206   0.45054   0.47343   0.00000  Uiso   1.00
C464   C     0.59794   0.54946   0.52657   0.00000  Uiso   1.00
C465   C     0.94961   0.45006   0.47495   0.00000  Uiso   1.00
C466   C     0.55039   0.54994   0.52505   0.00000  Uiso   1.00
C467   C     0.97638   0.49874   0.49932   0.00000  Uiso   1.00
C468   C     0.52362   0.50126   0.50068   0.00000  Uiso   1.00
C469   C     0.95595   0.54519   0.52261   0.00000  Uiso   1.00
C470   C     0.54405   0.45481   0.47739   0.00000  Uiso   1.00
C471   C     0.97193   0.40378   0.45361   0.00000  Uiso   1.00
C472   C     0.52807   0.59622   0.54639   0.00000  Uiso   1.00
Cu473  Cu    0.75501   0.50579   0.56146   0.00000  Uiso   1.00
Cu474  Cu    0.74500   0.49421   0.43854   0.00000  Uiso   1.00
H475   H     0.89405   0.57969   0.54114   0.00000  Uiso   1.00
H476   H     0.60595   0.42031   0.45886   0.00000  Uiso   1.00
H477   H     0.53505   0.37167   0.43794   0.00000  Uiso   1.00
H478   H     0.96495   0.62833   0.56206   0.00000  Uiso   1.00
N479   N     0.73745   0.48547   0.34617   0.00000  Uiso   1.00
N480   N     0.76256   0.51453   0.65383   0.00000  Uiso   1.00
O481   O     0.75326   0.42871   0.53992   0.00000  Uiso   1.00
O482   O     0.74675   0.57129   0.46008   0.00000  Uiso   1.00
O483   O     0.74480   0.41892   0.43612   0.00000  Uiso   1.00
O484   O     0.75520   0.58108   0.56388   0.00000  Uiso   1.00
O485   O     0.68936   0.50488   0.55191   0.00000  Uiso   1.00
O486   O     0.81065   0.49512   0.44809   0.00000  Uiso   1.00
O487   O     0.68090   0.49510   0.44810   0.00000  Uiso   1.00
O488   O     0.81910   0.50490   0.55190   0.00000  Uiso   1.00
C489   C     0.87146   0.40437   0.44693   0.00000  Uiso   1.00
N490   N     0.84659   0.36795   0.42585   0.00000  Uiso   1.00
C491   C     0.62854   0.59563   0.55306   0.00000  Uiso   1.00
N492   N     0.65341   0.63205   0.57414   0.00000  Uiso   1.00
C493   C     0.94969   0.35139   0.43174   0.00000  Uiso   1.00
N494   N     0.93248   0.64250   0.41426   0.00000  Uiso   1.00
C495   C     0.55031   0.64861   0.56826   0.00000  Uiso   1.00
N496   N     0.56753   0.35750   0.58575   0.00000  Uiso   1.00
Br497  Br    0.69365   0.64367   0.41496   0.00000  Uiso   1.00
Br498  Br    0.80635   0.35633   0.58503   0.00000  Uiso   1.00
Br499  Br    0.69293   0.43460   0.63448   0.00000  Uiso   1.00
Br500  Br    0.80707   0.56540   0.36552   0.00000  Uiso   1.00
C501   C     0.24786   0.73347   0.48493   0.00000  Uiso   1.00
C502   C     0.25214   0.93319   0.51507   0.00000  Uiso   1.00
C503   C     0.01843   0.74043   0.45464   0.00000  Uiso   1.00
C504   C     0.48157   0.92624   0.54536   0.00000  Uiso   1.00
C505   C     0.24018   0.67809   0.47876   0.00000  Uiso   1.00
C506   C     0.25982   0.98858   0.52124   0.00000  Uiso   1.00
C507   C     0.16476   0.83380   0.50053   0.00000  Uiso   1.00
C508   C     0.33524   0.83287   0.49947   0.00000  Uiso   1.00
C509   C     0.40978   0.87734   0.52273   0.00000  Uiso   1.00
C510   C     0.09022   0.78933   0.47727   0.00000  Uiso   1.00
C511   C     0.38323   0.83097   0.49817   0.00000  Uiso   1.00
C512   C     0.11677   0.83569   0.50183   0.00000  Uiso   1.00
C513   C     0.40206   0.78388   0.47343   0.00000  Uiso   1.00
C514   C     0.09794   0.88279   0.52657   0.00000  Uiso   1.00
C515   C     0.44961   0.78339   0.47495   0.00000  Uiso   1.00
C516   C     0.05039   0.88328   0.52505   0.00000  Uiso   1.00
C517   C     0.47638   0.83208   0.49932   0.00000  Uiso   1.00
C518   C     0.02362   0.83459   0.50068   0.00000  Uiso   1.00
C519   C     0.45595   0.87852   0.52261   0.00000  Uiso   1.00
C520   C     0.04405   0.78815   0.47739   0.00000  Uiso   1.00
C521   C     0.47193   0.73711   0.45361   0.00000  Uiso   1.00
C522   C     0.02807   0.92956   0.54639   0.00000  Uiso   1.00
Cu523  Cu    0.25501   0.83913   0.56146   0.00000  Uiso   1.00
Cu524  Cu    0.24500   0.82754   0.43854   0.00000  Uiso   1.00
H525   H     0.39405   0.91303   0.54114   0.00000  Uiso   1.00
H526   H     0.10595   0.75364   0.45886   0.00000  Uiso   1.00
H527   H     0.03505   0.70500   0.43794   0.00000  Uiso   1.00
H528   H     0.46495   0.96167   0.56206   0.00000  Uiso   1.00
N529   N     0.23745   0.81881   0.34617   0.00000  Uiso   1.00
N530   N     0.26256   0.84786   0.65383   0.00000  Uiso   1.00
O531   O     0.25326   0.76204   0.53992   0.00000  Uiso   1.00
O532   O     0.24675   0.90462   0.46008   0.00000  Uiso   1.00
O533   O     0.24480   0.75226   0.43612   0.00000  Uiso   1.00
O534   O     0.25520   0.91441   0.56388   0.00000  Uiso   1.00
O535   O     0.18936   0.83821   0.55191   0.00000  Uiso   1.00
O536   O     0.31065   0.82845   0.44809   0.00000  Uiso   1.00
O537   O     0.18090   0.82843   0.44810   0.00000  Uiso   1.00
O538   O     0.31910   0.83824   0.55190   0.00000  Uiso   1.00
C539   C     0.37146   0.73770   0.44693   0.00000  Uiso   1.00
N540   N     0.34659   0.70128   0.42585   0.00000  Uiso   1.00
C541   C     0.12854   0.92896   0.55306   0.00000  Uiso   1.00
N542   N     0.15341   0.96539   0.57414   0.00000  Uiso   1.00
C543   C     0.44969   0.68473   0.43174   0.00000  Uiso   1.00
N544   N     0.43248   0.97583   0.41426   0.00000  Uiso   1.00
C545   C     0.05031   0.98194   0.56826   0.00000  Uiso   1.00
N546   N     0.06753   0.69084   0.58575   0.00000  Uiso   1.00
Br547  Br    0.19365   0.97700   0.41496   0.00000  Uiso   1.00
Br548  Br    0.30635   0.68966   0.58503   0.00000  Uiso   1.00
Br549  Br    0.19293   0.76793   0.63448   0.00000  Uiso   1.00
Br550  Br    0.30707   0.89873   0.36552   0.00000  Uiso   1.00
C551   C     0.74786   0.73347   0.48493   0.00000  Uiso   1.00
C552   C     0.75214   0.93319   0.51507   0.00000  Uiso   1.00
C553   C     0.51843   0.74043   0.45464   0.00000  Uiso   1.00
C554   C     0.98157   0.92624   0.54536   0.00000  Uiso   1.00
C555   C     0.74018   0.67809   0.47876   0.00000  Uiso   1.00
C556   C     0.75982   0.98858   0.52124   0.00000  Uiso   1.00
C557   C     0.66476   0.83380   0.50053   0.00000  Uiso   1.00
C558   C     0.83524   0.83287   0.49947   0.00000  Uiso   1.00
C559   C     0.90978   0.87734   0.52273   0.00000  Uiso   1.00
C560   C     0.59022   0.78933   0.47727   0.00000  Uiso   1.00
C561   C     0.88323   0.83097   0.49817   0.00000  Uiso   1.00
C562   C     0.61677   0.83569   0.50183   0.00000  Uiso   1.00
C563   C     0.90206   0.78388   0.47343   0.00000  Uiso   1.00
C564   C     0.59794   0.88279   0.52657   0.00000  Uiso   1.00
C565   C     0.94961   0.78339   0.47495   0.00000  Uiso   1.00
C566   C     0.55039   0.88328   0.52505   0.00000  Uiso   1.00
C567   C     0.97638   0.83208   0.49932   0.00000  Uiso   1.00
C568   C     0.52362   0.83459   0.50068   0.00000  Uiso   1.00
C569   C     0.95595   0.87852   0.52261   0.00000  Uiso   1.00
C570   C     0.54405   0.78815   0.47739   0.00000  Uiso   1.00
C571   C     0.97193   0.73711   0.45361   0.00000  Uiso   1.00
C572   C     0.52807   0.92956   0.54639   0.00000  Uiso   1.00
Cu573  Cu    0.75501   0.83913   0.56146   0.00000  Uiso   1.00
Cu574  Cu    0.74500   0.82754   0.43854   0.00000  Uiso   1.00
H575   H     0.89405   0.91303   0.54114   0.00000  Uiso   1.00
H576   H     0.60595   0.75364   0.45886   0.00000  Uiso   1.00
H577   H     0.53505   0.70500   0.43794   0.00000  Uiso   1.00
H578   H     0.96495   0.96167   0.56206   0.00000  Uiso   1.00
N579   N     0.73745   0.81881   0.34617   0.00000  Uiso   1.00
N580   N     0.76256   0.84786   0.65383   0.00000  Uiso   1.00
O581   O     0.75326   0.76204   0.53992   0.00000  Uiso   1.00
O582   O     0.74675   0.90462   0.46008   0.00000  Uiso   1.00
O583   O     0.74480   0.75226   0.43612   0.00000  Uiso   1.00
O584   O     0.75520   0.91441   0.56388   0.00000  Uiso   1.00
O585   O     0.68936   0.83821   0.55191   0.00000  Uiso   1.00
O586   O     0.81065   0.82845   0.44809   0.00000  Uiso   1.00
O587   O     0.68090   0.82843   0.44810   0.00000  Uiso   1.00
O588   O     0.81910   0.83824   0.55190   0.00000  Uiso   1.00
C589   C     0.87146   0.73770   0.44693   0.00000  Uiso   1.00
N590   N     0.84659   0.70128   0.42585   0.00000  Uiso   1.00
C591   C     0.62854   0.92896   0.55306   0.00000  Uiso   1.00
N592   N     0.65341   0.96539   0.57414   0.00000  Uiso   1.00
C593   C     0.94969   0.68473   0.43174   0.00000  Uiso   1.00
N594   N     0.93248   0.97583   0.41426   0.00000  Uiso   1.00
C595   C     0.55031   0.98194   0.56826   0.00000  Uiso   1.00
N596   N     0.56753   0.69084   0.58575   0.00000  Uiso   1.00
Br597  Br    0.69365   0.97700   0.41496   0.00000  Uiso   1.00
Br598  Br    0.80635   0.68966   0.58503   0.00000  Uiso   1.00
Br599  Br    0.69293   0.76793   0.63448   0.00000  Uiso   1.00
Br600  Br    0.80707   0.89873   0.36552   0.00000  Uiso   1.00
C601   C     0.24786   0.06681   0.81826   0.00000  Uiso   1.00
C602   C     0.25214   0.26653   0.84840   0.00000  Uiso   1.00
C603   C     0.01843   0.07376   0.78797   0.00000  Uiso   1.00
C604   C     0.48157   0.25957   0.87870   0.00000  Uiso   1.00
C605   C     0.24018   0.01142   0.81209   0.00000  Uiso   1.00
C606   C     0.25982   0.32191   0.85457   0.00000  Uiso   1.00
C607   C     0.16476   0.16713   0.83387   0.00000  Uiso   1.00
C608   C     0.33524   0.16620   0.83280   0.00000  Uiso   1.00
C609   C     0.40978   0.21067   0.85606   0.00000  Uiso   1.00
C610   C     0.09022   0.12266   0.81061   0.00000  Uiso   1.00
C611   C     0.38323   0.16431   0.83151   0.00000  Uiso   1.00
C612   C     0.11677   0.16903   0.83516   0.00000  Uiso   1.00
C613   C     0.40206   0.11721   0.80676   0.00000  Uiso   1.00
C614   C     0.09794   0.21612   0.85990   0.00000  Uiso   1.00
C615   C     0.44961   0.11672   0.80829   0.00000  Uiso   1.00
C616   C     0.05039   0.21661   0.85838   0.00000  Uiso   1.00
C617   C     0.47638   0.16541   0.83266   0.00000  Uiso   1.00
C618   C     0.02362   0.16792   0.83401   0.00000  Uiso   1.00
C619   C     0.45595   0.21185   0.85595   0.00000  Uiso   1.00
C620   C     0.04405   0.12148   0.81072   0.00000  Uiso   1.00
C621   C     0.47193   0.07044   0.78694   0.00000  Uiso   1.00
C622   C     0.02807   0.26289   0.87972   0.00000  Uiso   1.00
Cu623  Cu    0.25501   0.17246   0.89479   0.00000  Uiso   1.00
Cu624  Cu    0.24500   0.16087   0.77187   0.00000  Uiso   1.00
H625   H     0.39405   0.24636   0.87447   0.00000  Uiso   1.00
H626   H     0.10595   0.08697   0.79220   0.00000  Uiso   1.00
H627   H     0.03505   0.03833   0.77127   0.00000  Uiso   1.00
H628   H     0.46495   0.29500   0.89540   0.00000  Uiso   1.00
N629   N     0.23745   0.15214   0.67951   0.00000  Uiso   1.00
N630   N     0.26256   0.18119   0.98716   0.00000  Uiso   1.00
O631   O     0.25326   0.09538   0.87326   0.00000  Uiso   1.00
O632   O     0.24675   0.23796   0.79341   0.00000  Uiso   1.00
O633   O     0.24480   0.08559   0.76945   0.00000  Uiso   1.00
O634   O     0.25520   0.24774   0.89721   0.00000  Uiso   1.00
O635   O     0.18936   0.17155   0.88524   0.00000  Uiso   1.00
O636   O     0.31065   0.16179   0.78143   0.00000  Uiso   1.00
O637   O     0.18090   0.16176   0.78143   0.00000  Uiso   1.00
O638   O     0.31910   0.17157   0.88523   0.00000  Uiso   1.00
C639   C     0.37146   0.07104   0.78027   0.00000  Uiso   1.00
N640   N     0.34659   0.03461   0.75919   0.00000  Uiso   1.00
C641   C     0.12854   0.26230   0.88640   0.00000  Uiso   1.00
N642   N     0.15341   0.29872   0.90747   0.00000  Uiso   1.00
C643   C     0.44969   0.01806   0.76507   0.00000  Uiso   1.00
N644   N     0.43248   0.30916   0.74759   0.00000  Uiso   1.00
C645   C     0.05031   0.31527   0.90160   0.00000  Uiso   1.00
N646   N     0.06753   0.02417   0.91908   0.00000  Uiso   1.00
Br647  Br    0.19365   0.31034   0.74830   0.00000  Uiso   1.00
Br648  Br    0.30635   0.02300   0.91837   0.00000  Uiso   1.00
Br649  Br    0.19293   0.10127   0.96781   0.00000  Uiso   1.00
Br650  Br    0.30707   0.23207   0.69886   0.00000  Uiso   1.00
C651   C     0.74786   0.06681   0.81826   0.00000  Uiso   1.00
C652   C     0.75214   0.26653   0.84840   0.00000  Uiso   1.00
C653   C     0.51843   0.07376   0.78797   0.00000  Uiso   1.00
C654   C     0.98157   0.25957   0.87870   0.00000  Uiso   1.00
C655   C     0.74018   0.01142   0.81209   0.00000  Uiso   1.00
C656   C     0.75982   0.32191   0.85457   0.00000  Uiso   1.00
C657   C     0.66476   0.16713   0.83387   0.00000  Uiso   1.00
C658   C     0.83524   0.16620   0.83280   0.00000  Uiso   1.00
C659   C     0.90978   0.21067   0.85606   0.00000  Uiso   1.00
C660   C     0.59022   0.12266   0.81061   0.00000  Uiso   1.00
C661   C     0.88323   0.16431   0.83151   0.00000  Uiso   1.00
C662   C     0.61677   0.16903   0.83516   0.00000  Uiso   1.00
C663   C     0.90206   0.11721   0.80676   0.00000  Uiso   1.00
C664   C     0.59794   0.21612   0.85990   0.00000  Uiso   1.00
C665   C     0.94961   0.11672   0.80829   0.00000  Uiso   1.00
C666   C     0.55039   0.21661   0.85838   0.00000  Uiso   1.00
C667   C     0.97638   0.16541   0.83266   0.00000  Uiso   1.00
C668   C     0.52362   0.16792   0.83401   0.00000  Uiso   1.00
C669   C     0.95595   0.21185   0.85595   0.00000  Uiso   1.00
C670   C     0.54405   0.12148   0.81072   0.00000  Uiso   1.00
C671   C     0.97193   0.07044   0.78694   0.00000  Uiso   1.00
C672   C     0.52807   0.26289   0.87972   0.00000  Uiso   1.00
Cu673  Cu    0.75501   0.17246   0.89479   0.00000  Uiso   1.00
Cu674  Cu    0.74500   0.16087   0.77187   0.00000  Uiso   1.00
H675   H     0.89405   0.24636   0.87447   0.00000  Uiso   1.00
H676   H     0.60595   0.08697   0.79220   0.00000  Uiso   1.00
H677   H     0.53505   0.03833   0.77127   0.00000  Uiso   1.00
H678   H     0.96495   0.29500   0.89540   0.00000  Uiso   1.00
N679   N     0.73745   0.15214   0.67951   0.00000  Uiso   1.00
N680   N     0.76256   0.18119   0.98716   0.00000  Uiso   1.00
O681   O     0.75326   0.09538   0.87326   0.00000  Uiso   1.00
O682   O     0.74675   0.23796   0.79341   0.00000  Uiso   1.00
O683   O     0.74480   0.08559   0.76945   0.00000  Uiso   1.00
O684   O     0.75520   0.24774   0.89721   0.00000  Uiso   1.00
O685   O     0.68936   0.17155   0.88524   0.00000  Uiso   1.00
O686   O     0.81065   0.16179   0.78143   0.00000  Uiso   1.00
O687   O     0.68090   0.16176   0.78143   0.00000  Uiso   1.00
O688   O     0.81910   0.17157   0.88523   0.00000  Uiso   1.00
C689   C     0.87146   0.07104   0.78027   0.00000  Uiso   1.00
N690   N     0.84659   0.03461   0.75919   0.00000  Uiso   1.00
C691   C     0.62854   0.26230   0.88640   0.00000  Uiso   1.00
N692   N     0.65341   0.29872   0.90747   0.00000  Uiso   1.00
C693   C     0.94969   0.01806   0.76507   0.00000  Uiso   1.00
N694   N     0.93248   0.30916   0.74759   0.00000  Uiso   1.00
C695   C     0.55031   0.31527   0.90160   0.00000  Uiso   1.00
N696   N     0.56753   0.02417   0.91908   0.00000  Uiso   1.00
Br697  Br    0.69365   0.31034   0.74830   0.00000  Uiso   1.00
Br698  Br    0.80635   0.02300   0.91837   0.00000  Uiso   1.00
Br699  Br    0.69293   0.10127   0.96781   0.00000  Uiso   1.00
Br700  Br    0.80707   0.23207   0.69886   0.00000  Uiso   1.00
C701   C     0.24786   0.40014   0.81826   0.00000  Uiso   1.00
C702   C     0.25214   0.59986   0.84840   0.00000  Uiso   1.00
C703   C     0.01843   0.40709   0.78797   0.00000  Uiso   1.00
C704   C     0.48157   0.59291   0.87870   0.00000  Uiso   1.00
C705   C     0.24018   0.34475   0.81209   0.00000  Uiso   1.00
C706   C     0.25982   0.65525   0.85457   0.00000  Uiso   1.00
C707   C     0.16476   0.50047   0.83387   0.00000  Uiso   1.00
C708   C     0.33524   0.49953   0.83280   0.00000  Uiso   1.00
C709   C     0.40978   0.54401   0.85606   0.00000  Uiso   1.00
C710   C     0.09022   0.45599   0.81061   0.00000  Uiso   1.00
C711   C     0.38323   0.49764   0.83151   0.00000  Uiso   1.00
C712   C     0.11677   0.50236   0.83516   0.00000  Uiso   1.00
C713   C     0.40206   0.45054   0.80676   0.00000  Uiso   1.00
C714   C     0.09794   0.54946   0.85990   0.00000  Uiso   1.00
C715   C     0.44961   0.45006   0.80829   0.00000  Uiso   1.00
C716   C     0.05039   0.54994   0.85838   0.00000  Uiso   1.00
C717   C     0.47638   0.49874   0.83266   0.00000  Uiso   1.00
C718   C     0.02362   0.50126   0.83401   0.00000  Uiso   1.00
C719   C     0.45595   0.54519   0.85595   0.00000  Uiso   1.00
C720   C     0.04405   0.45481   0.81072   0.00000  Uiso   1.00
C721   C     0.47193   0.40378   0.78694   0.00000  Uiso   1.00
C722   C     0.02807   0.59622   0.87972   0.00000  Uiso   1.00
Cu723  Cu    0.25501   0.50579   0.89479   0.00000  Uiso   1.00
Cu724  Cu    0.24500   0.49421   0.77187   0.00000  Uiso   1.00
H725   H     0.39405   0.57969   0.87447   0.00000  Uiso   1.00
H726   H     0.10595   0.42031   0.79220   0.00000  Uiso   1.00
H727   H     0.03505   0.37167   0.77127   0.00000  Uiso   1.00
H728   H     0.46495   0.62833   0.89540   0.00000  Uiso   1.00
N729   N     0.23745   0.48547   0.67951   0.00000  Uiso   1.00
N730   N     0.26256   0.51453   0.98716   0.00000  Uiso   1.00
O731   O     0.25326   0.42871   0.87326   0.00000  Uiso   1.00
O732   O     0.24675   0.57129   0.79341   0.00000  Uiso   1.00
O733   O     0.24480   0.41892   0.76945   0.00000  Uiso   1.00
O734   O     0.25520   0.58108   0.89721   0.00000  Uiso   1.00
O735   O     0.18936   0.50488   0.88524   0.00000  Uiso   1.00
O736   O     0.31065   0.49512   0.78143   0.00000  Uiso   1.00
O737   O     0.18090   0.49510   0.78143   0.00000  Uiso   1.00
O738   O     0.31910   0.50490   0.88523   0.00000  Uiso   1.00
C739   C     0.37146   0.40437   0.78027   0.00000  Uiso   1.00
N740   N     0.34659   0.36795   0.75919   0.00000  Uiso   1.00
C741   C     0.12854   0.59563   0.88640   0.00000  Uiso   1.00
N742   N     0.15341   0.63205   0.90747   0.00000  Uiso   1.00
C743   C     0.44969   0.35139   0.76507   0.00000  Uiso   1.00
N744   N     0.43248   0.64250   0.74759   0.00000  Uiso   1.00
C745   C     0.05031   0.64861   0.90160   0.00000  Uiso   1.00
N746   N     0.06753   0.35750   0.91908   0.00000  Uiso   1.00
Br747  Br    0.19365   0.64367   0.74830   0.00000  Uiso   1.00
Br748  Br    0.30635   0.35633   0.91837   0.00000  Uiso   1.00
Br749  Br    0.19293   0.43460   0.96781   0.00000  Uiso   1.00
Br750  Br    0.30707   0.56540   0.69886   0.00000  Uiso   1.00
C751   C     0.74786   0.40014   0.81826   0.00000  Uiso   1.00
C752   C     0.75214   0.59986   0.84840   0.00000  Uiso   1.00
C753   C     0.51843   0.40709   0.78797   0.00000  Uiso   1.00
C754   C     0.98157   0.59291   0.87870   0.00000  Uiso   1.00
C755   C     0.74018   0.34475   0.81209   0.00000  Uiso   1.00
C756   C     0.75982   0.65525   0.85457   0.00000  Uiso   1.00
C757   C     0.66476   0.50047   0.83387   0.00000  Uiso   1.00
C758   C     0.83524   0.49953   0.83280   0.00000  Uiso   1.00
C759   C     0.90978   0.54401   0.85606   0.00000  Uiso   1.00
C760   C     0.59022   0.45599   0.81061   0.00000  Uiso   1.00
C761   C     0.88323   0.49764   0.83151   0.00000  Uiso   1.00
C762   C     0.61677   0.50236   0.83516   0.00000  Uiso   1.00
C763   C     0.90206   0.45054   0.80676   0.00000  Uiso   1.00
C764   C     0.59794   0.54946   0.85990   0.00000  Uiso   1.00
C765   C     0.94961   0.45006   0.80829   0.00000  Uiso   1.00
C766   C     0.55039   0.54994   0.85838   0.00000  Uiso   1.00
C767   C     0.97638   0.49874   0.83266   0.00000  Uiso   1.00
C768   C     0.52362   0.50126   0.83401   0.00000  Uiso   1.00
C769   C     0.95595   0.54519   0.85595   0.00000  Uiso   1.00
C770   C     0.54405   0.45481   0.81072   0.00000  Uiso   1.00
C771   C     0.97193   0.40378   0.78694   0.00000  Uiso   1.00
C772   C     0.52807   0.59622   0.87972   0.00000  Uiso   1.00
Cu773  Cu    0.75501   0.50579   0.89479   0.00000  Uiso   1.00
Cu774  Cu    0.74500   0.49421   0.77187   0.00000  Uiso   1.00
H775   H     0.89405   0.57969   0.87447   0.00000  Uiso   1.00
H776   H     0.60595   0.42031   0.79220   0.00000  Uiso   1.00
H777   H     0.53505   0.37167   0.77127   0.00000  Uiso   1.00
H778   H     0.96495   0.62833   0.89540   0.00000  Uiso   1.00
N779   N     0.73745   0.48547   0.67951   0.00000  Uiso   1.00
N780   N     0.76256   0.51453   0.98716   0.00000  Uiso   1.00
O781   O     0.75326   0.42871   0.87326   0.00000  Uiso   1.00
O782   O     0.74675   0.57129   0.79341   0.00000  Uiso   1.00
O783   O     0.74480   0.41892   0.76945   0.00000  Uiso   1.00
O784   O     0.75520   0.58108   0.89721   0.00000  Uiso   1.00
O785   O     0.68936   0.50488   0.88524   0.00000  Uiso   1.00
O786   O     0.81065   0.49512   0.78143   0.00000  Uiso   1.00
O787   O     0.68090   0.49510   0.78143   0.00000  Uiso   1.00
O788   O     0.81910   0.50490   0.88523   0.00000  Uiso   1.00
C789   C     0.87146   0.40437   0.78027   0.00000  Uiso   1.00
N790   N     0.84659   0.36795   0.75919   0.00000  Uiso   1.00
C791   C     0.62854   0.59563   0.88640   0.00000  Uiso   1.00
N792   N     0.65341   0.63205   0.90747   0.00000  Uiso   1.00
C793   C     0.94969   0.35139   0.76507   0.00000  Uiso   1.00
N794   N     0.93248   0.64250   0.74759   0.00000  Uiso   1.00
C795   C     0.55031   0.64861   0.90160   0.00000  Uiso   1.00
N796   N     0.56753   0.35750   0.91908   0.00000  Uiso   1.00
Br797  Br    0.69365   0.64367   0.74830   0.00000  Uiso   1.00
Br798  Br    0.80635   0.35633   0.91837   0.00000  Uiso   1.00
Br799  Br    0.69293   0.43460   0.96781   0.00000  Uiso   1.00
Br800  Br    0.80707   0.56540   0.69886   0.00000  Uiso   1.00
C801   C     0.24786   0.73347   0.81826   0.00000  Uiso   1.00
C802   C     0.25214   0.93319   0.84840   0.00000  Uiso   1.00
C803   C     0.01843   0.74043   0.78797   0.00000  Uiso   1.00
C804   C     0.48157   0.92624   0.87870   0.00000  Uiso   1.00
C805   C     0.24018   0.67809   0.81209   0.00000  Uiso   1.00
C806   C     0.25982   0.98858   0.85457   0.00000  Uiso   1.00
C807   C     0.16476   0.83380   0.83387   0.00000  Uiso   1.00
C808   C     0.33524   0.83287   0.83280   0.00000  Uiso   1.00
C809   C     0.40978   0.87734   0.85606   0.00000  Uiso   1.00
C810   C     0.09022   0.78933   0.81061   0.00000  Uiso   1.00
C811   C     0.38323   0.83097   0.83151   0.00000  Uiso   1.00
C812   C     0.11677   0.83569   0.83516   0.00000  Uiso   1.00
C813   C     0.40206   0.78388   0.80676   0.00000  Uiso   1.00
C814   C     0.09794   0.88279   0.85990   0.00000  Uiso   1.00
C815   C     0.44961   0.78339   0.80829   0.00000  Uiso   1.00
C816   C     0.05039   0.88328   0.85838   0.00000  Uiso   1.00
C817   C     0.47638   0.83208   0.83266   0.00000  Uiso   1.00
C818   C     0.02362   0.83459   0.83401   0.00000  Uiso   1.00
C819   C     0.45595   0.87852   0.85595   0.00000  Uiso   1.00
C820   C     0.04405   0.78815   0.81072   0.00000  Uiso   1.00
C821   C     0.47193   0.73711   0.78694   0.00000  Uiso   1.00
C822   C     0.02807   0.92956   0.87972   0.00000  Uiso   1.00
Cu823  Cu    0.25501   0.83913   0.89479   0.00000  Uiso   1.00
Cu824  Cu    0.24500   0.82754   0.77187   0.00000  Uiso   1.00
H825   H     0.39405   0.91303   0.87447   0.00000  Uiso   1.00
H826   H     0.10595   0.75364   0.79220   0.00000  Uiso   1.00
H827   H     0.03505   0.70500   0.77127   0.00000  Uiso   1.00
H828   H     0.46495   0.96167   0.89540   0.00000  Uiso   1.00
N829   N     0.23745   0.81881   0.67951   0.00000  Uiso   1.00
N830   N     0.26256   0.84786   0.98716   0.00000  Uiso   1.00
O831   O     0.25326   0.76204   0.87326   0.00000  Uiso   1.00
O832   O     0.24675   0.90462   0.79341   0.00000  Uiso   1.00
O833   O     0.24480   0.75226   0.76945   0.00000  Uiso   1.00
O834   O     0.25520   0.91441   0.89721   0.00000  Uiso   1.00
O835   O     0.18936   0.83821   0.88524   0.00000  Uiso   1.00
O836   O     0.31065   0.82845   0.78143   0.00000  Uiso   1.00
O837   O     0.18090   0.82843   0.78143   0.00000  Uiso   1.00
O838   O     0.31910   0.83824   0.88523   0.00000  Uiso   1.00
C839   C     0.37146   0.73770   0.78027   0.00000  Uiso   1.00
N840   N     0.34659   0.70128   0.75919   0.00000  Uiso   1.00
C841   C     0.12854   0.92896   0.88640   0.00000  Uiso   1.00
N842   N     0.15341   0.96539   0.90747   0.00000  Uiso   1.00
C843   C     0.44969   0.68473   0.76507   0.00000  Uiso   1.00
N844   N     0.43248   0.97583   0.74759   0.00000  Uiso   1.00
C845   C     0.05031   0.98194   0.90160   0.00000  Uiso   1.00
N846   N     0.06753   0.69084   0.91908   0.00000  Uiso   1.00
Br847  Br    0.19365   0.97700   0.74830   0.00000  Uiso   1.00
Br848  Br    0.30635   0.68966   0.91837   0.00000  Uiso   1.00
Br849  Br    0.19293   0.76793   0.96781   0.00000  Uiso   1.00
Br850  Br    0.30707   0.89873   0.69886   0.00000  Uiso   1.00
C851   C     0.74786   0.73347   0.81826   0.00000  Uiso   1.00
C852   C     0.75214   0.93319   0.84840   0.00000  Uiso   1.00
C853   C     0.51843   0.74043   0.78797   0.00000  Uiso   1.00
C854   C     0.98157   0.92624   0.87870   0.00000  Uiso   1.00
C855   C     0.74018   0.67809   0.81209   0.00000  Uiso   1.00
C856   C     0.75982   0.98858   0.85457   0.00000  Uiso   1.00
C857   C     0.66476   0.83380   0.83387   0.00000  Uiso   1.00
C858   C     0.83524   0.83287   0.83280   0.00000  Uiso   1.00
C859   C     0.90978   0.87734   0.85606   0.00000  Uiso   1.00
C860   C     0.59022   0.78933   0.81061   0.00000  Uiso   1.00
C861   C     0.88323   0.83097   0.83151   0.00000  Uiso   1.00
C862   C     0.61677   0.83569   0.83516   0.00000  Uiso   1.00
C863   C     0.90206   0.78388   0.80676   0.00000  Uiso   1.00
C864   C     0.59794   0.88279   0.85990   0.00000  Uiso   1.00
C865   C     0.94961   0.78339   0.80829   0.00000  Uiso   1.00
C866   C     0.55039   0.88328   0.85838   0.00000  Uiso   1.00
C867   C     0.97638   0.83208   0.83266   0.00000  Uiso   1.00
C868   C     0.52362   0.83459   0.83401   0.00000  Uiso   1.00
C869   C     0.95595   0.87852   0.85595   0.00000  Uiso   1.00
C870   C     0.54405   0.78815   0.81072   0.00000  Uiso   1.00
C871   C     0.97193   0.73711   0.78694   0.00000  Uiso   1.00
C872   C     0.52807   0.92956   0.87972   0.00000  Uiso   1.00
Cu873  Cu    0.75501   0.83913   0.89479   0.00000  Uiso   1.00
Cu874  Cu    0.74500   0.82754   0.77187   0.00000  Uiso   1.00
H875   H     0.89405   0.91303   0.87447   0.00000  Uiso   1.00
H876   H     0.60595   0.75364   0.79220   0.00000  Uiso   1.00
H877   H     0.53505   0.70500   0.77127   0.00000  Uiso   1.00
H878   H     0.96495   0.96167   0.89540   0.00000  Uiso   1.00
N879   N     0.73745   0.81881   0.67951   0.00000  Uiso   1.00
N880   N     0.76256   0.84786   0.98716   0.00000  Uiso   1.00
O881   O     0.75326   0.76204   0.87326   0.00000  Uiso   1.00
O882   O     0.74675   0.90462   0.79341   0.00000  Uiso   1.00
O883   O     0.74480   0.75226   0.76945   0.00000  Uiso   1.00
O884   O     0.75520   0.91441   0.89721   0.00000  Uiso   1.00
O885   O     0.68936   0.83821   0.88524   0.00000  Uiso   1.00
O886   O     0.81065   0.82845   0.78143   0.00000  Uiso   1.00
O887   O     0.68090   0.82843   0.78143   0.00000  Uiso   1.00
O888   O     0.81910   0.83824   0.88523   0.00000  Uiso   1.00
C889   C     0.87146   0.73770   0.78027   0.00000  Uiso   1.00
N890   N     0.84659   0.70128   0.75919   0.00000  Uiso   1.00
C891   C     0.62854   0.92896   0.88640   0.00000  Uiso   1.00
N892   N     0.65341   0.96539   0.90747   0.00000  Uiso   1.00
C893   C     0.94969   0.68473   0.76507   0.00000  Uiso   1.00
N894   N     0.93248   0.97583   0.74759   0.00000  Uiso   1.00
C895   C     0.55031   0.98194   0.90160   0.00000  Uiso   1.00
N896   N     0.56753   0.69084   0.91908   0.00000  Uiso   1.00
Br897  Br    0.69365   0.97700   0.74830   0.00000  Uiso   1.00
Br898  Br    0.80635   0.68966   0.91837   0.00000  Uiso   1.00
Br899  Br    0.69293   0.76793   0.96781   0.00000  Uiso   1.00
Br900  Br    0.80707   0.89873   0.69886   0.00000  Uiso   1.00
loop_
_geom_bond_atom_site_label_1
_geom_bond_atom_site_label_2
_geom_bond_distance
_geom_bond_site_symmetry_2
_ccdc_geom_bond_type
C1     O33     1.297   .     A
C1     C5      1.423   .     S
C1     O31     1.290   .     A
C2     O34     1.297   .     A
C2     O32     1.290   .     A
C2     C6      1.423   .     S
C3     H27     1.087   .     S
C3     C20     1.392   .     A
C3     C71     1.390   1_455 S
C4     H28     1.087   .     S
C4     C19     1.392   .     A
C4     C72     1.390   .     S
C5     C206    1.348   1_545 S
C5     Br247   1.940   1_545 S
C6     C105    1.348   .     S
C6     Br148   1.940   .     S
C7     O37     1.297   .     A
C7     C12     1.446   .     S
C7     O35     1.298   .     A
C8     C11     1.446   .     S
C8     O38     1.297   .     A
C8     O36     1.298   .     A
C9     C11     1.384   .     A
C9     H25     1.086   .     S
C9     C19     1.384   .     A
C10    H26     1.086   .     S
C10    C12     1.384   .     A
C10    C20     1.384   .     A
C11    C13     1.407   .     A
C12    C14     1.407   .     A
C13    C15     1.425   .     A
C13    C39     1.451   .     S
C14    C41     1.451   .     S
C14    C16     1.425   .     A
C15    C21     1.428   .     A
C15    C17     1.433   .     A
C16    C18     1.433   .     A
C16    C22     1.428   .     A
C17    C19     1.410   .     A
C17    C68     1.412   .     S
C18    C20     1.410   .     A
C18    C67     1.412   1_455 S
C21    C43     1.446   .     S
C21    C53     1.390   .     S
C22    C45     1.446   .     S
C22    C54     1.390   1_455 S
Cu23   O38     1.953   .     S
Cu23   Cu24    2.708   .     S
Cu23   O34     1.952   .     S
Cu23   O35     1.961   .     S
Cu23   O31     1.959   .     S
Cu23   N30     2.035   .     S
Cu24   O32     1.959   .     S
Cu24   O33     1.952   .     S
Cu24   O37     1.953   .     S
Cu24   O36     1.961   .     S
Cu24   N29     2.035   .     S
N29    N630    1.292   1_554 S
N29    Br649   1.881   1_554 S
N30    N329    1.292   .     S
N30    Br350   1.881   .     S
C39    N40     1.157   .     T
C41    N42     1.157   .     T
C43    N244    1.158   1_545 S
N44    C143    1.158   .     S
C45    N146    1.158   .     S
N46    C245    1.158   1_545 S
Br47   C105    1.940   .     S
Br48   C206    1.940   1_545 S
Br49   N329    1.881   .     S
Br50   N630    1.881   1_554 S
C51    O83     1.297   .     A
C51    C55     1.423   .     S
C51    O81     1.290   .     A
C52    O84     1.297   .     A
C52    O82     1.290   .     A
C52    C56     1.423   .     S
C53    H77     1.087   .     S
C53    C70     1.392   .     A
C54    H78     1.087   .     S
C54    C69     1.392   .     A
C54    C22     1.390   1_655 S
C55    C256    1.348   1_545 S
C55    Br297   1.940   1_545 S
C56    C155    1.348   .     S
C56    Br198   1.940   .     S
C57    O87     1.297   .     A
C57    C62     1.446   .     S
C57    O85     1.298   .     A
C58    C61     1.446   .     S
C58    O88     1.297   .     A
C58    O86     1.298   .     A
C59    C61     1.384   .     A
C59    H75     1.086   .     S
C59    C69     1.384   .     A
C60    H76     1.086   .     S
C60    C62     1.384   .     A
C60    C70     1.384   .     A
C61    C63     1.407   .     A
C62    C64     1.407   .     A
C63    C65     1.425   .     A
C63    C89     1.451   .     S
C64    C91     1.451   .     S
C64    C66     1.425   .     A
C65    C71     1.428   .     A
C65    C67     1.433   .     A
C66    C68     1.433   .     A
C66    C72     1.428   .     A
C67    C69     1.410   .     A
C67    C18     1.412   1_655 S
C68    C70     1.410   .     A
C71    C93     1.446   .     S
C71    C3      1.390   1_655 S
C72    C95     1.446   .     S
Cu73   O88     1.953   .     S
Cu73   Cu74    2.708   .     S
Cu73   O84     1.952   .     S
Cu73   O85     1.961   .     S
Cu73   O81     1.959   .     S
Cu73   N80     2.035   .     S
Cu74   O82     1.959   .     S
Cu74   O83     1.952   .     S
Cu74   O87     1.953   .     S
Cu74   O86     1.961   .     S
Cu74   N79     2.035   .     S
N79    N680    1.292   1_554 S
N79    Br699   1.881   1_554 S
N80    N379    1.292   .     S
N80    Br400   1.881   .     S
C89    N90     1.157   .     T
C91    N92     1.157   .     T
C93    N294    1.158   1_545 S
N94    C193    1.158   .     S
C95    N196    1.158   .     S
N96    C295    1.158   1_545 S
Br97   C155    1.940   .     S
Br98   C256    1.940   1_545 S
Br99   N379    1.881   .     S
Br100  N680    1.881   1_554 S
C101   O133    1.297   .     A
C101   C105    1.423   .     S
C101   O131    1.290   .     A
C102   O134    1.297   .     A
C102   O132    1.290   .     A
C102   C106    1.423   .     S
C103   H127    1.087   .     S
C103   C120    1.392   .     A
C103   C171    1.390   1_455 S
C104   H128    1.087   .     S
C104   C119    1.392   .     A
C104   C172    1.390   .     S
C106   C205    1.348   .     S
C106   Br248   1.940   .     S
C107   O137    1.297   .     A
C107   C112    1.446   .     S
C107   O135    1.298   .     A
C108   C111    1.446   .     S
C108   O138    1.297   .     A
C108   O136    1.298   .     A
C109   C111    1.384   .     A
C109   H125    1.086   .     S
C109   C119    1.384   .     A
C110   H126    1.086   .     S
C110   C112    1.384   .     A
C110   C120    1.384   .     A
C111   C113    1.407   .     A
C112   C114    1.407   .     A
C113   C115    1.425   .     A
C113   C139    1.451   .     S
C114   C141    1.451   .     S
C114   C116    1.425   .     A
C115   C121    1.428   .     A
C115   C117    1.433   .     A
C116   C118    1.433   .     A
C116   C122    1.428   .     A
C117   C119    1.410   .     A
C117   C168    1.412   .     S
C118   C120    1.410   .     A
C118   C167    1.412   1_455 S
C121   C143    1.446   .     S
C121   C153    1.390   .     S
C122   C145    1.446   .     S
C122   C154    1.390   1_455 S
Cu123  O138    1.953   .     S
Cu123  Cu124   2.708   .     S
Cu123  O134    1.952   .     S
Cu123  O135    1.961   .     S
Cu123  O131    1.959   .     S
Cu123  N130    2.035   .     S
Cu124  O132    1.959   .     S
Cu124  O133    1.952   .     S
Cu124  O137    1.953   .     S
Cu124  O136    1.961   .     S
Cu124  N129    2.035   .     S
N129   N730    1.292   1_554 S
N129   Br749   1.881   1_554 S
N130   N429    1.292   .     S
N130   Br450   1.881   .     S
C139   N140    1.157   .     T
C141   N142    1.157   .     T
N144   C243    1.158   .     S
C145   N246    1.158   .     S
Br147  C205    1.940   .     S
Br149  N429    1.881   .     S
Br150  N730    1.881   1_554 S
C151   O183    1.297   .     A
C151   C155    1.423   .     S
C151   O181    1.290   .     A
C152   O184    1.297   .     A
C152   O182    1.290   .     A
C152   C156    1.423   .     S
C153   H177    1.087   .     S
C153   C170    1.392   .     A
C154   H178    1.087   .     S
C154   C169    1.392   .     A
C154   C122    1.390   1_655 S
C156   C255    1.348   .     S
C156   Br298   1.940   .     S
C157   O187    1.297   .     A
C157   C162    1.446   .     S
C157   O185    1.298   .     A
C158   C161    1.446   .     S
C158   O188    1.297   .     A
C158   O186    1.298   .     A
C159   C161    1.384   .     A
C159   H175    1.086   .     S
C159   C169    1.384   .     A
C160   H176    1.086   .     S
C160   C162    1.384   .     A
C160   C170    1.384   .     A
C161   C163    1.407   .     A
C162   C164    1.407   .     A
C163   C165    1.425   .     A
C163   C189    1.451   .     S
C164   C191    1.451   .     S
C164   C166    1.425   .     A
C165   C171    1.428   .     A
C165   C167    1.433   .     A
C166   C168    1.433   .     A
C166   C172    1.428   .     A
C167   C169    1.410   .     A
C167   C118    1.412   1_655 S
C168   C170    1.410   .     A
C171   C193    1.446   .     S
C171   C103    1.390   1_655 S
C172   C195    1.446   .     S
Cu173  O188    1.953   .     S
Cu173  Cu174   2.708   .     S
Cu173  O184    1.952   .     S
Cu173  O185    1.961   .     S
Cu173  O181    1.959   .     S
Cu173  N180    2.035   .     S
Cu174  O182    1.959   .     S
Cu174  O183    1.952   .     S
Cu174  O187    1.953   .     S
Cu174  O186    1.961   .     S
Cu174  N179    2.035   .     S
N179   N780    1.292   1_554 S
N179   Br799   1.881   1_554 S
N180   N479    1.292   .     S
N180   Br500   1.881   .     S
C189   N190    1.157   .     T
C191   N192    1.157   .     T
N194   C293    1.158   .     S
C195   N296    1.158   .     S
Br197  C255    1.940   .     S
Br199  N479    1.881   .     S
Br200  N780    1.881   1_554 S
C201   O233    1.297   .     A
C201   C205    1.423   .     S
C201   O231    1.290   .     A
C202   O234    1.297   .     A
C202   O232    1.290   .     A
C202   C206    1.423   .     S
C203   H227    1.087   .     S
C203   C220    1.392   .     A
C203   C271    1.390   1_455 S
C204   H228    1.087   .     S
C204   C219    1.392   .     A
C204   C272    1.390   .     S
C206   C5      1.348   1_565 S
C206   Br48    1.940   1_565 S
C207   O237    1.297   .     A
C207   C212    1.446   .     S
C207   O235    1.298   .     A
C208   C211    1.446   .     S
C208   O238    1.297   .     A
C208   O236    1.298   .     A
C209   C211    1.384   .     A
C209   H225    1.086   .     S
C209   C219    1.384   .     A
C210   H226    1.086   .     S
C210   C212    1.384   .     A
C210   C220    1.384   .     A
C211   C213    1.407   .     A
C212   C214    1.407   .     A
C213   C215    1.425   .     A
C213   C239    1.451   .     S
C214   C241    1.451   .     S
C214   C216    1.425   .     A
C215   C221    1.428   .     A
C215   C217    1.433   .     A
C216   C218    1.433   .     A
C216   C222    1.428   .     A
C217   C219    1.410   .     A
C217   C268    1.412   .     S
C218   C220    1.410   .     A
C218   C267    1.412   1_455 S
C221   C243    1.446   .     S
C221   C253    1.390   .     S
C222   C245    1.446   .     S
C222   C254    1.390   1_455 S
Cu223  O238    1.953   .     S
Cu223  Cu224   2.708   .     S
Cu223  O234    1.952   .     S
Cu223  O235    1.961   .     S
Cu223  O231    1.959   .     S
Cu223  N230    2.035   .     S
Cu224  O232    1.959   .     S
Cu224  O233    1.952   .     S
Cu224  O237    1.953   .     S
Cu224  O236    1.961   .     S
Cu224  N229    2.035   .     S
N229   N830    1.292   1_554 S
N229   Br849   1.881   1_554 S
N230   N529    1.292   .     S
N230   Br550   1.881   .     S
C239   N240    1.157   .     T
C241   N242    1.157   .     T
N244   C43     1.158   1_565 S
C245   N46     1.158   1_565 S
Br247  C5      1.940   1_565 S
Br249  N529    1.881   .     S
Br250  N830    1.881   1_554 S
C251   O283    1.297   .     A
C251   C255    1.423   .     S
C251   O281    1.290   .     A
C252   O284    1.297   .     A
C252   O282    1.290   .     A
C252   C256    1.423   .     S
C253   H277    1.087   .     S
C253   C270    1.392   .     A
C254   H278    1.087   .     S
C254   C269    1.392   .     A
C254   C222    1.390   1_655 S
C256   C55     1.348   1_565 S
C256   Br98    1.940   1_565 S
C257   O287    1.297   .     A
C257   C262    1.446   .     S
C257   O285    1.298   .     A
C258   C261    1.446   .     S
C258   O288    1.297   .     A
C258   O286    1.298   .     A
C259   C261    1.384   .     A
C259   H275    1.086   .     S
C259   C269    1.384   .     A
C260   H276    1.086   .     S
C260   C262    1.384   .     A
C260   C270    1.384   .     A
C261   C263    1.407   .     A
C262   C264    1.407   .     A
C263   C265    1.425   .     A
C263   C289    1.451   .     S
C264   C291    1.451   .     S
C264   C266    1.425   .     A
C265   C271    1.428   .     A
C265   C267    1.433   .     A
C266   C268    1.433   .     A
C266   C272    1.428   .     A
C267   C269    1.410   .     A
C267   C218    1.412   1_655 S
C268   C270    1.410   .     A
C271   C293    1.446   .     S
C271   C203    1.390   1_655 S
C272   C295    1.446   .     S
Cu273  O288    1.953   .     S
Cu273  Cu274   2.708   .     S
Cu273  O284    1.952   .     S
Cu273  O285    1.961   .     S
Cu273  O281    1.959   .     S
Cu273  N280    2.035   .     S
Cu274  O282    1.959   .     S
Cu274  O283    1.952   .     S
Cu274  O287    1.953   .     S
Cu274  O286    1.961   .     S
Cu274  N279    2.035   .     S
N279   N880    1.292   1_554 S
N279   Br899   1.881   1_554 S
N280   N579    1.292   .     S
N280   Br600   1.881   .     S
C289   N290    1.157   .     T
C291   N292    1.157   .     T
N294   C93     1.158   1_565 S
C295   N96     1.158   1_565 S
Br297  C55     1.940   1_565 S
Br299  N579    1.881   .     S
Br300  N880    1.881   1_554 S
C301   O333    1.297   .     A
C301   C305    1.423   .     S
C301   O331    1.290   .     A
C302   O334    1.297   .     A
C302   O332    1.290   .     A
C302   C306    1.423   .     S
C303   H327    1.087   .     S
C303   C320    1.392   .     A
C303   C371    1.390   1_455 S
C304   H328    1.087   .     S
C304   C319    1.392   .     A
C304   C372    1.390   .     S
C305   C506    1.348   1_545 S
C305   Br547   1.940   1_545 S
C306   C405    1.348   .     S
C306   Br448   1.940   .     S
C307   O337    1.297   .     A
C307   C312    1.446   .     S
C307   O335    1.298   .     A
C308   C311    1.446   .     S
C308   O338    1.297   .     A
C308   O336    1.298   .     A
C309   C311    1.384   .     A
C309   H325    1.086   .     S
C309   C319    1.384   .     A
C310   H326    1.086   .     S
C310   C312    1.384   .     A
C310   C320    1.384   .     A
C311   C313    1.407   .     A
C312   C314    1.407   .     A
C313   C315    1.425   .     A
C313   C339    1.451   .     S
C314   C341    1.451   .     S
C314   C316    1.425   .     A
C315   C321    1.428   .     A
C315   C317    1.433   .     A
C316   C318    1.433   .     A
C316   C322    1.428   .     A
C317   C319    1.410   .     A
C317   C368    1.412   .     S
C318   C320    1.410   .     A
C318   C367    1.412   1_455 S
C321   C343    1.446   .     S
C321   C353    1.390   .     S
C322   C345    1.446   .     S
C322   C354    1.390   1_455 S
Cu323  O338    1.953   .     S
Cu323  Cu324   2.708   .     S
Cu323  O334    1.952   .     S
Cu323  O335    1.961   .     S
Cu323  O331    1.959   .     S
Cu323  N330    2.035   .     S
Cu324  O332    1.959   .     S
Cu324  O333    1.952   .     S
Cu324  O337    1.953   .     S
Cu324  O336    1.961   .     S
Cu324  N329    2.035   .     S
N330   N629    1.292   .     S
N330   Br650   1.881   .     S
C339   N340    1.157   .     T
C341   N342    1.157   .     T
C343   N544    1.158   1_545 S
N344   C443    1.158   .     S
C345   N446    1.158   .     S
N346   C545    1.158   1_545 S
Br347  C405    1.940   .     S
Br348  C506    1.940   1_545 S
Br349  N629    1.881   .     S
C351   O383    1.297   .     A
C351   C355    1.423   .     S
C351   O381    1.290   .     A
C352   O384    1.297   .     A
C352   O382    1.290   .     A
C352   C356    1.423   .     S
C353   H377    1.087   .     S
C353   C370    1.392   .     A
C354   H378    1.087   .     S
C354   C369    1.392   .     A
C354   C322    1.390   1_655 S
C355   C556    1.348   1_545 S
C355   Br597   1.940   1_545 S
C356   C455    1.348   .     S
C356   Br498   1.940   .     S
C357   O387    1.297   .     A
C357   C362    1.446   .     S
C357   O385    1.298   .     A
C358   C361    1.446   .     S
C358   O388    1.297   .     A
C358   O386    1.298   .     A
C359   C361    1.384   .     A
C359   H375    1.086   .     S
C359   C369    1.384   .     A
C360   H376    1.086   .     S
C360   C362    1.384   .     A
C360   C370    1.384   .     A
C361   C363    1.407   .     A
C362   C364    1.407   .     A
C363   C365    1.425   .     A
C363   C389    1.451   .     S
C364   C391    1.451   .     S
C364   C366    1.425   .     A
C365   C371    1.428   .     A
C365   C367    1.433   .     A
C366   C368    1.433   .     A
C366   C372    1.428   .     A
C367   C369    1.410   .     A
C367   C318    1.412   1_655 S
C368   C370    1.410   .     A
C371   C393    1.446   .     S
C371   C303    1.390   1_655 S
C372   C395    1.446   .     S
Cu373  O388    1.953   .     S
Cu373  Cu374   2.708   .     S
Cu373  O384    1.952   .     S
Cu373  O385    1.961   .     S
Cu373  O381    1.959   .     S
Cu373  N380    2.035   .     S
Cu374  O382    1.959   .     S
Cu374  O383    1.952   .     S
Cu374  O387    1.953   .     S
Cu374  O386    1.961   .     S
Cu374  N379    2.035   .     S
N380   N679    1.292   .     S
N380   Br700   1.881   .     S
C389   N390    1.157   .     T
C391   N392    1.157   .     T
C393   N594    1.158   1_545 S
N394   C493    1.158   .     S
C395   N496    1.158   .     S
N396   C595    1.158   1_545 S
Br397  C455    1.940   .     S
Br398  C556    1.940   1_545 S
Br399  N679    1.881   .     S
C401   O433    1.297   .     A
C401   C405    1.423   .     S
C401   O431    1.290   .     A
C402   O434    1.297   .     A
C402   O432    1.290   .     A
C402   C406    1.423   .     S
C403   H427    1.087   .     S
C403   C420    1.392   .     A
C403   C471    1.390   1_455 S
C404   H428    1.087   .     S
C404   C419    1.392   .     A
C404   C472    1.390   .     S
C406   C505    1.348   .     S
C406   Br548   1.940   .     S
C407   O437    1.297   .     A
C407   C412    1.446   .     S
C407   O435    1.298   .     A
C408   C411    1.446   .     S
C408   O438    1.297   .     A
C408   O436    1.298   .     A
C409   C411    1.384   .     A
C409   H425    1.086   .     S
C409   C419    1.384   .     A
C410   H426    1.086   .     S
C410   C412    1.384   .     A
C410   C420    1.384   .     A
C411   C413    1.407   .     A
C412   C414    1.407   .     A
C413   C415    1.425   .     A
C413   C439    1.451   .     S
C414   C441    1.451   .     S
C414   C416    1.425   .     A
C415   C421    1.428   .     A
C415   C417    1.433   .     A
C416   C418    1.433   .     A
C416   C422    1.428   .     A
C417   C419    1.410   .     A
C417   C468    1.412   .     S
C418   C420    1.410   .     A
C418   C467    1.412   1_455 S
C421   C443    1.446   .     S
C421   C453    1.390   .     S
C422   C445    1.446   .     S
C422   C454    1.390   1_455 S
Cu423  O438    1.953   .     S
Cu423  Cu424   2.708   .     S
Cu423  O434    1.952   .     S
Cu423  O435    1.961   .     S
Cu423  O431    1.959   .     S
Cu423  N430    2.035   .     S
Cu424  O432    1.959   .     S
Cu424  O433    1.952   .     S
Cu424  O437    1.953   .     S
Cu424  O436    1.961   .     S
Cu424  N429    2.035   .     S
N430   N729    1.292   .     S
N430   Br750   1.881   .     S
C439   N440    1.157   .     T
C441   N442    1.157   .     T
N444   C543    1.158   .     S
C445   N546    1.158   .     S
Br447  C505    1.940   .     S
Br449  N729    1.881   .     S
C451   O483    1.297   .     A
C451   C455    1.423   .     S
C451   O481    1.290   .     A
C452   O484    1.297   .     A
C452   O482    1.290   .     A
C452   C456    1.423   .     S
C453   H477    1.087   .     S
C453   C470    1.392   .     A
C454   H478    1.087   .     S
C454   C469    1.392   .     A
C454   C422    1.390   1_655 S
C456   C555    1.348   .     S
C456   Br598   1.940   .     S
C457   O487    1.297   .     A
C457   C462    1.446   .     S
C457   O485    1.298   .     A
C458   C461    1.446   .     S
C458   O488    1.297   .     A
C458   O486    1.298   .     A
C459   C461    1.384   .     A
C459   H475    1.086   .     S
C459   C469    1.384   .     A
C460   H476    1.086   .     S
C460   C462    1.384   .     A
C460   C470    1.384   .     A
C461   C463    1.407   .     A
C462   C464    1.407   .     A
C463   C465    1.425   .     A
C463   C489    1.451   .     S
C464   C491    1.451   .     S
C464   C466    1.425   .     A
C465   C471    1.428   .     A
C465   C467    1.433   .     A
C466   C468    1.433   .     A
C466   C472    1.428   .     A
C467   C469    1.410   .     A
C467   C418    1.412   1_655 S
C468   C470    1.410   .     A
C471   C493    1.446   .     S
C471   C403    1.390   1_655 S
C472   C495    1.446   .     S
Cu473  O488    1.953   .     S
Cu473  Cu474   2.708   .     S
Cu473  O484    1.952   .     S
Cu473  O485    1.961   .     S
Cu473  O481    1.959   .     S
Cu473  N480    2.035   .     S
Cu474  O482    1.959   .     S
Cu474  O483    1.952   .     S
Cu474  O487    1.953   .     S
Cu474  O486    1.961   .     S
Cu474  N479    2.035   .     S
N480   N779    1.292   .     S
N480   Br800   1.881   .     S
C489   N490    1.157   .     T
C491   N492    1.157   .     T
N494   C593    1.158   .     S
C495   N596    1.158   .     S
Br497  C555    1.940   .     S
Br499  N779    1.881   .     S
C501   O533    1.297   .     A
C501   C505    1.423   .     S
C501   O531    1.290   .     A
C502   O534    1.297   .     A
C502   O532    1.290   .     A
C502   C506    1.423   .     S
C503   H527    1.087   .     S
C503   C520    1.392   .     A
C503   C571    1.390   1_455 S
C504   H528    1.087   .     S
C504   C519    1.392   .     A
C504   C572    1.390   .     S
C506   C305    1.348   1_565 S
C506   Br348   1.940   1_565 S
C507   O537    1.297   .     A
C507   C512    1.446   .     S
C507   O535    1.298   .     A
C508   C511    1.446   .     S
C508   O538    1.297   .     A
C508   O536    1.298   .     A
C509   C511    1.384   .     A
C509   H525    1.086   .     S
C509   C519    1.384   .     A
C510   H526    1.086   .     S
C510   C512    1.384   .     A
C510   C520    1.384   .     A
C511   C513    1.407   .     A
C512   C514    1.407   .     A
C513   C515    1.425   .     A
C513   C539    1.451   .     S
C514   C541    1.451   .     S
C514   C516    1.425   .     A
C515   C521    1.428   .     A
C515   C517    1.433   .     A
C516   C518    1.433   .     A
C516   C522    1.428   .     A
C517   C519    1.410   .     A
C517   C568    1.412   .     S
C518   C520    1.410   .     A
C518   C567    1.412   1_455 S
C521   C543    1.446   .     S
C521   C553    1.390   .     S
C522   C545    1.446   .     S
C522   C554    1.390   1_455 S
Cu523  O538    1.953   .     S
Cu523  Cu524   2.708   .     S
Cu523  O534    1.952   .     S
Cu523  O535    1.961   .     S
Cu523  O531    1.959   .     S
Cu523  N530    2.035   .     S
Cu524  O532    1.959   .     S
Cu524  O533    1.952   .     S
Cu524  O537    1.953   .     S
Cu524  O536    1.961   .     S
Cu524  N529    2.035   .     S
N530   N829    1.292   .     S
N530   Br850   1.881   .     S
C539   N540    1.157   .     T
C541   N542    1.157   .     T
N544   C343    1.158   1_565 S
C545   N346    1.158   1_565 S
Br547  C305    1.940   1_565 S
Br549  N829    1.881   .     S
C551   O583    1.297   .     A
C551   C555    1.423   .     S
C551   O581    1.290   .     A
C552   O584    1.297   .     A
C552   O582    1.290   .     A
C552   C556    1.423   .     S
C553   H577    1.087   .     S
C553   C570    1.392   .     A
C554   H578    1.087   .     S
C554   C569    1.392   .     A
C554   C522    1.390   1_655 S
C556   C355    1.348   1_565 S
C556   Br398   1.940   1_565 S
C557   O587    1.297   .     A
C557   C562    1.446   .     S
C557   O585    1.298   .     A
C558   C561    1.446   .     S
C558   O588    1.297   .     A
C558   O586    1.298   .     A
C559   C561    1.384   .     A
C559   H575    1.086   .     S
C559   C569    1.384   .     A
C560   H576    1.086   .     S
C560   C562    1.384   .     A
C560   C570    1.384   .     A
C561   C563    1.407   .     A
C562   C564    1.407   .     A
C563   C565    1.425   .     A
C563   C589    1.451   .     S
C564   C591    1.451   .     S
C564   C566    1.425   .     A
C565   C571    1.428   .     A
C565   C567    1.433   .     A
C566   C568    1.433   .     A
C566   C572    1.428   .     A
C567   C569    1.410   .     A
C567   C518    1.412   1_655 S
C568   C570    1.410   .     A
C571   C593    1.446   .     S
C571   C503    1.390   1_655 S
C572   C595    1.446   .     S
Cu573  O588    1.953   .     S
Cu573  Cu574   2.708   .     S
Cu573  O584    1.952   .     S
Cu573  O585    1.961   .     S
Cu573  O581    1.959   .     S
Cu573  N580    2.035   .     S
Cu574  O582    1.959   .     S
Cu574  O583    1.952   .     S
Cu574  O587    1.953   .     S
Cu574  O586    1.961   .     S
Cu574  N579    2.035   .     S
N580   N879    1.292   .     S
N580   Br900   1.881   .     S
C589   N590    1.157   .     T
C591   N592    1.157   .     T
N594   C393    1.158   1_565 S
C595   N396    1.158   1_565 S
Br597  C355    1.940   1_565 S
Br599  N879    1.881   .     S
C601   O633    1.297   .     A
C601   C605    1.423   .     S
C601   O631    1.290   .     A
C602   O634    1.297   .     A
C602   O632    1.290   .     A
C602   C606    1.423   .     S
C603   H627    1.087   .     S
C603   C620    1.392   .     A
C603   C671    1.390   1_455 S
C604   H628    1.087   .     S
C604   C619    1.392   .     A
C604   C672    1.390   .     S
C605   C806    1.348   1_545 S
C605   Br847   1.940   1_545 S
C606   C705    1.348   .     S
C606   Br748   1.940   .     S
C607   O637    1.297   .     A
C607   C612    1.446   .     S
C607   O635    1.298   .     A
C608   C611    1.446   .     S
C608   O638    1.297   .     A
C608   O636    1.298   .     A
C609   C611    1.384   .     A
C609   H625    1.086   .     S
C609   C619    1.384   .     A
C610   H626    1.086   .     S
C610   C612    1.384   .     A
C610   C620    1.384   .     A
C611   C613    1.407   .     A
C612   C614    1.407   .     A
C613   C615    1.425   .     A
C613   C639    1.451   .     S
C614   C641    1.451   .     S
C614   C616    1.425   .     A
C615   C621    1.428   .     A
C615   C617    1.433   .     A
C616   C618    1.433   .     A
C616   C622    1.428   .     A
C617   C619    1.410   .     A
C617   C668    1.412   .     S
C618   C620    1.410   .     A
C618   C667    1.412   1_455 S
C621   C643    1.446   .     S
C621   C653    1.390   .     S
C622   C645    1.446   .     S
C622   C654    1.390   1_455 S
Cu623  O638    1.953   .     S
Cu623  Cu624   2.708   .     S
Cu623  O634    1.952   .     S
Cu623  O635    1.961   .     S
Cu623  O631    1.959   .     S
Cu623  N630    2.035   .     S
Cu624  O632    1.959   .     S
Cu624  O633    1.952   .     S
Cu624  O637    1.953   .     S
Cu624  O636    1.961   .     S
Cu624  N629    2.035   .     S
N630   N29     1.292   1_556 S
N630   Br50    1.881   1_556 S
C639   N640    1.157   .     T
C641   N642    1.157   .     T
C643   N844    1.158   1_545 S
N644   C743    1.158   .     S
C645   N746    1.158   .     S
N646   C845    1.158   1_545 S
Br647  C705    1.940   .     S
Br648  C806    1.940   1_545 S
Br649  N29     1.881   1_556 S
C651   O683    1.297   .     A
C651   C655    1.423   .     S
C651   O681    1.290   .     A
C652   O684    1.297   .     A
C652   O682    1.290   .     A
C652   C656    1.423   .     S
C653   H677    1.087   .     S
C653   C670    1.392   .     A
C654   H678    1.087   .     S
C654   C669    1.392   .     A
C654   C622    1.390   1_655 S
C655   C856    1.348   1_545 S
C655   Br897   1.940   1_545 S
C656   C755    1.348   .     S
C656   Br798   1.940   .     S
C657   O687    1.297   .     A
C657   C662    1.446   .     S
C657   O685    1.298   .     A
C658   C661    1.446   .     S
C658   O688    1.297   .     A
C658   O686    1.298   .     A
C659   C661    1.384   .     A
C659   H675    1.086   .     S
C659   C669    1.384   .     A
C660   H676    1.086   .     S
C660   C662    1.384   .     A
C660   C670    1.384   .     A
C661   C663    1.407   .     A
C662   C664    1.407   .     A
C663   C665    1.425   .     A
C663   C689    1.451   .     S
C664   C691    1.451   .     S
C664   C666    1.425   .     A
C665   C671    1.428   .     A
C665   C667    1.433   .     A
C666   C668    1.433   .     A
C666   C672    1.428   .     A
C667   C669    1.410   .     A
C667   C618    1.412   1_655 S
C668   C670    1.410   .     A
C671   C693    1.446   .     S
C671   C603    1.390   1_655 S
C672   C695    1.446   .     S
Cu673  O688    1.953   .     S
Cu673  Cu674   2.708   .     S
Cu673  O684    1.952   .     S
Cu673  O685    1.961   .     S
Cu673  O681    1.959   .     S
Cu673  N680    2.035   .     S
Cu674  O682    1.959   .     S
Cu674  O683    1.952   .     S
Cu674  O687    1.953   .     S
Cu674  O686    1.961   .     S
Cu674  N679    2.035   .     S
N680   N79     1.292   1_556 S
N680   Br100   1.881   1_556 S
C689   N690    1.157   .     T
C691   N692    1.157   .     T
C693   N894    1.158   1_545 S
N694   C793    1.158   .     S
C695   N796    1.158   .     S
N696   C895    1.158   1_545 S
Br697  C755    1.940   .     S
Br698  C856    1.940   1_545 S
Br699  N79     1.881   1_556 S
C701   O733    1.297   .     A
C701   C705    1.423   .     S
C701   O731    1.290   .     A
C702   O734    1.297   .     A
C702   O732    1.290   .     A
C702   C706    1.423   .     S
C703   H727    1.087   .     S
C703   C720    1.392   .     A
C703   C771    1.390   1_455 S
C704   H728    1.087   .     S
C704   C719    1.392   .     A
C704   C772    1.390   .     S
C706   C805    1.348   .     S
C706   Br848   1.940   .     S
C707   O737    1.297   .     A
C707   C712    1.446   .     S
C707   O735    1.298   .     A
C708   C711    1.446   .     S
C708   O738    1.297   .     A
C708   O736    1.298   .     A
C709   C711    1.384   .     A
C709   H725    1.086   .     S
C709   C719    1.384   .     A
C710   H726    1.086   .     S
C710   C712    1.384   .     A
C710   C720    1.384   .     A
C711   C713    1.407   .     A
C712   C714    1.407   .     A
C713   C715    1.425   .     A
C713   C739    1.451   .     S
C714   C741    1.451   .     S
C714   C716    1.425   .     A
C715   C721    1.428   .     A
C715   C717    1.433   .     A
C716   C718    1.433   .     A
C716   C722    1.428   .     A
C717   C719    1.410   .     A
C717   C768    1.412   .     S
C718   C720    1.410   .     A
C718   C767    1.412   1_455 S
C721   C743    1.446   .     S
C721   C753    1.390   .     S
C722   C745    1.446   .     S
C722   C754    1.390   1_455 S
Cu723  O738    1.953   .     S
Cu723  Cu724   2.708   .     S
Cu723  O734    1.952   .     S
Cu723  O735    1.961   .     S
Cu723  O731    1.959   .     S
Cu723  N730    2.035   .     S
Cu724  O732    1.959   .     S
Cu724  O733    1.952   .     S
Cu724  O737    1.953   .     S
Cu724  O736    1.961   .     S
Cu724  N729    2.035   .     S
N730   N129    1.292   1_556 S
N730   Br150   1.881   1_556 S
C739   N740    1.157   .     T
C741   N742    1.157   .     T
N744   C843    1.158   .     S
C745   N846    1.158   .     S
Br747  C805    1.940   .     S
Br749  N129    1.881   1_556 S
C751   O783    1.297   .     A
C751   C755    1.423   .     S
C751   O781    1.290   .     A
C752   O784    1.297   .     A
C752   O782    1.290   .     A
C752   C756    1.423   .     S
C753   H777    1.087   .     S
C753   C770    1.392   .     A
C754   H778    1.087   .     S
C754   C769    1.392   .     A
C754   C722    1.390   1_655 S
C756   C855    1.348   .     S
C756   Br898   1.940   .     S
C757   O787    1.297   .     A
C757   C762    1.446   .     S
C757   O785    1.298   .     A
C758   C761    1.446   .     S
C758   O788    1.297   .     A
C758   O786    1.298   .     A
C759   C761    1.384   .     A
C759   H775    1.086   .     S
C759   C769    1.384   .     A
C760   H776    1.086   .     S
C760   C762    1.384   .     A
C760   C770    1.384   .     A
C761   C763    1.407   .     A
C762   C764    1.407   .     A
C763   C765    1.425   .     A
C763   C789    1.451   .     S
C764   C791    1.451   .     S
C764   C766    1.425   .     A
C765   C771    1.428   .     A
C765   C767    1.433   .     A
C766   C768    1.433   .     A
C766   C772    1.428   .     A
C767   C769    1.410   .     A
C767   C718    1.412   1_655 S
C768   C770    1.410   .     A
C771   C793    1.446   .     S
C771   C703    1.390   1_655 S
C772   C795    1.446   .     S
Cu773  O788    1.953   .     S
Cu773  Cu774   2.708   .     S
Cu773  O784    1.952   .     S
Cu773  O785    1.961   .     S
Cu773  O781    1.959   .     S
Cu773  N780    2.035   .     S
Cu774  O782    1.959   .     S
Cu774  O783    1.952   .     S
Cu774  O787    1.953   .     S
Cu774  O786    1.961   .     S
Cu774  N779    2.035   .     S
N780   N179    1.292   1_556 S
N780   Br200   1.881   1_556 S
C789   N790    1.157   .     T
C791   N792    1.157   .     T
N794   C893    1.158   .     S
C795   N896    1.158   .     S
Br797  C855    1.940   .     S
Br799  N179    1.881   1_556 S
C801   O833    1.297   .     A
C801   C805    1.423   .     S
C801   O831    1.290   .     A
C802   O834    1.297   .     A
C802   O832    1.290   .     A
C802   C806    1.423   .     S
C803   H827    1.087   .     S
C803   C820    1.392   .     A
C803   C871    1.390   1_455 S
C804   H828    1.087   .     S
C804   C819    1.392   .     A
C804   C872    1.390   .     S
C806   C605    1.348   1_565 S
C806   Br648   1.940   1_565 S
C807   O837    1.297   .     A
C807   C812    1.446   .     S
C807   O835    1.298   .     A
C808   C811    1.446   .     S
C808   O838    1.297   .     A
C808   O836    1.298   .     A
C809   C811    1.384   .     A
C809   H825    1.086   .     S
C809   C819    1.384   .     A
C810   H826    1.086   .     S
C810   C812    1.384   .     A
C810   C820    1.384   .     A
C811   C813    1.407   .     A
C812   C814    1.407   .     A
C813   C815    1.425   .     A
C813   C839    1.451   .     S
C814   C841    1.451   .     S
C814   C816    1.425   .     A
C815   C821    1.428   .     A
C815   C817    1.433   .     A
C816   C818    1.433   .     A
C816   C822    1.428   .     A
C817   C819    1.410   .     A
C817   C868    1.412   .     S
C818   C820    1.410   .     A
C818   C867    1.412   1_455 S
C821   C843    1.446   .     S
C821   C853    1.390   .     S
C822   C845    1.446   .     S
C822   C854    1.390   1_455 S
Cu823  O838    1.953   .     S
Cu823  Cu824   2.708   .     S
Cu823  O834    1.952   .     S
Cu823  O835    1.961   .     S
Cu823  O831    1.959   .     S
Cu823  N830    2.035   .     S
Cu824  O832    1.959   .     S
Cu824  O833    1.952   .     S
Cu824  O837    1.953   .     S
Cu824  O836    1.961   .     S
Cu824  N829    2.035   .     S
N830   N229    1.292   1_556 S
N830   Br250   1.881   1_556 S
C839   N840    1.157   .     T
C841   N842    1.157   .     T
N844   C643    1.158   1_565 S
C845   N646    1.158   1_565 S
Br847  C605    1.940   1_565 S
Br849  N229    1.881   1_556 S
C851   O883    1.297   .     A
C851   C855    1.423   .     S
C851   O881    1.290   .     A
C852   O884    1.297   .     A
C852   O882    1.290   .     A
C852   C856    1.423   .     S
C853   H877    1.087   .     S
C853   C870    1.392   .     A
C854   H878    1.087   .     S
C854   C869    1.392   .     A
C854   C822    1.390   1_655 S
C856   C655    1.348   1_565 S
C856   Br698   1.940   1_565 S
C857   O887    1.297   .     A
C857   C862    1.446   .     S
C857   O885    1.298   .     A
C858   C861    1.446   .     S
C858   O888    1.297   .     A
C858   O886    1.298   .     A
C859   C861    1.384   .     A
C859   H875    1.086   .     S
C859   C869    1.384   .     A
C860   H876    1.086   .     S
C860   C862    1.384   .     A
C860   C870    1.384   .     A
C861   C863    1.407   .     A
C862   C864    1.407   .     A
C863   C865    1.425   .     A
C863   C889    1.451   .     S
C864   C891    1.451   .     S
C864   C866    1.425   .     A
C865   C871    1.428   .     A
C865   C867    1.433   .     A
C866   C868    1.433   .     A
C866   C872    1.428   .     A
C867   C869    1.410   .     A
C867   C818    1.412   1_655 S
C868   C870    1.410   .     A
C871   C893    1.446   .     S
C871   C803    1.390   1_655 S
C872   C895    1.446   .     S
Cu873  O888    1.953   .     S
Cu873  Cu874   2.708   .     S
Cu873  O884    1.952   .     S
Cu873  O885    1.961   .     S
Cu873  O881    1.959   .     S
Cu873  N880    2.035   .     S
Cu874  O882    1.959   .     S
Cu874  O883    1.952   .     S
Cu874  O887    1.953   .     S
Cu874  O886    1.961   .     S
Cu874  N879    2.035   .     S
N880   N279    1.292   1_556 S
N880   Br300   1.881   1_556 S
C889   N890    1.157   .     T
C891   N892    1.157   .     T
N894   C693    1.158   1_565 S
C895   N696    1.158   1_565 S
Br897  C655    1.940   1_565 S
Br899  N279    1.881   1_556 S
