data_str_m2_o1_o16_pcu_sym.45
_audit_creation_date              2020-01-03
_audit_creation_method            'Materials Studio'
_symmetry_space_group_name_H-M    'P1'
_symmetry_Int_Tables_number       1
_symmetry_cell_setting            triclinic
loop_
_symmetry_equiv_pos_as_xyz
  x,y,z
_cell_length_a                    28.6055
_cell_length_b                    32.5857
_cell_length_c                    26.8463
_cell_angle_alpha                 90.8348
_cell_angle_beta                  72.6994
_cell_angle_gamma                 89.4346
loop_
_atom_site_label
_atom_site_type_symbol
_atom_site_fract_x
_atom_site_fract_y
_atom_site_fract_z
_atom_site_U_iso_or_equiv
_atom_site_adp_type
_atom_site_occupancy
C1     C     0.16627   0.24589   0.25053   0.00000  Uiso   1.00
C2     C     0.12474   0.16136   0.40724   0.00000  Uiso   1.00
C3     C     0.20501   0.31099   0.26034   0.00000  Uiso   1.00
C4     C     0.14058   0.16419   0.34994   0.00000  Uiso   1.00
C5     C     0.20757   0.02002   0.25780   0.00000  Uiso   1.00
C6     C     0.16766   0.04251   0.25030   0.00000  Uiso   1.00
C7     C     0.12740   0.02159   0.24307   0.00000  Uiso   1.00
C8     C     0.12666   0.31243   0.24299   0.00000  Uiso   1.00
C9     C     0.16574   0.29037   0.25133   0.00000  Uiso   1.00
C10    C     0.29909   0.18959   0.28622   0.00000  Uiso   1.00
C11    C     0.01505   0.18901   0.28618   0.00000  Uiso   1.00
C12    C     0.14488   0.15790   0.48950   0.00000  Uiso   1.00
C13    C     0.03526   0.14498   0.21292   0.00000  Uiso   1.00
C14    C     0.31913   0.14544   0.21256   0.00000  Uiso   1.00
C15    C     0.16695   0.08730   0.25018   0.00000  Uiso   1.00
C16    C     0.19285   0.16586   0.14998   0.00000  Uiso   1.00
C17    C     0.26453   0.13302   0.01367   0.00000  Uiso   1.00
C18    C     0.20783   0.16007   0.09328   0.00000  Uiso   1.00
C19    C     0.07688   0.17411   0.43467   0.00000  Uiso   1.00
C20    C     0.06234   0.17730   0.48865   0.00000  Uiso   1.00
C21    C     0.09591   0.17010   0.01592   0.00000  Uiso   1.00
C22    C     0.28618   0.04185   0.22160   0.00000  Uiso   1.00
C23    C     0.15761   0.14950   0.43523   0.00000  Uiso   1.00
C24    C     0.31830   0.00278   0.20906   0.00000  Uiso   1.00
C25    C     0.03146   0.00971   0.16419   0.00000  Uiso   1.00
C26    C     0.18147   0.15349   0.01523   0.00000  Uiso   1.00
C27    C     0.22847   0.13676   0.48787   0.00000  Uiso   1.00
C28    C     0.23794   0.12354   0.43577   0.00000  Uiso   1.00
C29    C     0.20244   0.12907   0.41061   0.00000  Uiso   1.00
C30    C     0.17289   0.16620   0.06730   0.00000  Uiso   1.00
C31    C     0.25412   0.14426   0.06610   0.00000  Uiso   1.00
Cu32   Cu    0.11978   0.16666   0.25000   0.00000  Uiso   1.00
Cu33   Cu    0.21355   0.16667   0.25000   0.00000  Uiso   1.00
H34    H     0.28172   0.13934   0.08572   0.00000  Uiso   1.00
H35    H     0.08189   0.17337   0.05774   0.00000  Uiso   1.00
H36    H     0.02516   0.18670   0.00947   0.00000  Uiso   1.00
H37    H     0.21036   0.11618   0.37167   0.00000  Uiso   1.00
H38    H     0.23425   0.29424   0.26921   0.00000  Uiso   1.00
H39    H     0.30962   0.06675   0.22843   0.00000  Uiso   1.00
H40    H     0.27376   0.05071   0.18751   0.00000  Uiso   1.00
H41    H     0.32850   0.32683   0.24418   0.00000  Uiso   1.00
H42    H     0.29815   0.31075   0.19709   0.00000  Uiso   1.00
H43    H     0.02195   0.01691   0.12801   0.00000  Uiso   1.00
H44    H     0.05477   0.31483   0.15706   0.00000  Uiso   1.00
H45    H     0.09643   0.03805   0.23730   0.00000  Uiso   1.00
H46    H     0.05262   0.03549   0.17368   0.00000  Uiso   1.00
H47    H     0.09560   0.29694   0.23646   0.00000  Uiso   1.00
H48    H     0.02614   0.20704   0.31478   0.00000  Uiso   1.00
H49    H     0.06223   0.12733   0.18334   0.00000  Uiso   1.00
H50    H     0.30906   0.12862   0.18237   0.00000  Uiso   1.00
H51    H     0.30061   0.12059   0.49415   0.00000  Uiso   1.00
H52    H     0.13901   0.18105   0.08893   0.00000  Uiso   1.00
H53    H     0.05074   0.18240   0.41433   0.00000  Uiso   1.00
I54    I     0.25404   0.23057   0.34307   0.00000  Uiso   1.00
I55    I     0.30521   0.09564   0.39077   0.00000  Uiso   1.00
N56    N     0.04931   0.16666   0.24999   0.00000  Uiso   1.00
N57    N     0.28402   0.16669   0.25000   0.00000  Uiso   1.00
O58    O     0.12708   0.22678   0.25001   0.00000  Uiso   1.00
O59    O     0.20627   0.22679   0.25001   0.00000  Uiso   1.00
O60    O     0.10775   0.16665   0.32549   0.00000  Uiso   1.00
O61    O     0.18694   0.16666   0.32549   0.00000  Uiso   1.00
O62    O     0.12706   0.10654   0.25000   0.00000  Uiso   1.00
O63    O     0.20625   0.10655   0.25000   0.00000  Uiso   1.00
O64    O     0.14640   0.16667   0.17451   0.00000  Uiso   1.00
O65    O     0.22559   0.16668   0.17451   0.00000  Uiso   1.00
O66    O     0.24689   0.03882   0.26822   0.00000  Uiso   1.00
C67    C     0.49960   0.24589   0.25053   0.00000  Uiso   1.00
C68    C     0.45808   0.16136   0.40724   0.00000  Uiso   1.00
C69    C     0.53834   0.31099   0.26034   0.00000  Uiso   1.00
C70    C     0.47391   0.16419   0.34994   0.00000  Uiso   1.00
C71    C     0.54090   0.02002   0.25780   0.00000  Uiso   1.00
C72    C     0.50099   0.04251   0.25030   0.00000  Uiso   1.00
C73    C     0.46073   0.02159   0.24307   0.00000  Uiso   1.00
C74    C     0.45999   0.31243   0.24299   0.00000  Uiso   1.00
C75    C     0.49907   0.29037   0.25133   0.00000  Uiso   1.00
C76    C     0.63242   0.18959   0.28622   0.00000  Uiso   1.00
C77    C     0.34838   0.18901   0.28618   0.00000  Uiso   1.00
C78    C     0.47822   0.15790   0.48950   0.00000  Uiso   1.00
C79    C     0.36860   0.14498   0.21292   0.00000  Uiso   1.00
C80    C     0.65247   0.14544   0.21256   0.00000  Uiso   1.00
C81    C     0.50029   0.08730   0.25018   0.00000  Uiso   1.00
C82    C     0.52619   0.16586   0.14998   0.00000  Uiso   1.00
C83    C     0.59787   0.13302   0.01367   0.00000  Uiso   1.00
C84    C     0.54116   0.16007   0.09328   0.00000  Uiso   1.00
C85    C     0.41022   0.17411   0.43467   0.00000  Uiso   1.00
C86    C     0.39568   0.17730   0.48865   0.00000  Uiso   1.00
C87    C     0.42924   0.17010   0.01592   0.00000  Uiso   1.00
C88    C     0.61951   0.04185   0.22160   0.00000  Uiso   1.00
C89    C     0.49094   0.14950   0.43523   0.00000  Uiso   1.00
C90    C     0.65163   0.00278   0.20906   0.00000  Uiso   1.00
C91    C     0.36479   0.00971   0.16419   0.00000  Uiso   1.00
C92    C     0.51480   0.15349   0.01523   0.00000  Uiso   1.00
C93    C     0.56180   0.13676   0.48787   0.00000  Uiso   1.00
C94    C     0.57127   0.12354   0.43577   0.00000  Uiso   1.00
C95    C     0.53577   0.12907   0.41061   0.00000  Uiso   1.00
C96    C     0.50622   0.16620   0.06730   0.00000  Uiso   1.00
C97    C     0.58746   0.14426   0.06610   0.00000  Uiso   1.00
Cu98   Cu    0.45311   0.16666   0.25000   0.00000  Uiso   1.00
Cu99   Cu    0.54689   0.16667   0.25000   0.00000  Uiso   1.00
H100   H     0.61505   0.13934   0.08572   0.00000  Uiso   1.00
H101   H     0.41522   0.17337   0.05774   0.00000  Uiso   1.00
H102   H     0.35849   0.18670   0.00947   0.00000  Uiso   1.00
H103   H     0.54370   0.11618   0.37167   0.00000  Uiso   1.00
H104   H     0.56758   0.29424   0.26921   0.00000  Uiso   1.00
H105   H     0.64295   0.06675   0.22843   0.00000  Uiso   1.00
H106   H     0.60709   0.05071   0.18751   0.00000  Uiso   1.00
H107   H     0.66183   0.32683   0.24418   0.00000  Uiso   1.00
H108   H     0.63149   0.31075   0.19709   0.00000  Uiso   1.00
H109   H     0.35529   0.01691   0.12801   0.00000  Uiso   1.00
H110   H     0.38810   0.31483   0.15706   0.00000  Uiso   1.00
H111   H     0.42977   0.03805   0.23730   0.00000  Uiso   1.00
H112   H     0.38596   0.03549   0.17368   0.00000  Uiso   1.00
H113   H     0.42893   0.29694   0.23646   0.00000  Uiso   1.00
H114   H     0.35947   0.20704   0.31478   0.00000  Uiso   1.00
H115   H     0.39557   0.12733   0.18334   0.00000  Uiso   1.00
H116   H     0.64239   0.12862   0.18237   0.00000  Uiso   1.00
H117   H     0.63395   0.12059   0.49415   0.00000  Uiso   1.00
H118   H     0.47234   0.18105   0.08893   0.00000  Uiso   1.00
H119   H     0.38407   0.18240   0.41433   0.00000  Uiso   1.00
I120   I     0.58737   0.23057   0.34307   0.00000  Uiso   1.00
I121   I     0.63854   0.09564   0.39077   0.00000  Uiso   1.00
N122   N     0.38265   0.16666   0.24999   0.00000  Uiso   1.00
N123   N     0.61735   0.16669   0.25000   0.00000  Uiso   1.00
O124   O     0.46042   0.22678   0.25001   0.00000  Uiso   1.00
O125   O     0.53961   0.22679   0.25001   0.00000  Uiso   1.00
O126   O     0.44108   0.16665   0.32549   0.00000  Uiso   1.00
O127   O     0.52027   0.16666   0.32549   0.00000  Uiso   1.00
O128   O     0.46039   0.10654   0.25000   0.00000  Uiso   1.00
O129   O     0.53958   0.10655   0.25000   0.00000  Uiso   1.00
O130   O     0.47973   0.16667   0.17451   0.00000  Uiso   1.00
O131   O     0.55892   0.16668   0.17451   0.00000  Uiso   1.00
O132   O     0.58022   0.03882   0.26822   0.00000  Uiso   1.00
C133   C     0.83294   0.24589   0.25053   0.00000  Uiso   1.00
C134   C     0.79141   0.16136   0.40724   0.00000  Uiso   1.00
C135   C     0.87167   0.31099   0.26034   0.00000  Uiso   1.00
C136   C     0.80725   0.16419   0.34994   0.00000  Uiso   1.00
C137   C     0.87424   0.02002   0.25780   0.00000  Uiso   1.00
C138   C     0.83432   0.04251   0.25030   0.00000  Uiso   1.00
C139   C     0.79407   0.02159   0.24307   0.00000  Uiso   1.00
C140   C     0.79333   0.31243   0.24299   0.00000  Uiso   1.00
C141   C     0.83241   0.29037   0.25133   0.00000  Uiso   1.00
C142   C     0.96575   0.18959   0.28622   0.00000  Uiso   1.00
C143   C     0.68171   0.18901   0.28618   0.00000  Uiso   1.00
C144   C     0.81155   0.15790   0.48950   0.00000  Uiso   1.00
C145   C     0.70193   0.14498   0.21292   0.00000  Uiso   1.00
C146   C     0.98580   0.14544   0.21256   0.00000  Uiso   1.00
C147   C     0.83362   0.08730   0.25018   0.00000  Uiso   1.00
C148   C     0.85952   0.16586   0.14998   0.00000  Uiso   1.00
C149   C     0.93120   0.13302   0.01367   0.00000  Uiso   1.00
C150   C     0.87450   0.16007   0.09328   0.00000  Uiso   1.00
C151   C     0.74355   0.17411   0.43467   0.00000  Uiso   1.00
C152   C     0.72901   0.17730   0.48865   0.00000  Uiso   1.00
C153   C     0.76257   0.17010   0.01592   0.00000  Uiso   1.00
C154   C     0.95284   0.04185   0.22160   0.00000  Uiso   1.00
C155   C     0.82427   0.14950   0.43523   0.00000  Uiso   1.00
C156   C     0.98497   0.00278   0.20906   0.00000  Uiso   1.00
C157   C     0.69812   0.00971   0.16419   0.00000  Uiso   1.00
C158   C     0.84814   0.15349   0.01523   0.00000  Uiso   1.00
C159   C     0.89514   0.13676   0.48787   0.00000  Uiso   1.00
C160   C     0.90460   0.12354   0.43577   0.00000  Uiso   1.00
C161   C     0.86910   0.12907   0.41061   0.00000  Uiso   1.00
C162   C     0.83955   0.16620   0.06730   0.00000  Uiso   1.00
C163   C     0.92079   0.14426   0.06610   0.00000  Uiso   1.00
Cu164  Cu    0.78645   0.16666   0.25000   0.00000  Uiso   1.00
Cu165  Cu    0.88022   0.16667   0.25000   0.00000  Uiso   1.00
H166   H     0.94839   0.13934   0.08572   0.00000  Uiso   1.00
H167   H     0.74856   0.17337   0.05774   0.00000  Uiso   1.00
H168   H     0.69182   0.18670   0.00947   0.00000  Uiso   1.00
H169   H     0.87703   0.11618   0.37167   0.00000  Uiso   1.00
H170   H     0.90092   0.29424   0.26921   0.00000  Uiso   1.00
H171   H     0.97628   0.06675   0.22843   0.00000  Uiso   1.00
H172   H     0.94042   0.05071   0.18751   0.00000  Uiso   1.00
H173   H     0.99517   0.32683   0.24418   0.00000  Uiso   1.00
H174   H     0.96482   0.31075   0.19709   0.00000  Uiso   1.00
H175   H     0.68862   0.01691   0.12801   0.00000  Uiso   1.00
H176   H     0.72143   0.31483   0.15706   0.00000  Uiso   1.00
H177   H     0.76310   0.03805   0.23730   0.00000  Uiso   1.00
H178   H     0.71929   0.03549   0.17368   0.00000  Uiso   1.00
H179   H     0.76227   0.29694   0.23646   0.00000  Uiso   1.00
H180   H     0.69280   0.20704   0.31478   0.00000  Uiso   1.00
H181   H     0.72890   0.12733   0.18334   0.00000  Uiso   1.00
H182   H     0.97573   0.12862   0.18237   0.00000  Uiso   1.00
H183   H     0.96728   0.12059   0.49415   0.00000  Uiso   1.00
H184   H     0.80568   0.18105   0.08893   0.00000  Uiso   1.00
H185   H     0.71741   0.18240   0.41433   0.00000  Uiso   1.00
I186   I     0.92070   0.23057   0.34307   0.00000  Uiso   1.00
I187   I     0.97187   0.09564   0.39077   0.00000  Uiso   1.00
N188   N     0.71598   0.16666   0.24999   0.00000  Uiso   1.00
N189   N     0.95069   0.16669   0.25000   0.00000  Uiso   1.00
O190   O     0.79375   0.22678   0.25001   0.00000  Uiso   1.00
O191   O     0.87294   0.22679   0.25001   0.00000  Uiso   1.00
O192   O     0.77441   0.16665   0.32549   0.00000  Uiso   1.00
O193   O     0.85360   0.16666   0.32549   0.00000  Uiso   1.00
O194   O     0.79373   0.10654   0.25000   0.00000  Uiso   1.00
O195   O     0.87292   0.10655   0.25000   0.00000  Uiso   1.00
O196   O     0.81306   0.16667   0.17451   0.00000  Uiso   1.00
O197   O     0.89225   0.16668   0.17451   0.00000  Uiso   1.00
O198   O     0.91355   0.03882   0.26822   0.00000  Uiso   1.00
C199   C     0.16627   0.57923   0.25053   0.00000  Uiso   1.00
C200   C     0.12474   0.49469   0.40724   0.00000  Uiso   1.00
C201   C     0.20501   0.64432   0.26034   0.00000  Uiso   1.00
C202   C     0.14058   0.49753   0.34994   0.00000  Uiso   1.00
C203   C     0.20757   0.35335   0.25780   0.00000  Uiso   1.00
C204   C     0.16766   0.37584   0.25030   0.00000  Uiso   1.00
C205   C     0.12740   0.35492   0.24307   0.00000  Uiso   1.00
C206   C     0.12666   0.64576   0.24299   0.00000  Uiso   1.00
C207   C     0.16574   0.62371   0.25133   0.00000  Uiso   1.00
C208   C     0.29909   0.52292   0.28622   0.00000  Uiso   1.00
C209   C     0.01505   0.52234   0.28618   0.00000  Uiso   1.00
C210   C     0.14488   0.49124   0.48950   0.00000  Uiso   1.00
C211   C     0.03526   0.47831   0.21292   0.00000  Uiso   1.00
C212   C     0.31913   0.47877   0.21256   0.00000  Uiso   1.00
C213   C     0.16695   0.42063   0.25018   0.00000  Uiso   1.00
C214   C     0.19285   0.49920   0.14998   0.00000  Uiso   1.00
C215   C     0.26453   0.46635   0.01367   0.00000  Uiso   1.00
C216   C     0.20783   0.49340   0.09328   0.00000  Uiso   1.00
C217   C     0.07688   0.50744   0.43467   0.00000  Uiso   1.00
C218   C     0.06234   0.51063   0.48865   0.00000  Uiso   1.00
C219   C     0.09591   0.50343   0.01592   0.00000  Uiso   1.00
C220   C     0.28618   0.37518   0.22160   0.00000  Uiso   1.00
C221   C     0.15761   0.48283   0.43523   0.00000  Uiso   1.00
C222   C     0.31830   0.33611   0.20906   0.00000  Uiso   1.00
C223   C     0.03146   0.34305   0.16419   0.00000  Uiso   1.00
C224   C     0.18147   0.48682   0.01523   0.00000  Uiso   1.00
C225   C     0.22847   0.47009   0.48787   0.00000  Uiso   1.00
C226   C     0.23794   0.45688   0.43577   0.00000  Uiso   1.00
C227   C     0.20244   0.46241   0.41061   0.00000  Uiso   1.00
C228   C     0.17289   0.49953   0.06730   0.00000  Uiso   1.00
C229   C     0.25412   0.47759   0.06610   0.00000  Uiso   1.00
Cu230  Cu    0.11978   0.49999   0.25000   0.00000  Uiso   1.00
Cu231  Cu    0.21355   0.50001   0.25000   0.00000  Uiso   1.00
H232   H     0.28172   0.47267   0.08572   0.00000  Uiso   1.00
H233   H     0.08189   0.50671   0.05774   0.00000  Uiso   1.00
H234   H     0.02516   0.52003   0.00947   0.00000  Uiso   1.00
H235   H     0.21036   0.44952   0.37167   0.00000  Uiso   1.00
H236   H     0.23425   0.62757   0.26921   0.00000  Uiso   1.00
H237   H     0.30962   0.40008   0.22843   0.00000  Uiso   1.00
H238   H     0.27376   0.38405   0.18751   0.00000  Uiso   1.00
H239   H     0.32850   0.66016   0.24418   0.00000  Uiso   1.00
H240   H     0.29815   0.64408   0.19709   0.00000  Uiso   1.00
H241   H     0.02195   0.35024   0.12801   0.00000  Uiso   1.00
H242   H     0.05477   0.64816   0.15706   0.00000  Uiso   1.00
H243   H     0.09643   0.37138   0.23730   0.00000  Uiso   1.00
H244   H     0.05262   0.36883   0.17368   0.00000  Uiso   1.00
H245   H     0.09560   0.63027   0.23646   0.00000  Uiso   1.00
H246   H     0.02614   0.54037   0.31478   0.00000  Uiso   1.00
H247   H     0.06223   0.46067   0.18334   0.00000  Uiso   1.00
H248   H     0.30906   0.46195   0.18237   0.00000  Uiso   1.00
H249   H     0.30061   0.45393   0.49415   0.00000  Uiso   1.00
H250   H     0.13901   0.51438   0.08893   0.00000  Uiso   1.00
H251   H     0.05074   0.51574   0.41433   0.00000  Uiso   1.00
I252   I     0.25404   0.56391   0.34307   0.00000  Uiso   1.00
I253   I     0.30521   0.42898   0.39077   0.00000  Uiso   1.00
N254   N     0.04931   0.49999   0.24999   0.00000  Uiso   1.00
N255   N     0.28402   0.50002   0.25000   0.00000  Uiso   1.00
O256   O     0.12708   0.56011   0.25001   0.00000  Uiso   1.00
O257   O     0.20627   0.56012   0.25001   0.00000  Uiso   1.00
O258   O     0.10775   0.49998   0.32549   0.00000  Uiso   1.00
O259   O     0.18694   0.49999   0.32549   0.00000  Uiso   1.00
O260   O     0.12706   0.43988   0.25000   0.00000  Uiso   1.00
O261   O     0.20625   0.43989   0.25000   0.00000  Uiso   1.00
O262   O     0.14640   0.50001   0.17451   0.00000  Uiso   1.00
O263   O     0.22559   0.50002   0.17451   0.00000  Uiso   1.00
O264   O     0.24689   0.37216   0.26822   0.00000  Uiso   1.00
C265   C     0.49960   0.57923   0.25053   0.00000  Uiso   1.00
C266   C     0.45808   0.49469   0.40724   0.00000  Uiso   1.00
C267   C     0.53834   0.64432   0.26034   0.00000  Uiso   1.00
C268   C     0.47391   0.49753   0.34994   0.00000  Uiso   1.00
C269   C     0.54090   0.35335   0.25780   0.00000  Uiso   1.00
C270   C     0.50099   0.37584   0.25030   0.00000  Uiso   1.00
C271   C     0.46073   0.35492   0.24307   0.00000  Uiso   1.00
C272   C     0.45999   0.64576   0.24299   0.00000  Uiso   1.00
C273   C     0.49907   0.62371   0.25133   0.00000  Uiso   1.00
C274   C     0.63242   0.52292   0.28622   0.00000  Uiso   1.00
C275   C     0.34838   0.52234   0.28618   0.00000  Uiso   1.00
C276   C     0.47822   0.49124   0.48950   0.00000  Uiso   1.00
C277   C     0.36860   0.47831   0.21292   0.00000  Uiso   1.00
C278   C     0.65247   0.47877   0.21256   0.00000  Uiso   1.00
C279   C     0.50029   0.42063   0.25018   0.00000  Uiso   1.00
C280   C     0.52619   0.49920   0.14998   0.00000  Uiso   1.00
C281   C     0.59787   0.46635   0.01367   0.00000  Uiso   1.00
C282   C     0.54116   0.49340   0.09328   0.00000  Uiso   1.00
C283   C     0.41022   0.50744   0.43467   0.00000  Uiso   1.00
C284   C     0.39568   0.51063   0.48865   0.00000  Uiso   1.00
C285   C     0.42924   0.50343   0.01592   0.00000  Uiso   1.00
C286   C     0.61951   0.37518   0.22160   0.00000  Uiso   1.00
C287   C     0.49094   0.48283   0.43523   0.00000  Uiso   1.00
C288   C     0.65163   0.33611   0.20906   0.00000  Uiso   1.00
C289   C     0.36479   0.34305   0.16419   0.00000  Uiso   1.00
C290   C     0.51480   0.48682   0.01523   0.00000  Uiso   1.00
C291   C     0.56180   0.47009   0.48787   0.00000  Uiso   1.00
C292   C     0.57127   0.45688   0.43577   0.00000  Uiso   1.00
C293   C     0.53577   0.46241   0.41061   0.00000  Uiso   1.00
C294   C     0.50622   0.49953   0.06730   0.00000  Uiso   1.00
C295   C     0.58746   0.47759   0.06610   0.00000  Uiso   1.00
Cu296  Cu    0.45311   0.49999   0.25000   0.00000  Uiso   1.00
Cu297  Cu    0.54689   0.50001   0.25000   0.00000  Uiso   1.00
H298   H     0.61505   0.47267   0.08572   0.00000  Uiso   1.00
H299   H     0.41522   0.50671   0.05774   0.00000  Uiso   1.00
H300   H     0.35849   0.52003   0.00947   0.00000  Uiso   1.00
H301   H     0.54370   0.44952   0.37167   0.00000  Uiso   1.00
H302   H     0.56758   0.62757   0.26921   0.00000  Uiso   1.00
H303   H     0.64295   0.40008   0.22843   0.00000  Uiso   1.00
H304   H     0.60709   0.38405   0.18751   0.00000  Uiso   1.00
H305   H     0.66183   0.66016   0.24418   0.00000  Uiso   1.00
H306   H     0.63149   0.64408   0.19709   0.00000  Uiso   1.00
H307   H     0.35529   0.35024   0.12801   0.00000  Uiso   1.00
H308   H     0.38810   0.64816   0.15706   0.00000  Uiso   1.00
H309   H     0.42977   0.37138   0.23730   0.00000  Uiso   1.00
H310   H     0.38596   0.36883   0.17368   0.00000  Uiso   1.00
H311   H     0.42893   0.63027   0.23646   0.00000  Uiso   1.00
H312   H     0.35947   0.54037   0.31478   0.00000  Uiso   1.00
H313   H     0.39557   0.46067   0.18334   0.00000  Uiso   1.00
H314   H     0.64239   0.46195   0.18237   0.00000  Uiso   1.00
H315   H     0.63395   0.45393   0.49415   0.00000  Uiso   1.00
H316   H     0.47234   0.51438   0.08893   0.00000  Uiso   1.00
H317   H     0.38407   0.51574   0.41433   0.00000  Uiso   1.00
I318   I     0.58737   0.56391   0.34307   0.00000  Uiso   1.00
I319   I     0.63854   0.42898   0.39077   0.00000  Uiso   1.00
N320   N     0.38265   0.49999   0.24999   0.00000  Uiso   1.00
N321   N     0.61735   0.50002   0.25000   0.00000  Uiso   1.00
O322   O     0.46042   0.56011   0.25001   0.00000  Uiso   1.00
O323   O     0.53961   0.56012   0.25001   0.00000  Uiso   1.00
O324   O     0.44108   0.49998   0.32549   0.00000  Uiso   1.00
O325   O     0.52027   0.49999   0.32549   0.00000  Uiso   1.00
O326   O     0.46039   0.43988   0.25000   0.00000  Uiso   1.00
O327   O     0.53958   0.43989   0.25000   0.00000  Uiso   1.00
O328   O     0.47973   0.50001   0.17451   0.00000  Uiso   1.00
O329   O     0.55892   0.50002   0.17451   0.00000  Uiso   1.00
O330   O     0.58022   0.37216   0.26822   0.00000  Uiso   1.00
C331   C     0.83294   0.57923   0.25053   0.00000  Uiso   1.00
C332   C     0.79141   0.49469   0.40724   0.00000  Uiso   1.00
C333   C     0.87167   0.64432   0.26034   0.00000  Uiso   1.00
C334   C     0.80725   0.49753   0.34994   0.00000  Uiso   1.00
C335   C     0.87424   0.35335   0.25780   0.00000  Uiso   1.00
C336   C     0.83432   0.37584   0.25030   0.00000  Uiso   1.00
C337   C     0.79407   0.35492   0.24307   0.00000  Uiso   1.00
C338   C     0.79333   0.64576   0.24299   0.00000  Uiso   1.00
C339   C     0.83241   0.62371   0.25133   0.00000  Uiso   1.00
C340   C     0.96575   0.52292   0.28622   0.00000  Uiso   1.00
C341   C     0.68171   0.52234   0.28618   0.00000  Uiso   1.00
C342   C     0.81155   0.49124   0.48950   0.00000  Uiso   1.00
C343   C     0.70193   0.47831   0.21292   0.00000  Uiso   1.00
C344   C     0.98580   0.47877   0.21256   0.00000  Uiso   1.00
C345   C     0.83362   0.42063   0.25018   0.00000  Uiso   1.00
C346   C     0.85952   0.49920   0.14998   0.00000  Uiso   1.00
C347   C     0.93120   0.46635   0.01367   0.00000  Uiso   1.00
C348   C     0.87450   0.49340   0.09328   0.00000  Uiso   1.00
C349   C     0.74355   0.50744   0.43467   0.00000  Uiso   1.00
C350   C     0.72901   0.51063   0.48865   0.00000  Uiso   1.00
C351   C     0.76257   0.50343   0.01592   0.00000  Uiso   1.00
C352   C     0.95284   0.37518   0.22160   0.00000  Uiso   1.00
C353   C     0.82427   0.48283   0.43523   0.00000  Uiso   1.00
C354   C     0.98497   0.33611   0.20906   0.00000  Uiso   1.00
C355   C     0.69812   0.34305   0.16419   0.00000  Uiso   1.00
C356   C     0.84814   0.48682   0.01523   0.00000  Uiso   1.00
C357   C     0.89514   0.47009   0.48787   0.00000  Uiso   1.00
C358   C     0.90460   0.45688   0.43577   0.00000  Uiso   1.00
C359   C     0.86910   0.46241   0.41061   0.00000  Uiso   1.00
C360   C     0.83955   0.49953   0.06730   0.00000  Uiso   1.00
C361   C     0.92079   0.47759   0.06610   0.00000  Uiso   1.00
Cu362  Cu    0.78645   0.49999   0.25000   0.00000  Uiso   1.00
Cu363  Cu    0.88022   0.50001   0.25000   0.00000  Uiso   1.00
H364   H     0.94839   0.47267   0.08572   0.00000  Uiso   1.00
H365   H     0.74856   0.50671   0.05774   0.00000  Uiso   1.00
H366   H     0.69182   0.52003   0.00947   0.00000  Uiso   1.00
H367   H     0.87703   0.44952   0.37167   0.00000  Uiso   1.00
H368   H     0.90092   0.62757   0.26921   0.00000  Uiso   1.00
H369   H     0.97628   0.40008   0.22843   0.00000  Uiso   1.00
H370   H     0.94042   0.38405   0.18751   0.00000  Uiso   1.00
H371   H     0.99517   0.66016   0.24418   0.00000  Uiso   1.00
H372   H     0.96482   0.64408   0.19709   0.00000  Uiso   1.00
H373   H     0.68862   0.35024   0.12801   0.00000  Uiso   1.00
H374   H     0.72143   0.64816   0.15706   0.00000  Uiso   1.00
H375   H     0.76310   0.37138   0.23730   0.00000  Uiso   1.00
H376   H     0.71929   0.36883   0.17368   0.00000  Uiso   1.00
H377   H     0.76227   0.63027   0.23646   0.00000  Uiso   1.00
H378   H     0.69280   0.54037   0.31478   0.00000  Uiso   1.00
H379   H     0.72890   0.46067   0.18334   0.00000  Uiso   1.00
H380   H     0.97573   0.46195   0.18237   0.00000  Uiso   1.00
H381   H     0.96728   0.45393   0.49415   0.00000  Uiso   1.00
H382   H     0.80568   0.51438   0.08893   0.00000  Uiso   1.00
H383   H     0.71741   0.51574   0.41433   0.00000  Uiso   1.00
I384   I     0.92070   0.56391   0.34307   0.00000  Uiso   1.00
I385   I     0.97187   0.42898   0.39077   0.00000  Uiso   1.00
N386   N     0.71598   0.49999   0.24999   0.00000  Uiso   1.00
N387   N     0.95069   0.50002   0.25000   0.00000  Uiso   1.00
O388   O     0.79375   0.56011   0.25001   0.00000  Uiso   1.00
O389   O     0.87294   0.56012   0.25001   0.00000  Uiso   1.00
O390   O     0.77441   0.49998   0.32549   0.00000  Uiso   1.00
O391   O     0.85360   0.49999   0.32549   0.00000  Uiso   1.00
O392   O     0.79373   0.43988   0.25000   0.00000  Uiso   1.00
O393   O     0.87292   0.43989   0.25000   0.00000  Uiso   1.00
O394   O     0.81306   0.50001   0.17451   0.00000  Uiso   1.00
O395   O     0.89225   0.50002   0.17451   0.00000  Uiso   1.00
O396   O     0.91355   0.37216   0.26822   0.00000  Uiso   1.00
C397   C     0.16627   0.91256   0.25053   0.00000  Uiso   1.00
C398   C     0.12474   0.82803   0.40724   0.00000  Uiso   1.00
C399   C     0.20501   0.97766   0.26034   0.00000  Uiso   1.00
C400   C     0.14058   0.83086   0.34994   0.00000  Uiso   1.00
C401   C     0.20757   0.68668   0.25780   0.00000  Uiso   1.00
C402   C     0.16766   0.70917   0.25030   0.00000  Uiso   1.00
C403   C     0.12740   0.68826   0.24307   0.00000  Uiso   1.00
C404   C     0.12666   0.97909   0.24299   0.00000  Uiso   1.00
C405   C     0.16574   0.95704   0.25133   0.00000  Uiso   1.00
C406   C     0.29909   0.85626   0.28622   0.00000  Uiso   1.00
C407   C     0.01505   0.85567   0.28618   0.00000  Uiso   1.00
C408   C     0.14488   0.82457   0.48950   0.00000  Uiso   1.00
C409   C     0.03526   0.81165   0.21292   0.00000  Uiso   1.00
C410   C     0.31913   0.81211   0.21256   0.00000  Uiso   1.00
C411   C     0.16695   0.75396   0.25018   0.00000  Uiso   1.00
C412   C     0.19285   0.83253   0.14998   0.00000  Uiso   1.00
C413   C     0.26453   0.79968   0.01367   0.00000  Uiso   1.00
C414   C     0.20783   0.82673   0.09328   0.00000  Uiso   1.00
C415   C     0.07688   0.84078   0.43467   0.00000  Uiso   1.00
C416   C     0.06234   0.84397   0.48865   0.00000  Uiso   1.00
C417   C     0.09591   0.83677   0.01592   0.00000  Uiso   1.00
C418   C     0.28618   0.70852   0.22160   0.00000  Uiso   1.00
C419   C     0.15761   0.81616   0.43523   0.00000  Uiso   1.00
C420   C     0.31830   0.66944   0.20906   0.00000  Uiso   1.00
C421   C     0.03146   0.67638   0.16419   0.00000  Uiso   1.00
C422   C     0.18147   0.82016   0.01523   0.00000  Uiso   1.00
C423   C     0.22847   0.80343   0.48787   0.00000  Uiso   1.00
C424   C     0.23794   0.79021   0.43577   0.00000  Uiso   1.00
C425   C     0.20244   0.79574   0.41061   0.00000  Uiso   1.00
C426   C     0.17289   0.83286   0.06730   0.00000  Uiso   1.00
C427   C     0.25412   0.81092   0.06610   0.00000  Uiso   1.00
Cu428  Cu    0.11978   0.83333   0.25000   0.00000  Uiso   1.00
Cu429  Cu    0.21355   0.83334   0.25000   0.00000  Uiso   1.00
H430   H     0.28172   0.80600   0.08572   0.00000  Uiso   1.00
H431   H     0.08189   0.84004   0.05774   0.00000  Uiso   1.00
H432   H     0.02516   0.85336   0.00947   0.00000  Uiso   1.00
H433   H     0.21036   0.78285   0.37167   0.00000  Uiso   1.00
H434   H     0.23425   0.96091   0.26921   0.00000  Uiso   1.00
H435   H     0.30962   0.73341   0.22843   0.00000  Uiso   1.00
H436   H     0.27376   0.71738   0.18751   0.00000  Uiso   1.00
H437   H     0.32850   0.99350   0.24418   0.00000  Uiso   1.00
H438   H     0.29815   0.97741   0.19709   0.00000  Uiso   1.00
H439   H     0.02195   0.68357   0.12801   0.00000  Uiso   1.00
H440   H     0.05477   0.98150   0.15706   0.00000  Uiso   1.00
H441   H     0.09643   0.70472   0.23730   0.00000  Uiso   1.00
H442   H     0.05262   0.70216   0.17368   0.00000  Uiso   1.00
H443   H     0.09560   0.96361   0.23646   0.00000  Uiso   1.00
H444   H     0.02614   0.87370   0.31478   0.00000  Uiso   1.00
H445   H     0.06223   0.79400   0.18334   0.00000  Uiso   1.00
H446   H     0.30906   0.79529   0.18237   0.00000  Uiso   1.00
H447   H     0.30061   0.78726   0.49415   0.00000  Uiso   1.00
H448   H     0.13901   0.84771   0.08893   0.00000  Uiso   1.00
H449   H     0.05074   0.84907   0.41433   0.00000  Uiso   1.00
I450   I     0.25404   0.89724   0.34307   0.00000  Uiso   1.00
I451   I     0.30521   0.76231   0.39077   0.00000  Uiso   1.00
N452   N     0.04931   0.83332   0.24999   0.00000  Uiso   1.00
N453   N     0.28402   0.83335   0.25000   0.00000  Uiso   1.00
O454   O     0.12708   0.89345   0.25001   0.00000  Uiso   1.00
O455   O     0.20627   0.89346   0.25001   0.00000  Uiso   1.00
O456   O     0.10775   0.83332   0.32549   0.00000  Uiso   1.00
O457   O     0.18694   0.83333   0.32549   0.00000  Uiso   1.00
O458   O     0.12706   0.77321   0.25000   0.00000  Uiso   1.00
O459   O     0.20625   0.77322   0.25000   0.00000  Uiso   1.00
O460   O     0.14640   0.83334   0.17451   0.00000  Uiso   1.00
O461   O     0.22559   0.83335   0.17451   0.00000  Uiso   1.00
O462   O     0.24689   0.70549   0.26822   0.00000  Uiso   1.00
C463   C     0.49960   0.91256   0.25053   0.00000  Uiso   1.00
C464   C     0.45808   0.82803   0.40724   0.00000  Uiso   1.00
C465   C     0.53834   0.97766   0.26034   0.00000  Uiso   1.00
C466   C     0.47391   0.83086   0.34994   0.00000  Uiso   1.00
C467   C     0.54090   0.68668   0.25780   0.00000  Uiso   1.00
C468   C     0.50099   0.70917   0.25030   0.00000  Uiso   1.00
C469   C     0.46073   0.68826   0.24307   0.00000  Uiso   1.00
C470   C     0.45999   0.97909   0.24299   0.00000  Uiso   1.00
C471   C     0.49907   0.95704   0.25133   0.00000  Uiso   1.00
C472   C     0.63242   0.85626   0.28622   0.00000  Uiso   1.00
C473   C     0.34838   0.85567   0.28618   0.00000  Uiso   1.00
C474   C     0.47822   0.82457   0.48950   0.00000  Uiso   1.00
C475   C     0.36860   0.81165   0.21292   0.00000  Uiso   1.00
C476   C     0.65247   0.81211   0.21256   0.00000  Uiso   1.00
C477   C     0.50029   0.75396   0.25018   0.00000  Uiso   1.00
C478   C     0.52619   0.83253   0.14998   0.00000  Uiso   1.00
C479   C     0.59787   0.79968   0.01367   0.00000  Uiso   1.00
C480   C     0.54116   0.82673   0.09328   0.00000  Uiso   1.00
C481   C     0.41022   0.84078   0.43467   0.00000  Uiso   1.00
C482   C     0.39568   0.84397   0.48865   0.00000  Uiso   1.00
C483   C     0.42924   0.83677   0.01592   0.00000  Uiso   1.00
C484   C     0.61951   0.70852   0.22160   0.00000  Uiso   1.00
C485   C     0.49094   0.81616   0.43523   0.00000  Uiso   1.00
C486   C     0.65163   0.66944   0.20906   0.00000  Uiso   1.00
C487   C     0.36479   0.67638   0.16419   0.00000  Uiso   1.00
C488   C     0.51480   0.82016   0.01523   0.00000  Uiso   1.00
C489   C     0.56180   0.80343   0.48787   0.00000  Uiso   1.00
C490   C     0.57127   0.79021   0.43577   0.00000  Uiso   1.00
C491   C     0.53577   0.79574   0.41061   0.00000  Uiso   1.00
C492   C     0.50622   0.83286   0.06730   0.00000  Uiso   1.00
C493   C     0.58746   0.81092   0.06610   0.00000  Uiso   1.00
Cu494  Cu    0.45311   0.83333   0.25000   0.00000  Uiso   1.00
Cu495  Cu    0.54689   0.83334   0.25000   0.00000  Uiso   1.00
H496   H     0.61505   0.80600   0.08572   0.00000  Uiso   1.00
H497   H     0.41522   0.84004   0.05774   0.00000  Uiso   1.00
H498   H     0.35849   0.85336   0.00947   0.00000  Uiso   1.00
H499   H     0.54370   0.78285   0.37167   0.00000  Uiso   1.00
H500   H     0.56758   0.96091   0.26921   0.00000  Uiso   1.00
H501   H     0.64295   0.73341   0.22843   0.00000  Uiso   1.00
H502   H     0.60709   0.71738   0.18751   0.00000  Uiso   1.00
H503   H     0.66183   0.99350   0.24418   0.00000  Uiso   1.00
H504   H     0.63149   0.97741   0.19709   0.00000  Uiso   1.00
H505   H     0.35529   0.68357   0.12801   0.00000  Uiso   1.00
H506   H     0.38810   0.98150   0.15706   0.00000  Uiso   1.00
H507   H     0.42977   0.70472   0.23730   0.00000  Uiso   1.00
H508   H     0.38596   0.70216   0.17368   0.00000  Uiso   1.00
H509   H     0.42893   0.96361   0.23646   0.00000  Uiso   1.00
H510   H     0.35947   0.87370   0.31478   0.00000  Uiso   1.00
H511   H     0.39557   0.79400   0.18334   0.00000  Uiso   1.00
H512   H     0.64239   0.79529   0.18237   0.00000  Uiso   1.00
H513   H     0.63395   0.78726   0.49415   0.00000  Uiso   1.00
H514   H     0.47234   0.84771   0.08893   0.00000  Uiso   1.00
H515   H     0.38407   0.84907   0.41433   0.00000  Uiso   1.00
I516   I     0.58737   0.89724   0.34307   0.00000  Uiso   1.00
I517   I     0.63854   0.76231   0.39077   0.00000  Uiso   1.00
N518   N     0.38265   0.83332   0.24999   0.00000  Uiso   1.00
N519   N     0.61735   0.83335   0.25000   0.00000  Uiso   1.00
O520   O     0.46042   0.89345   0.25001   0.00000  Uiso   1.00
O521   O     0.53961   0.89346   0.25001   0.00000  Uiso   1.00
O522   O     0.44108   0.83332   0.32549   0.00000  Uiso   1.00
O523   O     0.52027   0.83333   0.32549   0.00000  Uiso   1.00
O524   O     0.46039   0.77321   0.25000   0.00000  Uiso   1.00
O525   O     0.53958   0.77322   0.25000   0.00000  Uiso   1.00
O526   O     0.47973   0.83334   0.17451   0.00000  Uiso   1.00
O527   O     0.55892   0.83335   0.17451   0.00000  Uiso   1.00
O528   O     0.58022   0.70549   0.26822   0.00000  Uiso   1.00
C529   C     0.83294   0.91256   0.25053   0.00000  Uiso   1.00
C530   C     0.79141   0.82803   0.40724   0.00000  Uiso   1.00
C531   C     0.87167   0.97766   0.26034   0.00000  Uiso   1.00
C532   C     0.80725   0.83086   0.34994   0.00000  Uiso   1.00
C533   C     0.87424   0.68668   0.25780   0.00000  Uiso   1.00
C534   C     0.83432   0.70917   0.25030   0.00000  Uiso   1.00
C535   C     0.79407   0.68826   0.24307   0.00000  Uiso   1.00
C536   C     0.79333   0.97909   0.24299   0.00000  Uiso   1.00
C537   C     0.83241   0.95704   0.25133   0.00000  Uiso   1.00
C538   C     0.96575   0.85626   0.28622   0.00000  Uiso   1.00
C539   C     0.68171   0.85567   0.28618   0.00000  Uiso   1.00
C540   C     0.81155   0.82457   0.48950   0.00000  Uiso   1.00
C541   C     0.70193   0.81165   0.21292   0.00000  Uiso   1.00
C542   C     0.98580   0.81211   0.21256   0.00000  Uiso   1.00
C543   C     0.83362   0.75396   0.25018   0.00000  Uiso   1.00
C544   C     0.85952   0.83253   0.14998   0.00000  Uiso   1.00
C545   C     0.93120   0.79968   0.01367   0.00000  Uiso   1.00
C546   C     0.87450   0.82673   0.09328   0.00000  Uiso   1.00
C547   C     0.74355   0.84078   0.43467   0.00000  Uiso   1.00
C548   C     0.72901   0.84397   0.48865   0.00000  Uiso   1.00
C549   C     0.76257   0.83677   0.01592   0.00000  Uiso   1.00
C550   C     0.95284   0.70852   0.22160   0.00000  Uiso   1.00
C551   C     0.82427   0.81616   0.43523   0.00000  Uiso   1.00
C552   C     0.98497   0.66944   0.20906   0.00000  Uiso   1.00
C553   C     0.69812   0.67638   0.16419   0.00000  Uiso   1.00
C554   C     0.84814   0.82016   0.01523   0.00000  Uiso   1.00
C555   C     0.89514   0.80343   0.48787   0.00000  Uiso   1.00
C556   C     0.90460   0.79021   0.43577   0.00000  Uiso   1.00
C557   C     0.86910   0.79574   0.41061   0.00000  Uiso   1.00
C558   C     0.83955   0.83286   0.06730   0.00000  Uiso   1.00
C559   C     0.92079   0.81092   0.06610   0.00000  Uiso   1.00
Cu560  Cu    0.78645   0.83333   0.25000   0.00000  Uiso   1.00
Cu561  Cu    0.88022   0.83334   0.25000   0.00000  Uiso   1.00
H562   H     0.94839   0.80600   0.08572   0.00000  Uiso   1.00
H563   H     0.74856   0.84004   0.05774   0.00000  Uiso   1.00
H564   H     0.69182   0.85336   0.00947   0.00000  Uiso   1.00
H565   H     0.87703   0.78285   0.37167   0.00000  Uiso   1.00
H566   H     0.90092   0.96091   0.26921   0.00000  Uiso   1.00
H567   H     0.97628   0.73341   0.22843   0.00000  Uiso   1.00
H568   H     0.94042   0.71738   0.18751   0.00000  Uiso   1.00
H569   H     0.99517   0.99350   0.24418   0.00000  Uiso   1.00
H570   H     0.96482   0.97741   0.19709   0.00000  Uiso   1.00
H571   H     0.68862   0.68357   0.12801   0.00000  Uiso   1.00
H572   H     0.72143   0.98150   0.15706   0.00000  Uiso   1.00
H573   H     0.76310   0.70472   0.23730   0.00000  Uiso   1.00
H574   H     0.71929   0.70216   0.17368   0.00000  Uiso   1.00
H575   H     0.76227   0.96361   0.23646   0.00000  Uiso   1.00
H576   H     0.69280   0.87370   0.31478   0.00000  Uiso   1.00
H577   H     0.72890   0.79400   0.18334   0.00000  Uiso   1.00
H578   H     0.97573   0.79529   0.18237   0.00000  Uiso   1.00
H579   H     0.96728   0.78726   0.49415   0.00000  Uiso   1.00
H580   H     0.80568   0.84771   0.08893   0.00000  Uiso   1.00
H581   H     0.71741   0.84907   0.41433   0.00000  Uiso   1.00
I582   I     0.92070   0.89724   0.34307   0.00000  Uiso   1.00
I583   I     0.97187   0.76231   0.39077   0.00000  Uiso   1.00
N584   N     0.71598   0.83332   0.24999   0.00000  Uiso   1.00
N585   N     0.95069   0.83335   0.25000   0.00000  Uiso   1.00
O586   O     0.79375   0.89345   0.25001   0.00000  Uiso   1.00
O587   O     0.87294   0.89346   0.25001   0.00000  Uiso   1.00
O588   O     0.77441   0.83332   0.32549   0.00000  Uiso   1.00
O589   O     0.85360   0.83333   0.32549   0.00000  Uiso   1.00
O590   O     0.79373   0.77321   0.25000   0.00000  Uiso   1.00
O591   O     0.87292   0.77322   0.25000   0.00000  Uiso   1.00
O592   O     0.81306   0.83334   0.17451   0.00000  Uiso   1.00
O593   O     0.89225   0.83335   0.17451   0.00000  Uiso   1.00
O594   O     0.91355   0.70549   0.26822   0.00000  Uiso   1.00
C595   C     0.16627   0.24589   0.75053   0.00000  Uiso   1.00
C596   C     0.12474   0.16136   0.90724   0.00000  Uiso   1.00
C597   C     0.20501   0.31099   0.76034   0.00000  Uiso   1.00
C598   C     0.14058   0.16419   0.84994   0.00000  Uiso   1.00
C599   C     0.20757   0.02002   0.75780   0.00000  Uiso   1.00
C600   C     0.16766   0.04251   0.75030   0.00000  Uiso   1.00
C601   C     0.12740   0.02159   0.74307   0.00000  Uiso   1.00
C602   C     0.12666   0.31243   0.74299   0.00000  Uiso   1.00
C603   C     0.16574   0.29037   0.75133   0.00000  Uiso   1.00
C604   C     0.29909   0.18959   0.78622   0.00000  Uiso   1.00
C605   C     0.01505   0.18901   0.78618   0.00000  Uiso   1.00
C606   C     0.14488   0.15790   0.98950   0.00000  Uiso   1.00
C607   C     0.03526   0.14498   0.71292   0.00000  Uiso   1.00
C608   C     0.31913   0.14544   0.71256   0.00000  Uiso   1.00
C609   C     0.16695   0.08730   0.75018   0.00000  Uiso   1.00
C610   C     0.19285   0.16586   0.64998   0.00000  Uiso   1.00
C611   C     0.26453   0.13302   0.51367   0.00000  Uiso   1.00
C612   C     0.20783   0.16007   0.59328   0.00000  Uiso   1.00
C613   C     0.07688   0.17411   0.93467   0.00000  Uiso   1.00
C614   C     0.06234   0.17730   0.98865   0.00000  Uiso   1.00
C615   C     0.09591   0.17010   0.51592   0.00000  Uiso   1.00
C616   C     0.28618   0.04185   0.72160   0.00000  Uiso   1.00
C617   C     0.15761   0.14950   0.93523   0.00000  Uiso   1.00
C618   C     0.31830   0.00278   0.70906   0.00000  Uiso   1.00
C619   C     0.03146   0.00971   0.66419   0.00000  Uiso   1.00
C620   C     0.18147   0.15349   0.51523   0.00000  Uiso   1.00
C621   C     0.22847   0.13676   0.98787   0.00000  Uiso   1.00
C622   C     0.23794   0.12354   0.93577   0.00000  Uiso   1.00
C623   C     0.20244   0.12907   0.91061   0.00000  Uiso   1.00
C624   C     0.17289   0.16620   0.56730   0.00000  Uiso   1.00
C625   C     0.25412   0.14426   0.56610   0.00000  Uiso   1.00
Cu626  Cu    0.11978   0.16666   0.75000   0.00000  Uiso   1.00
Cu627  Cu    0.21355   0.16667   0.75000   0.00000  Uiso   1.00
H628   H     0.28172   0.13934   0.58572   0.00000  Uiso   1.00
H629   H     0.08189   0.17337   0.55774   0.00000  Uiso   1.00
H630   H     0.02516   0.18670   0.50947   0.00000  Uiso   1.00
H631   H     0.21036   0.11618   0.87167   0.00000  Uiso   1.00
H632   H     0.23425   0.29424   0.76921   0.00000  Uiso   1.00
H633   H     0.30962   0.06675   0.72843   0.00000  Uiso   1.00
H634   H     0.27376   0.05071   0.68751   0.00000  Uiso   1.00
H635   H     0.32850   0.32683   0.74418   0.00000  Uiso   1.00
H636   H     0.29815   0.31075   0.69709   0.00000  Uiso   1.00
H637   H     0.02195   0.01691   0.62801   0.00000  Uiso   1.00
H638   H     0.05477   0.31483   0.65706   0.00000  Uiso   1.00
H639   H     0.09643   0.03805   0.73730   0.00000  Uiso   1.00
H640   H     0.05262   0.03549   0.67368   0.00000  Uiso   1.00
H641   H     0.09560   0.29694   0.73646   0.00000  Uiso   1.00
H642   H     0.02614   0.20704   0.81478   0.00000  Uiso   1.00
H643   H     0.06223   0.12733   0.68334   0.00000  Uiso   1.00
H644   H     0.30906   0.12862   0.68237   0.00000  Uiso   1.00
H645   H     0.30061   0.12059   0.99415   0.00000  Uiso   1.00
H646   H     0.13901   0.18105   0.58893   0.00000  Uiso   1.00
H647   H     0.05074   0.18240   0.91433   0.00000  Uiso   1.00
I648   I     0.25404   0.23057   0.84307   0.00000  Uiso   1.00
I649   I     0.30521   0.09564   0.89077   0.00000  Uiso   1.00
N650   N     0.04931   0.16666   0.74999   0.00000  Uiso   1.00
N651   N     0.28402   0.16669   0.75000   0.00000  Uiso   1.00
O652   O     0.12708   0.22678   0.75001   0.00000  Uiso   1.00
O653   O     0.20627   0.22679   0.75001   0.00000  Uiso   1.00
O654   O     0.10775   0.16665   0.82549   0.00000  Uiso   1.00
O655   O     0.18694   0.16666   0.82549   0.00000  Uiso   1.00
O656   O     0.12706   0.10654   0.75000   0.00000  Uiso   1.00
O657   O     0.20625   0.10655   0.75000   0.00000  Uiso   1.00
O658   O     0.14640   0.16667   0.67451   0.00000  Uiso   1.00
O659   O     0.22559   0.16668   0.67451   0.00000  Uiso   1.00
O660   O     0.24689   0.03882   0.76822   0.00000  Uiso   1.00
C661   C     0.49960   0.24589   0.75053   0.00000  Uiso   1.00
C662   C     0.45808   0.16136   0.90724   0.00000  Uiso   1.00
C663   C     0.53834   0.31099   0.76034   0.00000  Uiso   1.00
C664   C     0.47391   0.16419   0.84994   0.00000  Uiso   1.00
C665   C     0.54090   0.02002   0.75780   0.00000  Uiso   1.00
C666   C     0.50099   0.04251   0.75030   0.00000  Uiso   1.00
C667   C     0.46073   0.02159   0.74307   0.00000  Uiso   1.00
C668   C     0.45999   0.31243   0.74299   0.00000  Uiso   1.00
C669   C     0.49907   0.29037   0.75133   0.00000  Uiso   1.00
C670   C     0.63242   0.18959   0.78622   0.00000  Uiso   1.00
C671   C     0.34838   0.18901   0.78618   0.00000  Uiso   1.00
C672   C     0.47822   0.15790   0.98950   0.00000  Uiso   1.00
C673   C     0.36860   0.14498   0.71292   0.00000  Uiso   1.00
C674   C     0.65247   0.14544   0.71256   0.00000  Uiso   1.00
C675   C     0.50029   0.08730   0.75018   0.00000  Uiso   1.00
C676   C     0.52619   0.16586   0.64998   0.00000  Uiso   1.00
C677   C     0.59787   0.13302   0.51367   0.00000  Uiso   1.00
C678   C     0.54116   0.16007   0.59328   0.00000  Uiso   1.00
C679   C     0.41022   0.17411   0.93467   0.00000  Uiso   1.00
C680   C     0.39568   0.17730   0.98865   0.00000  Uiso   1.00
C681   C     0.42924   0.17010   0.51592   0.00000  Uiso   1.00
C682   C     0.61951   0.04185   0.72160   0.00000  Uiso   1.00
C683   C     0.49094   0.14950   0.93523   0.00000  Uiso   1.00
C684   C     0.65163   0.00278   0.70906   0.00000  Uiso   1.00
C685   C     0.36479   0.00971   0.66419   0.00000  Uiso   1.00
C686   C     0.51480   0.15349   0.51523   0.00000  Uiso   1.00
C687   C     0.56180   0.13676   0.98787   0.00000  Uiso   1.00
C688   C     0.57127   0.12354   0.93577   0.00000  Uiso   1.00
C689   C     0.53577   0.12907   0.91061   0.00000  Uiso   1.00
C690   C     0.50622   0.16620   0.56730   0.00000  Uiso   1.00
C691   C     0.58746   0.14426   0.56610   0.00000  Uiso   1.00
Cu692  Cu    0.45311   0.16666   0.75000   0.00000  Uiso   1.00
Cu693  Cu    0.54689   0.16667   0.75000   0.00000  Uiso   1.00
H694   H     0.61505   0.13934   0.58572   0.00000  Uiso   1.00
H695   H     0.41522   0.17337   0.55774   0.00000  Uiso   1.00
H696   H     0.35849   0.18670   0.50947   0.00000  Uiso   1.00
H697   H     0.54370   0.11618   0.87167   0.00000  Uiso   1.00
H698   H     0.56758   0.29424   0.76921   0.00000  Uiso   1.00
H699   H     0.64295   0.06675   0.72843   0.00000  Uiso   1.00
H700   H     0.60709   0.05071   0.68751   0.00000  Uiso   1.00
H701   H     0.66183   0.32683   0.74418   0.00000  Uiso   1.00
H702   H     0.63149   0.31075   0.69709   0.00000  Uiso   1.00
H703   H     0.35529   0.01691   0.62801   0.00000  Uiso   1.00
H704   H     0.38810   0.31483   0.65706   0.00000  Uiso   1.00
H705   H     0.42977   0.03805   0.73730   0.00000  Uiso   1.00
H706   H     0.38596   0.03549   0.67368   0.00000  Uiso   1.00
H707   H     0.42893   0.29694   0.73646   0.00000  Uiso   1.00
H708   H     0.35947   0.20704   0.81478   0.00000  Uiso   1.00
H709   H     0.39557   0.12733   0.68334   0.00000  Uiso   1.00
H710   H     0.64239   0.12862   0.68237   0.00000  Uiso   1.00
H711   H     0.63395   0.12059   0.99415   0.00000  Uiso   1.00
H712   H     0.47234   0.18105   0.58893   0.00000  Uiso   1.00
H713   H     0.38407   0.18240   0.91433   0.00000  Uiso   1.00
I714   I     0.58737   0.23057   0.84307   0.00000  Uiso   1.00
I715   I     0.63854   0.09564   0.89077   0.00000  Uiso   1.00
N716   N     0.38265   0.16666   0.74999   0.00000  Uiso   1.00
N717   N     0.61735   0.16669   0.75000   0.00000  Uiso   1.00
O718   O     0.46042   0.22678   0.75001   0.00000  Uiso   1.00
O719   O     0.53961   0.22679   0.75001   0.00000  Uiso   1.00
O720   O     0.44108   0.16665   0.82549   0.00000  Uiso   1.00
O721   O     0.52027   0.16666   0.82549   0.00000  Uiso   1.00
O722   O     0.46039   0.10654   0.75000   0.00000  Uiso   1.00
O723   O     0.53958   0.10655   0.75000   0.00000  Uiso   1.00
O724   O     0.47973   0.16667   0.67451   0.00000  Uiso   1.00
O725   O     0.55892   0.16668   0.67451   0.00000  Uiso   1.00
O726   O     0.58022   0.03882   0.76822   0.00000  Uiso   1.00
C727   C     0.83294   0.24589   0.75053   0.00000  Uiso   1.00
C728   C     0.79141   0.16136   0.90724   0.00000  Uiso   1.00
C729   C     0.87167   0.31099   0.76034   0.00000  Uiso   1.00
C730   C     0.80725   0.16419   0.84994   0.00000  Uiso   1.00
C731   C     0.87424   0.02002   0.75780   0.00000  Uiso   1.00
C732   C     0.83432   0.04251   0.75030   0.00000  Uiso   1.00
C733   C     0.79407   0.02159   0.74307   0.00000  Uiso   1.00
C734   C     0.79333   0.31243   0.74299   0.00000  Uiso   1.00
C735   C     0.83241   0.29037   0.75133   0.00000  Uiso   1.00
C736   C     0.96575   0.18959   0.78622   0.00000  Uiso   1.00
C737   C     0.68171   0.18901   0.78618   0.00000  Uiso   1.00
C738   C     0.81155   0.15790   0.98950   0.00000  Uiso   1.00
C739   C     0.70193   0.14498   0.71292   0.00000  Uiso   1.00
C740   C     0.98580   0.14544   0.71256   0.00000  Uiso   1.00
C741   C     0.83362   0.08730   0.75018   0.00000  Uiso   1.00
C742   C     0.85952   0.16586   0.64998   0.00000  Uiso   1.00
C743   C     0.93120   0.13302   0.51367   0.00000  Uiso   1.00
C744   C     0.87450   0.16007   0.59328   0.00000  Uiso   1.00
C745   C     0.74355   0.17411   0.93467   0.00000  Uiso   1.00
C746   C     0.72901   0.17730   0.98865   0.00000  Uiso   1.00
C747   C     0.76257   0.17010   0.51592   0.00000  Uiso   1.00
C748   C     0.95284   0.04185   0.72160   0.00000  Uiso   1.00
C749   C     0.82427   0.14950   0.93523   0.00000  Uiso   1.00
C750   C     0.98497   0.00278   0.70906   0.00000  Uiso   1.00
C751   C     0.69812   0.00971   0.66419   0.00000  Uiso   1.00
C752   C     0.84814   0.15349   0.51523   0.00000  Uiso   1.00
C753   C     0.89514   0.13676   0.98787   0.00000  Uiso   1.00
C754   C     0.90460   0.12354   0.93577   0.00000  Uiso   1.00
C755   C     0.86910   0.12907   0.91061   0.00000  Uiso   1.00
C756   C     0.83955   0.16620   0.56730   0.00000  Uiso   1.00
C757   C     0.92079   0.14426   0.56610   0.00000  Uiso   1.00
Cu758  Cu    0.78645   0.16666   0.75000   0.00000  Uiso   1.00
Cu759  Cu    0.88022   0.16667   0.75000   0.00000  Uiso   1.00
H760   H     0.94839   0.13934   0.58572   0.00000  Uiso   1.00
H761   H     0.74856   0.17337   0.55774   0.00000  Uiso   1.00
H762   H     0.69182   0.18670   0.50947   0.00000  Uiso   1.00
H763   H     0.87703   0.11618   0.87167   0.00000  Uiso   1.00
H764   H     0.90092   0.29424   0.76921   0.00000  Uiso   1.00
H765   H     0.97628   0.06675   0.72843   0.00000  Uiso   1.00
H766   H     0.94042   0.05071   0.68751   0.00000  Uiso   1.00
H767   H     0.99517   0.32683   0.74418   0.00000  Uiso   1.00
H768   H     0.96482   0.31075   0.69709   0.00000  Uiso   1.00
H769   H     0.68862   0.01691   0.62801   0.00000  Uiso   1.00
H770   H     0.72143   0.31483   0.65706   0.00000  Uiso   1.00
H771   H     0.76310   0.03805   0.73730   0.00000  Uiso   1.00
H772   H     0.71929   0.03549   0.67368   0.00000  Uiso   1.00
H773   H     0.76227   0.29694   0.73646   0.00000  Uiso   1.00
H774   H     0.69280   0.20704   0.81478   0.00000  Uiso   1.00
H775   H     0.72890   0.12733   0.68334   0.00000  Uiso   1.00
H776   H     0.97573   0.12862   0.68237   0.00000  Uiso   1.00
H777   H     0.96728   0.12059   0.99415   0.00000  Uiso   1.00
H778   H     0.80568   0.18105   0.58893   0.00000  Uiso   1.00
H779   H     0.71741   0.18240   0.91433   0.00000  Uiso   1.00
I780   I     0.92070   0.23057   0.84307   0.00000  Uiso   1.00
I781   I     0.97187   0.09564   0.89077   0.00000  Uiso   1.00
N782   N     0.71598   0.16666   0.74999   0.00000  Uiso   1.00
N783   N     0.95069   0.16669   0.75000   0.00000  Uiso   1.00
O784   O     0.79375   0.22678   0.75001   0.00000  Uiso   1.00
O785   O     0.87294   0.22679   0.75001   0.00000  Uiso   1.00
O786   O     0.77441   0.16665   0.82549   0.00000  Uiso   1.00
O787   O     0.85360   0.16666   0.82549   0.00000  Uiso   1.00
O788   O     0.79373   0.10654   0.75000   0.00000  Uiso   1.00
O789   O     0.87292   0.10655   0.75000   0.00000  Uiso   1.00
O790   O     0.81306   0.16667   0.67451   0.00000  Uiso   1.00
O791   O     0.89225   0.16668   0.67451   0.00000  Uiso   1.00
O792   O     0.91355   0.03882   0.76822   0.00000  Uiso   1.00
C793   C     0.16627   0.57923   0.75053   0.00000  Uiso   1.00
C794   C     0.12474   0.49469   0.90724   0.00000  Uiso   1.00
C795   C     0.20501   0.64432   0.76034   0.00000  Uiso   1.00
C796   C     0.14058   0.49753   0.84994   0.00000  Uiso   1.00
C797   C     0.20757   0.35335   0.75780   0.00000  Uiso   1.00
C798   C     0.16766   0.37584   0.75030   0.00000  Uiso   1.00
C799   C     0.12740   0.35492   0.74307   0.00000  Uiso   1.00
C800   C     0.12666   0.64576   0.74299   0.00000  Uiso   1.00
C801   C     0.16574   0.62371   0.75133   0.00000  Uiso   1.00
C802   C     0.29909   0.52292   0.78622   0.00000  Uiso   1.00
C803   C     0.01505   0.52234   0.78618   0.00000  Uiso   1.00
C804   C     0.14488   0.49124   0.98950   0.00000  Uiso   1.00
C805   C     0.03526   0.47831   0.71292   0.00000  Uiso   1.00
C806   C     0.31913   0.47877   0.71256   0.00000  Uiso   1.00
C807   C     0.16695   0.42063   0.75018   0.00000  Uiso   1.00
C808   C     0.19285   0.49920   0.64998   0.00000  Uiso   1.00
C809   C     0.26453   0.46635   0.51367   0.00000  Uiso   1.00
C810   C     0.20783   0.49340   0.59328   0.00000  Uiso   1.00
C811   C     0.07688   0.50744   0.93467   0.00000  Uiso   1.00
C812   C     0.06234   0.51063   0.98865   0.00000  Uiso   1.00
C813   C     0.09591   0.50343   0.51592   0.00000  Uiso   1.00
C814   C     0.28618   0.37518   0.72160   0.00000  Uiso   1.00
C815   C     0.15761   0.48283   0.93523   0.00000  Uiso   1.00
C816   C     0.31830   0.33611   0.70906   0.00000  Uiso   1.00
C817   C     0.03146   0.34305   0.66419   0.00000  Uiso   1.00
C818   C     0.18147   0.48682   0.51523   0.00000  Uiso   1.00
C819   C     0.22847   0.47009   0.98787   0.00000  Uiso   1.00
C820   C     0.23794   0.45688   0.93577   0.00000  Uiso   1.00
C821   C     0.20244   0.46241   0.91061   0.00000  Uiso   1.00
C822   C     0.17289   0.49953   0.56730   0.00000  Uiso   1.00
C823   C     0.25412   0.47759   0.56610   0.00000  Uiso   1.00
Cu824  Cu    0.11978   0.49999   0.75000   0.00000  Uiso   1.00
Cu825  Cu    0.21355   0.50001   0.75000   0.00000  Uiso   1.00
H826   H     0.28172   0.47267   0.58572   0.00000  Uiso   1.00
H827   H     0.08189   0.50671   0.55774   0.00000  Uiso   1.00
H828   H     0.02516   0.52003   0.50947   0.00000  Uiso   1.00
H829   H     0.21036   0.44952   0.87167   0.00000  Uiso   1.00
H830   H     0.23425   0.62757   0.76921   0.00000  Uiso   1.00
H831   H     0.30962   0.40008   0.72843   0.00000  Uiso   1.00
H832   H     0.27376   0.38405   0.68751   0.00000  Uiso   1.00
H833   H     0.32850   0.66016   0.74418   0.00000  Uiso   1.00
H834   H     0.29815   0.64408   0.69709   0.00000  Uiso   1.00
H835   H     0.02195   0.35024   0.62801   0.00000  Uiso   1.00
H836   H     0.05477   0.64816   0.65706   0.00000  Uiso   1.00
H837   H     0.09643   0.37138   0.73730   0.00000  Uiso   1.00
H838   H     0.05262   0.36883   0.67368   0.00000  Uiso   1.00
H839   H     0.09560   0.63027   0.73646   0.00000  Uiso   1.00
H840   H     0.02614   0.54037   0.81478   0.00000  Uiso   1.00
H841   H     0.06223   0.46067   0.68334   0.00000  Uiso   1.00
H842   H     0.30906   0.46195   0.68237   0.00000  Uiso   1.00
H843   H     0.30061   0.45393   0.99415   0.00000  Uiso   1.00
H844   H     0.13901   0.51438   0.58893   0.00000  Uiso   1.00
H845   H     0.05074   0.51574   0.91433   0.00000  Uiso   1.00
I846   I     0.25404   0.56391   0.84307   0.00000  Uiso   1.00
I847   I     0.30521   0.42898   0.89077   0.00000  Uiso   1.00
N848   N     0.04931   0.49999   0.74999   0.00000  Uiso   1.00
N849   N     0.28402   0.50002   0.75000   0.00000  Uiso   1.00
O850   O     0.12708   0.56011   0.75001   0.00000  Uiso   1.00
O851   O     0.20627   0.56012   0.75001   0.00000  Uiso   1.00
O852   O     0.10775   0.49998   0.82549   0.00000  Uiso   1.00
O853   O     0.18694   0.49999   0.82549   0.00000  Uiso   1.00
O854   O     0.12706   0.43988   0.75000   0.00000  Uiso   1.00
O855   O     0.20625   0.43989   0.75000   0.00000  Uiso   1.00
O856   O     0.14640   0.50001   0.67451   0.00000  Uiso   1.00
O857   O     0.22559   0.50002   0.67451   0.00000  Uiso   1.00
O858   O     0.24689   0.37216   0.76822   0.00000  Uiso   1.00
C859   C     0.49960   0.57923   0.75053   0.00000  Uiso   1.00
C860   C     0.45808   0.49469   0.90724   0.00000  Uiso   1.00
C861   C     0.53834   0.64432   0.76034   0.00000  Uiso   1.00
C862   C     0.47391   0.49753   0.84994   0.00000  Uiso   1.00
C863   C     0.54090   0.35335   0.75780   0.00000  Uiso   1.00
C864   C     0.50099   0.37584   0.75030   0.00000  Uiso   1.00
C865   C     0.46073   0.35492   0.74307   0.00000  Uiso   1.00
C866   C     0.45999   0.64576   0.74299   0.00000  Uiso   1.00
C867   C     0.49907   0.62371   0.75133   0.00000  Uiso   1.00
C868   C     0.63242   0.52292   0.78622   0.00000  Uiso   1.00
C869   C     0.34838   0.52234   0.78618   0.00000  Uiso   1.00
C870   C     0.47822   0.49124   0.98950   0.00000  Uiso   1.00
C871   C     0.36860   0.47831   0.71292   0.00000  Uiso   1.00
C872   C     0.65247   0.47877   0.71256   0.00000  Uiso   1.00
C873   C     0.50029   0.42063   0.75018   0.00000  Uiso   1.00
C874   C     0.52619   0.49920   0.64998   0.00000  Uiso   1.00
C875   C     0.59787   0.46635   0.51367   0.00000  Uiso   1.00
C876   C     0.54116   0.49340   0.59328   0.00000  Uiso   1.00
C877   C     0.41022   0.50744   0.93467   0.00000  Uiso   1.00
C878   C     0.39568   0.51063   0.98865   0.00000  Uiso   1.00
C879   C     0.42924   0.50343   0.51592   0.00000  Uiso   1.00
C880   C     0.61951   0.37518   0.72160   0.00000  Uiso   1.00
C881   C     0.49094   0.48283   0.93523   0.00000  Uiso   1.00
C882   C     0.65163   0.33611   0.70906   0.00000  Uiso   1.00
C883   C     0.36479   0.34305   0.66419   0.00000  Uiso   1.00
C884   C     0.51480   0.48682   0.51523   0.00000  Uiso   1.00
C885   C     0.56180   0.47009   0.98787   0.00000  Uiso   1.00
C886   C     0.57127   0.45688   0.93577   0.00000  Uiso   1.00
C887   C     0.53577   0.46241   0.91061   0.00000  Uiso   1.00
C888   C     0.50622   0.49953   0.56730   0.00000  Uiso   1.00
C889   C     0.58746   0.47759   0.56610   0.00000  Uiso   1.00
Cu890  Cu    0.45311   0.49999   0.75000   0.00000  Uiso   1.00
Cu891  Cu    0.54689   0.50001   0.75000   0.00000  Uiso   1.00
H892   H     0.61505   0.47267   0.58572   0.00000  Uiso   1.00
H893   H     0.41522   0.50671   0.55774   0.00000  Uiso   1.00
H894   H     0.35849   0.52003   0.50947   0.00000  Uiso   1.00
H895   H     0.54370   0.44952   0.87167   0.00000  Uiso   1.00
H896   H     0.56758   0.62757   0.76921   0.00000  Uiso   1.00
H897   H     0.64295   0.40008   0.72843   0.00000  Uiso   1.00
H898   H     0.60709   0.38405   0.68751   0.00000  Uiso   1.00
H899   H     0.66183   0.66016   0.74418   0.00000  Uiso   1.00
H900   H     0.63149   0.64408   0.69709   0.00000  Uiso   1.00
H901   H     0.35529   0.35024   0.62801   0.00000  Uiso   1.00
H902   H     0.38810   0.64816   0.65706   0.00000  Uiso   1.00
H903   H     0.42977   0.37138   0.73730   0.00000  Uiso   1.00
H904   H     0.38596   0.36883   0.67368   0.00000  Uiso   1.00
H905   H     0.42893   0.63027   0.73646   0.00000  Uiso   1.00
H906   H     0.35947   0.54037   0.81478   0.00000  Uiso   1.00
H907   H     0.39557   0.46067   0.68334   0.00000  Uiso   1.00
H908   H     0.64239   0.46195   0.68237   0.00000  Uiso   1.00
H909   H     0.63395   0.45393   0.99415   0.00000  Uiso   1.00
H910   H     0.47234   0.51438   0.58893   0.00000  Uiso   1.00
H911   H     0.38407   0.51574   0.91433   0.00000  Uiso   1.00
I912   I     0.58737   0.56391   0.84307   0.00000  Uiso   1.00
I913   I     0.63854   0.42898   0.89077   0.00000  Uiso   1.00
N914   N     0.38265   0.49999   0.74999   0.00000  Uiso   1.00
N915   N     0.61735   0.50002   0.75000   0.00000  Uiso   1.00
O916   O     0.46042   0.56011   0.75001   0.00000  Uiso   1.00
O917   O     0.53961   0.56012   0.75001   0.00000  Uiso   1.00
O918   O     0.44108   0.49998   0.82549   0.00000  Uiso   1.00
O919   O     0.52027   0.49999   0.82549   0.00000  Uiso   1.00
O920   O     0.46039   0.43988   0.75000   0.00000  Uiso   1.00
O921   O     0.53958   0.43989   0.75000   0.00000  Uiso   1.00
O922   O     0.47973   0.50001   0.67451   0.00000  Uiso   1.00
O923   O     0.55892   0.50002   0.67451   0.00000  Uiso   1.00
O924   O     0.58022   0.37216   0.76822   0.00000  Uiso   1.00
C925   C     0.83294   0.57923   0.75053   0.00000  Uiso   1.00
C926   C     0.79141   0.49469   0.90724   0.00000  Uiso   1.00
C927   C     0.87167   0.64432   0.76034   0.00000  Uiso   1.00
C928   C     0.80725   0.49753   0.84994   0.00000  Uiso   1.00
C929   C     0.87424   0.35335   0.75780   0.00000  Uiso   1.00
C930   C     0.83432   0.37584   0.75030   0.00000  Uiso   1.00
C931   C     0.79407   0.35492   0.74307   0.00000  Uiso   1.00
C932   C     0.79333   0.64576   0.74299   0.00000  Uiso   1.00
C933   C     0.83241   0.62371   0.75133   0.00000  Uiso   1.00
C934   C     0.96575   0.52292   0.78622   0.00000  Uiso   1.00
C935   C     0.68171   0.52234   0.78618   0.00000  Uiso   1.00
C936   C     0.81155   0.49124   0.98950   0.00000  Uiso   1.00
C937   C     0.70193   0.47831   0.71292   0.00000  Uiso   1.00
C938   C     0.98580   0.47877   0.71256   0.00000  Uiso   1.00
C939   C     0.83362   0.42063   0.75018   0.00000  Uiso   1.00
C940   C     0.85952   0.49920   0.64998   0.00000  Uiso   1.00
C941   C     0.93120   0.46635   0.51367   0.00000  Uiso   1.00
C942   C     0.87450   0.49340   0.59328   0.00000  Uiso   1.00
C943   C     0.74355   0.50744   0.93467   0.00000  Uiso   1.00
C944   C     0.72901   0.51063   0.98865   0.00000  Uiso   1.00
C945   C     0.76257   0.50343   0.51592   0.00000  Uiso   1.00
C946   C     0.95284   0.37518   0.72160   0.00000  Uiso   1.00
C947   C     0.82427   0.48283   0.93523   0.00000  Uiso   1.00
C948   C     0.98497   0.33611   0.70906   0.00000  Uiso   1.00
C949   C     0.69812   0.34305   0.66419   0.00000  Uiso   1.00
C950   C     0.84814   0.48682   0.51523   0.00000  Uiso   1.00
C951   C     0.89514   0.47009   0.98787   0.00000  Uiso   1.00
C952   C     0.90460   0.45688   0.93577   0.00000  Uiso   1.00
C953   C     0.86910   0.46241   0.91061   0.00000  Uiso   1.00
C954   C     0.83955   0.49953   0.56730   0.00000  Uiso   1.00
C955   C     0.92079   0.47759   0.56610   0.00000  Uiso   1.00
Cu956  Cu    0.78645   0.49999   0.75000   0.00000  Uiso   1.00
Cu957  Cu    0.88022   0.50001   0.75000   0.00000  Uiso   1.00
H958   H     0.94839   0.47267   0.58572   0.00000  Uiso   1.00
H959   H     0.74856   0.50671   0.55774   0.00000  Uiso   1.00
H960   H     0.69182   0.52003   0.50947   0.00000  Uiso   1.00
H961   H     0.87703   0.44952   0.87167   0.00000  Uiso   1.00
H962   H     0.90092   0.62757   0.76921   0.00000  Uiso   1.00
H963   H     0.97628   0.40008   0.72843   0.00000  Uiso   1.00
H964   H     0.94042   0.38405   0.68751   0.00000  Uiso   1.00
H965   H     0.99517   0.66016   0.74418   0.00000  Uiso   1.00
H966   H     0.96482   0.64408   0.69709   0.00000  Uiso   1.00
H967   H     0.68862   0.35024   0.62801   0.00000  Uiso   1.00
H968   H     0.72143   0.64816   0.65706   0.00000  Uiso   1.00
H969   H     0.76310   0.37138   0.73730   0.00000  Uiso   1.00
H970   H     0.71929   0.36883   0.67368   0.00000  Uiso   1.00
H971   H     0.76227   0.63027   0.73646   0.00000  Uiso   1.00
H972   H     0.69280   0.54037   0.81478   0.00000  Uiso   1.00
H973   H     0.72890   0.46067   0.68334   0.00000  Uiso   1.00
H974   H     0.97573   0.46195   0.68237   0.00000  Uiso   1.00
H975   H     0.96728   0.45393   0.99415   0.00000  Uiso   1.00
H976   H     0.80568   0.51438   0.58893   0.00000  Uiso   1.00
H977   H     0.71741   0.51574   0.91433   0.00000  Uiso   1.00
I978   I     0.92070   0.56391   0.84307   0.00000  Uiso   1.00
I979   I     0.97187   0.42898   0.89077   0.00000  Uiso   1.00
N980   N     0.71598   0.49999   0.74999   0.00000  Uiso   1.00
N981   N     0.95069   0.50002   0.75000   0.00000  Uiso   1.00
O982   O     0.79375   0.56011   0.75001   0.00000  Uiso   1.00
O983   O     0.87294   0.56012   0.75001   0.00000  Uiso   1.00
O984   O     0.77441   0.49998   0.82549   0.00000  Uiso   1.00
O985   O     0.85360   0.49999   0.82549   0.00000  Uiso   1.00
O986   O     0.79373   0.43988   0.75000   0.00000  Uiso   1.00
O987   O     0.87292   0.43989   0.75000   0.00000  Uiso   1.00
O988   O     0.81306   0.50001   0.67451   0.00000  Uiso   1.00
O989   O     0.89225   0.50002   0.67451   0.00000  Uiso   1.00
O990   O     0.91355   0.37216   0.76822   0.00000  Uiso   1.00
C991   C     0.16627   0.91256   0.75053   0.00000  Uiso   1.00
C992   C     0.12474   0.82803   0.90724   0.00000  Uiso   1.00
C993   C     0.20501   0.97766   0.76034   0.00000  Uiso   1.00
C994   C     0.14058   0.83086   0.84994   0.00000  Uiso   1.00
C995   C     0.20757   0.68668   0.75780   0.00000  Uiso   1.00
C996   C     0.16766   0.70917   0.75030   0.00000  Uiso   1.00
C997   C     0.12740   0.68826   0.74307   0.00000  Uiso   1.00
C998   C     0.12666   0.97909   0.74299   0.00000  Uiso   1.00
C999   C     0.16574   0.95704   0.75133   0.00000  Uiso   1.00
C1000  C     0.29909   0.85626   0.78622   0.00000  Uiso   1.00
C1001  C     0.01505   0.85567   0.78618   0.00000  Uiso   1.00
C1002  C     0.14488   0.82457   0.98950   0.00000  Uiso   1.00
C1003  C     0.03526   0.81165   0.71292   0.00000  Uiso   1.00
C1004  C     0.31913   0.81211   0.71256   0.00000  Uiso   1.00
C1005  C     0.16695   0.75396   0.75018   0.00000  Uiso   1.00
C1006  C     0.19285   0.83253   0.64998   0.00000  Uiso   1.00
C1007  C     0.26453   0.79968   0.51367   0.00000  Uiso   1.00
C1008  C     0.20783   0.82673   0.59328   0.00000  Uiso   1.00
C1009  C     0.07688   0.84078   0.93467   0.00000  Uiso   1.00
C1010  C     0.06234   0.84397   0.98865   0.00000  Uiso   1.00
C1011  C     0.09591   0.83677   0.51592   0.00000  Uiso   1.00
C1012  C     0.28618   0.70852   0.72160   0.00000  Uiso   1.00
C1013  C     0.15761   0.81616   0.93523   0.00000  Uiso   1.00
C1014  C     0.31830   0.66944   0.70906   0.00000  Uiso   1.00
C1015  C     0.03146   0.67638   0.66419   0.00000  Uiso   1.00
C1016  C     0.18147   0.82016   0.51523   0.00000  Uiso   1.00
C1017  C     0.22847   0.80343   0.98787   0.00000  Uiso   1.00
C1018  C     0.23794   0.79021   0.93577   0.00000  Uiso   1.00
C1019  C     0.20244   0.79574   0.91061   0.00000  Uiso   1.00
C1020  C     0.17289   0.83286   0.56730   0.00000  Uiso   1.00
C1021  C     0.25412   0.81092   0.56610   0.00000  Uiso   1.00
Cu1022 Cu    0.11978   0.83333   0.75000   0.00000  Uiso   1.00
Cu1023 Cu    0.21355   0.83334   0.75000   0.00000  Uiso   1.00
H1024  H     0.28172   0.80600   0.58572   0.00000  Uiso   1.00
H1025  H     0.08189   0.84004   0.55774   0.00000  Uiso   1.00
H1026  H     0.02516   0.85336   0.50947   0.00000  Uiso   1.00
H1027  H     0.21036   0.78285   0.87167   0.00000  Uiso   1.00
H1028  H     0.23425   0.96091   0.76921   0.00000  Uiso   1.00
H1029  H     0.30962   0.73341   0.72843   0.00000  Uiso   1.00
H1030  H     0.27376   0.71738   0.68751   0.00000  Uiso   1.00
H1031  H     0.32850   0.99350   0.74418   0.00000  Uiso   1.00
H1032  H     0.29815   0.97741   0.69709   0.00000  Uiso   1.00
H1033  H     0.02195   0.68357   0.62801   0.00000  Uiso   1.00
H1034  H     0.05477   0.98150   0.65706   0.00000  Uiso   1.00
H1035  H     0.09643   0.70472   0.73730   0.00000  Uiso   1.00
H1036  H     0.05262   0.70216   0.67368   0.00000  Uiso   1.00
H1037  H     0.09560   0.96361   0.73646   0.00000  Uiso   1.00
H1038  H     0.02614   0.87370   0.81478   0.00000  Uiso   1.00
H1039  H     0.06223   0.79400   0.68334   0.00000  Uiso   1.00
H1040  H     0.30906   0.79529   0.68237   0.00000  Uiso   1.00
H1041  H     0.30061   0.78726   0.99415   0.00000  Uiso   1.00
H1042  H     0.13901   0.84771   0.58893   0.00000  Uiso   1.00
H1043  H     0.05074   0.84907   0.91433   0.00000  Uiso   1.00
I1044  I     0.25404   0.89724   0.84307   0.00000  Uiso   1.00
I1045  I     0.30521   0.76231   0.89077   0.00000  Uiso   1.00
N1046  N     0.04931   0.83332   0.74999   0.00000  Uiso   1.00
N1047  N     0.28402   0.83335   0.75000   0.00000  Uiso   1.00
O1048  O     0.12708   0.89345   0.75001   0.00000  Uiso   1.00
O1049  O     0.20627   0.89346   0.75001   0.00000  Uiso   1.00
O1050  O     0.10775   0.83332   0.82549   0.00000  Uiso   1.00
O1051  O     0.18694   0.83333   0.82549   0.00000  Uiso   1.00
O1052  O     0.12706   0.77321   0.75000   0.00000  Uiso   1.00
O1053  O     0.20625   0.77322   0.75000   0.00000  Uiso   1.00
O1054  O     0.14640   0.83334   0.67451   0.00000  Uiso   1.00
O1055  O     0.22559   0.83335   0.67451   0.00000  Uiso   1.00
O1056  O     0.24689   0.70549   0.76822   0.00000  Uiso   1.00
C1057  C     0.49960   0.91256   0.75053   0.00000  Uiso   1.00
C1058  C     0.45808   0.82803   0.90724   0.00000  Uiso   1.00
C1059  C     0.53834   0.97766   0.76034   0.00000  Uiso   1.00
C1060  C     0.47391   0.83086   0.84994   0.00000  Uiso   1.00
C1061  C     0.54090   0.68668   0.75780   0.00000  Uiso   1.00
C1062  C     0.50099   0.70917   0.75030   0.00000  Uiso   1.00
C1063  C     0.46073   0.68826   0.74307   0.00000  Uiso   1.00
C1064  C     0.45999   0.97909   0.74299   0.00000  Uiso   1.00
C1065  C     0.49907   0.95704   0.75133   0.00000  Uiso   1.00
C1066  C     0.63242   0.85626   0.78622   0.00000  Uiso   1.00
C1067  C     0.34838   0.85567   0.78618   0.00000  Uiso   1.00
C1068  C     0.47822   0.82457   0.98950   0.00000  Uiso   1.00
C1069  C     0.36860   0.81165   0.71292   0.00000  Uiso   1.00
C1070  C     0.65247   0.81211   0.71256   0.00000  Uiso   1.00
C1071  C     0.50029   0.75396   0.75018   0.00000  Uiso   1.00
C1072  C     0.52619   0.83253   0.64998   0.00000  Uiso   1.00
C1073  C     0.59787   0.79968   0.51367   0.00000  Uiso   1.00
C1074  C     0.54116   0.82673   0.59328   0.00000  Uiso   1.00
C1075  C     0.41022   0.84078   0.93467   0.00000  Uiso   1.00
C1076  C     0.39568   0.84397   0.98865   0.00000  Uiso   1.00
C1077  C     0.42924   0.83677   0.51592   0.00000  Uiso   1.00
C1078  C     0.61951   0.70852   0.72160   0.00000  Uiso   1.00
C1079  C     0.49094   0.81616   0.93523   0.00000  Uiso   1.00
C1080  C     0.65163   0.66944   0.70906   0.00000  Uiso   1.00
C1081  C     0.36479   0.67638   0.66419   0.00000  Uiso   1.00
C1082  C     0.51480   0.82016   0.51523   0.00000  Uiso   1.00
C1083  C     0.56180   0.80343   0.98787   0.00000  Uiso   1.00
C1084  C     0.57127   0.79021   0.93577   0.00000  Uiso   1.00
C1085  C     0.53577   0.79574   0.91061   0.00000  Uiso   1.00
C1086  C     0.50622   0.83286   0.56730   0.00000  Uiso   1.00
C1087  C     0.58746   0.81092   0.56610   0.00000  Uiso   1.00
Cu1088 Cu    0.45311   0.83333   0.75000   0.00000  Uiso   1.00
Cu1089 Cu    0.54689   0.83334   0.75000   0.00000  Uiso   1.00
H1090  H     0.61505   0.80600   0.58572   0.00000  Uiso   1.00
H1091  H     0.41522   0.84004   0.55774   0.00000  Uiso   1.00
H1092  H     0.35849   0.85336   0.50947   0.00000  Uiso   1.00
H1093  H     0.54370   0.78285   0.87167   0.00000  Uiso   1.00
H1094  H     0.56758   0.96091   0.76921   0.00000  Uiso   1.00
H1095  H     0.64295   0.73341   0.72843   0.00000  Uiso   1.00
H1096  H     0.60709   0.71738   0.68751   0.00000  Uiso   1.00
H1097  H     0.66183   0.99350   0.74418   0.00000  Uiso   1.00
H1098  H     0.63149   0.97741   0.69709   0.00000  Uiso   1.00
H1099  H     0.35529   0.68357   0.62801   0.00000  Uiso   1.00
H1100  H     0.38810   0.98150   0.65706   0.00000  Uiso   1.00
H1101  H     0.42977   0.70472   0.73730   0.00000  Uiso   1.00
H1102  H     0.38596   0.70216   0.67368   0.00000  Uiso   1.00
H1103  H     0.42893   0.96361   0.73646   0.00000  Uiso   1.00
H1104  H     0.35947   0.87370   0.81478   0.00000  Uiso   1.00
H1105  H     0.39557   0.79400   0.68334   0.00000  Uiso   1.00
H1106  H     0.64239   0.79529   0.68237   0.00000  Uiso   1.00
H1107  H     0.63395   0.78726   0.99415   0.00000  Uiso   1.00
H1108  H     0.47234   0.84771   0.58893   0.00000  Uiso   1.00
H1109  H     0.38407   0.84907   0.91433   0.00000  Uiso   1.00
I1110  I     0.58737   0.89724   0.84307   0.00000  Uiso   1.00
I1111  I     0.63854   0.76231   0.89077   0.00000  Uiso   1.00
N1112  N     0.38265   0.83332   0.74999   0.00000  Uiso   1.00
N1113  N     0.61735   0.83335   0.75000   0.00000  Uiso   1.00
O1114  O     0.46042   0.89345   0.75001   0.00000  Uiso   1.00
O1115  O     0.53961   0.89346   0.75001   0.00000  Uiso   1.00
O1116  O     0.44108   0.83332   0.82549   0.00000  Uiso   1.00
O1117  O     0.52027   0.83333   0.82549   0.00000  Uiso   1.00
O1118  O     0.46039   0.77321   0.75000   0.00000  Uiso   1.00
O1119  O     0.53958   0.77322   0.75000   0.00000  Uiso   1.00
O1120  O     0.47973   0.83334   0.67451   0.00000  Uiso   1.00
O1121  O     0.55892   0.83335   0.67451   0.00000  Uiso   1.00
O1122  O     0.58022   0.70549   0.76822   0.00000  Uiso   1.00
C1123  C     0.83294   0.91256   0.75053   0.00000  Uiso   1.00
C1124  C     0.79141   0.82803   0.90724   0.00000  Uiso   1.00
C1125  C     0.87167   0.97766   0.76034   0.00000  Uiso   1.00
C1126  C     0.80725   0.83086   0.84994   0.00000  Uiso   1.00
C1127  C     0.87424   0.68668   0.75780   0.00000  Uiso   1.00
C1128  C     0.83432   0.70917   0.75030   0.00000  Uiso   1.00
C1129  C     0.79407   0.68826   0.74307   0.00000  Uiso   1.00
C1130  C     0.79333   0.97909   0.74299   0.00000  Uiso   1.00
C1131  C     0.83241   0.95704   0.75133   0.00000  Uiso   1.00
C1132  C     0.96575   0.85626   0.78622   0.00000  Uiso   1.00
C1133  C     0.68171   0.85567   0.78618   0.00000  Uiso   1.00
C1134  C     0.81155   0.82457   0.98950   0.00000  Uiso   1.00
C1135  C     0.70193   0.81165   0.71292   0.00000  Uiso   1.00
C1136  C     0.98580   0.81211   0.71256   0.00000  Uiso   1.00
C1137  C     0.83362   0.75396   0.75018   0.00000  Uiso   1.00
C1138  C     0.85952   0.83253   0.64998   0.00000  Uiso   1.00
C1139  C     0.93120   0.79968   0.51367   0.00000  Uiso   1.00
C1140  C     0.87450   0.82673   0.59328   0.00000  Uiso   1.00
C1141  C     0.74355   0.84078   0.93467   0.00000  Uiso   1.00
C1142  C     0.72901   0.84397   0.98865   0.00000  Uiso   1.00
C1143  C     0.76257   0.83677   0.51592   0.00000  Uiso   1.00
C1144  C     0.95284   0.70852   0.72160   0.00000  Uiso   1.00
C1145  C     0.82427   0.81616   0.93523   0.00000  Uiso   1.00
C1146  C     0.98497   0.66944   0.70906   0.00000  Uiso   1.00
C1147  C     0.69812   0.67638   0.66419   0.00000  Uiso   1.00
C1148  C     0.84814   0.82016   0.51523   0.00000  Uiso   1.00
C1149  C     0.89514   0.80343   0.98787   0.00000  Uiso   1.00
C1150  C     0.90460   0.79021   0.93577   0.00000  Uiso   1.00
C1151  C     0.86910   0.79574   0.91061   0.00000  Uiso   1.00
C1152  C     0.83955   0.83286   0.56730   0.00000  Uiso   1.00
C1153  C     0.92079   0.81092   0.56610   0.00000  Uiso   1.00
Cu1154 Cu    0.78645   0.83333   0.75000   0.00000  Uiso   1.00
Cu1155 Cu    0.88022   0.83334   0.75000   0.00000  Uiso   1.00
H1156  H     0.94839   0.80600   0.58572   0.00000  Uiso   1.00
H1157  H     0.74856   0.84004   0.55774   0.00000  Uiso   1.00
H1158  H     0.69182   0.85336   0.50947   0.00000  Uiso   1.00
H1159  H     0.87703   0.78285   0.87167   0.00000  Uiso   1.00
H1160  H     0.90092   0.96091   0.76921   0.00000  Uiso   1.00
H1161  H     0.97628   0.73341   0.72843   0.00000  Uiso   1.00
H1162  H     0.94042   0.71738   0.68751   0.00000  Uiso   1.00
H1163  H     0.99517   0.99350   0.74418   0.00000  Uiso   1.00
H1164  H     0.96482   0.97741   0.69709   0.00000  Uiso   1.00
H1165  H     0.68862   0.68357   0.62801   0.00000  Uiso   1.00
H1166  H     0.72143   0.98150   0.65706   0.00000  Uiso   1.00
H1167  H     0.76310   0.70472   0.73730   0.00000  Uiso   1.00
H1168  H     0.71929   0.70216   0.67368   0.00000  Uiso   1.00
H1169  H     0.76227   0.96361   0.73646   0.00000  Uiso   1.00
H1170  H     0.69280   0.87370   0.81478   0.00000  Uiso   1.00
H1171  H     0.72890   0.79400   0.68334   0.00000  Uiso   1.00
H1172  H     0.97573   0.79529   0.68237   0.00000  Uiso   1.00
H1173  H     0.96728   0.78726   0.99415   0.00000  Uiso   1.00
H1174  H     0.80568   0.84771   0.58893   0.00000  Uiso   1.00
H1175  H     0.71741   0.84907   0.91433   0.00000  Uiso   1.00
I1176  I     0.92070   0.89724   0.84307   0.00000  Uiso   1.00
I1177  I     0.97187   0.76231   0.89077   0.00000  Uiso   1.00
N1178  N     0.71598   0.83332   0.74999   0.00000  Uiso   1.00
N1179  N     0.95069   0.83335   0.75000   0.00000  Uiso   1.00
O1180  O     0.79375   0.89345   0.75001   0.00000  Uiso   1.00
O1181  O     0.87294   0.89346   0.75001   0.00000  Uiso   1.00
O1182  O     0.77441   0.83332   0.82549   0.00000  Uiso   1.00
O1183  O     0.85360   0.83333   0.82549   0.00000  Uiso   1.00
O1184  O     0.79373   0.77321   0.75000   0.00000  Uiso   1.00
O1185  O     0.87292   0.77322   0.75000   0.00000  Uiso   1.00
O1186  O     0.81306   0.83334   0.67451   0.00000  Uiso   1.00
O1187  O     0.89225   0.83335   0.67451   0.00000  Uiso   1.00
O1188  O     0.91355   0.70549   0.76822   0.00000  Uiso   1.00
loop_
_geom_bond_atom_site_label_1
_geom_bond_atom_site_label_2
_geom_bond_distance
_geom_bond_site_symmetry_2
_ccdc_geom_bond_type
C1     O58     1.291   .     A
C1     O59     1.293   .     A
C1     C9      1.449   .     S
C2     C4      1.473   .     S
C2     C23     1.421   .     A
C2     C19     1.403   .     A
C3     C9      1.394   .     A
C3     H38     1.081   .     S
C3     C203    1.385   .     S
C4     O60     1.299   .     A
C4     O61     1.297   .     A
C5     O66     1.384   .     S
C5     C6      1.416   .     A
C5     C399    1.385   1_545 S
C6     C7      1.405   .     A
C6     C15     1.460   .     S
C7     H45     1.082   .     S
C7     C404    1.385   1_545 S
C8     H47     1.083   .     S
C8     C9      1.398   .     A
C8     C205    1.385   .     S
C10    I54     2.124   .     S
C10    N57     1.387   .     A
C10    C77     1.410   .     S
C11    H48     1.082   .     S
C11    N56     1.354   .     A
C11    C142    1.410   1_455 S
C12    C23     1.415   .     A
C12    C615    1.419   .     S
C12    C620    1.422   .     S
C13    N56     1.369   .     A
C13    H49     1.082   .     S
C13    C146    1.418   1_455 S
C14    H50     1.082   .     S
C14    N57     1.365   .     A
C14    C79     1.418   .     S
C15    O62     1.298   .     A
C15    O63     1.292   .     A
C16    O65     1.295   .     A
C16    C18     1.462   .     S
C16    O64     1.296   .     A
C17    C31     1.392   .     A
C17    C621    1.409   1_554 S
C17    H645    1.081   1_554 S
C18    C30     1.393   .     A
C18    C31     1.397   .     A
C19    C20     1.386   .     A
C19    H53     1.083   .     S
C20    C615    1.390   .     S
C20    H630    1.083   .     S
C21    H35     1.077   .     S
C21    C614    1.390   1_554 S
C21    C606    1.419   1_554 S
C22    H40     1.116   .     S
C22    H39     1.105   .     S
C22    C24     1.536   .     S
C22    O66     1.417   .     S
C23    C29     1.411   .     A
C24    C91     1.527   .     S
C24    H437    1.112   1_545 S
C24    H438    1.109   1_545 S
C25    H43     1.111   .     S
C25    H46     1.110   .     S
C25    C156    1.527   1_455 S
C25    H440    1.111   1_545 S
C26    C30     1.401   .     A
C26    C606    1.422   1_554 S
C26    C621    1.425   1_554 S
C27    C28     1.403   .     A
C27    C611    1.409   .     S
C27    C620    1.425   .     S
C28    C29     1.389   .     A
C28    I55     2.131   .     S
C29    H37     1.079   .     S
C30    H52     1.076   .     S
C31    H34     1.083   .     S
Cu32   O58     1.972   .     S
Cu32   Cu33    2.682   .     S
Cu32   O60     1.952   .     S
Cu32   O62     1.968   .     S
Cu32   O64     1.941   .     S
Cu32   N56     2.016   .     S
Cu33   N57     2.016   .     S
Cu33   O63     1.972   .     S
Cu33   O65     1.952   .     S
Cu33   O59     1.968   .     S
Cu33   O61     1.941   .     S
H36    C614    1.083   1_554 S
H41    C222    1.112   .     S
H42    C222    1.109   .     S
H44    C223    1.111   .     S
H51    C611    1.081   .     S
C67    O124    1.291   .     A
C67    O125    1.293   .     A
C67    C75     1.449   .     S
C68    C70     1.473   .     S
C68    C89     1.421   .     A
C68    C85     1.403   .     A
C69    C75     1.394   .     A
C69    H104    1.081   .     S
C69    C269    1.385   .     S
C70    O126    1.299   .     A
C70    O127    1.297   .     A
C71    O132    1.384   .     S
C71    C72     1.416   .     A
C71    C465    1.385   1_545 S
C72    C73     1.405   .     A
C72    C81     1.460   .     S
C73    H111    1.082   .     S
C73    C470    1.385   1_545 S
C74    H113    1.083   .     S
C74    C75     1.398   .     A
C74    C271    1.385   .     S
C76    I120    2.124   .     S
C76    N123    1.387   .     A
C76    C143    1.410   .     S
C77    H114    1.082   .     S
C77    N122    1.354   .     A
C78    C89     1.415   .     A
C78    C681    1.419   .     S
C78    C686    1.422   .     S
C79    N122    1.369   .     A
C79    H115    1.082   .     S
C80    H116    1.082   .     S
C80    N123    1.365   .     A
C80    C145    1.418   .     S
C81    O128    1.298   .     A
C81    O129    1.292   .     A
C82    O131    1.295   .     A
C82    C84     1.462   .     S
C82    O130    1.296   .     A
C83    C97     1.392   .     A
C83    C687    1.409   1_554 S
C83    H711    1.081   1_554 S
C84    C96     1.393   .     A
C84    C97     1.397   .     A
C85    C86     1.386   .     A
C85    H119    1.083   .     S
C86    C681    1.390   .     S
C86    H696    1.083   .     S
C87    H101    1.077   .     S
C87    C680    1.390   1_554 S
C87    C672    1.419   1_554 S
C88    H106    1.116   .     S
C88    H105    1.105   .     S
C88    C90     1.536   .     S
C88    O132    1.417   .     S
C89    C95     1.411   .     A
C90    C157    1.527   .     S
C90    H503    1.112   1_545 S
C90    H504    1.109   1_545 S
C91    H109    1.111   .     S
C91    H112    1.110   .     S
C91    H506    1.111   1_545 S
C92    C96     1.401   .     A
C92    C672    1.422   1_554 S
C92    C687    1.425   1_554 S
C93    C94     1.403   .     A
C93    C677    1.409   .     S
C93    C686    1.425   .     S
C94    C95     1.389   .     A
C94    I121    2.131   .     S
C95    H103    1.079   .     S
C96    H118    1.076   .     S
C97    H100    1.083   .     S
Cu98   O124    1.972   .     S
Cu98   Cu99    2.682   .     S
Cu98   O126    1.952   .     S
Cu98   O128    1.968   .     S
Cu98   O130    1.941   .     S
Cu98   N122    2.016   .     S
Cu99   N123    2.016   .     S
Cu99   O129    1.972   .     S
Cu99   O131    1.952   .     S
Cu99   O125    1.968   .     S
Cu99   O127    1.941   .     S
H102   C680    1.083   1_554 S
H107   C288    1.112   .     S
H108   C288    1.109   .     S
H110   C289    1.111   .     S
H117   C677    1.081   .     S
C133   O190    1.291   .     A
C133   O191    1.293   .     A
C133   C141    1.449   .     S
C134   C136    1.473   .     S
C134   C155    1.421   .     A
C134   C151    1.403   .     A
C135   C141    1.394   .     A
C135   H170    1.081   .     S
C135   C335    1.385   .     S
C136   O192    1.299   .     A
C136   O193    1.297   .     A
C137   O198    1.384   .     S
C137   C138    1.416   .     A
C137   C531    1.385   1_545 S
C138   C139    1.405   .     A
C138   C147    1.460   .     S
C139   H177    1.082   .     S
C139   C536    1.385   1_545 S
C140   H179    1.083   .     S
C140   C141    1.398   .     A
C140   C337    1.385   .     S
C142   I186    2.124   .     S
C142   N189    1.387   .     A
C142   C11     1.410   1_655 S
C143   H180    1.082   .     S
C143   N188    1.354   .     A
C144   C155    1.415   .     A
C144   C747    1.419   .     S
C144   C752    1.422   .     S
C145   N188    1.369   .     A
C145   H181    1.082   .     S
C146   H182    1.082   .     S
C146   N189    1.365   .     A
C146   C13     1.418   1_655 S
C147   O194    1.298   .     A
C147   O195    1.292   .     A
C148   O197    1.295   .     A
C148   C150    1.462   .     S
C148   O196    1.296   .     A
C149   C163    1.392   .     A
C149   C753    1.409   1_554 S
C149   H777    1.081   1_554 S
C150   C162    1.393   .     A
C150   C163    1.397   .     A
C151   C152    1.386   .     A
C151   H185    1.083   .     S
C152   C747    1.390   .     S
C152   H762    1.083   .     S
C153   H167    1.077   .     S
C153   C746    1.390   1_554 S
C153   C738    1.419   1_554 S
C154   H172    1.116   .     S
C154   H171    1.105   .     S
C154   C156    1.536   .     S
C154   O198    1.417   .     S
C155   C161    1.411   .     A
C156   C25     1.527   1_655 S
C156   H569    1.112   1_545 S
C156   H570    1.109   1_545 S
C157   H175    1.111   .     S
C157   H178    1.110   .     S
C157   H572    1.111   1_545 S
C158   C162    1.401   .     A
C158   C738    1.422   1_554 S
C158   C753    1.425   1_554 S
C159   C160    1.403   .     A
C159   C743    1.409   .     S
C159   C752    1.425   .     S
C160   C161    1.389   .     A
C160   I187    2.131   .     S
C161   H169    1.079   .     S
C162   H184    1.076   .     S
C163   H166    1.083   .     S
Cu164  O190    1.972   .     S
Cu164  Cu165   2.682   .     S
Cu164  O192    1.952   .     S
Cu164  O194    1.968   .     S
Cu164  O196    1.941   .     S
Cu164  N188    2.016   .     S
Cu165  N189    2.016   .     S
Cu165  O195    1.972   .     S
Cu165  O197    1.952   .     S
Cu165  O191    1.968   .     S
Cu165  O193    1.941   .     S
H168   C746    1.083   1_554 S
H173   C354    1.112   .     S
H174   C354    1.109   .     S
H176   C355    1.111   .     S
H183   C743    1.081   .     S
C199   O256    1.291   .     A
C199   O257    1.293   .     A
C199   C207    1.449   .     S
C200   C202    1.473   .     S
C200   C221    1.421   .     A
C200   C217    1.403   .     A
C201   C207    1.394   .     A
C201   H236    1.081   .     S
C201   C401    1.385   .     S
C202   O258    1.299   .     A
C202   O259    1.297   .     A
C203   O264    1.384   .     S
C203   C204    1.416   .     A
C204   C205    1.405   .     A
C204   C213    1.460   .     S
C205   H243    1.082   .     S
C206   H245    1.083   .     S
C206   C207    1.398   .     A
C206   C403    1.385   .     S
C208   I252    2.124   .     S
C208   N255    1.387   .     A
C208   C275    1.410   .     S
C209   H246    1.082   .     S
C209   N254    1.354   .     A
C209   C340    1.410   1_455 S
C210   C221    1.415   .     A
C210   C813    1.419   .     S
C210   C818    1.422   .     S
C211   N254    1.369   .     A
C211   H247    1.082   .     S
C211   C344    1.418   1_455 S
C212   H248    1.082   .     S
C212   N255    1.365   .     A
C212   C277    1.418   .     S
C213   O260    1.298   .     A
C213   O261    1.292   .     A
C214   O263    1.295   .     A
C214   C216    1.462   .     S
C214   O262    1.296   .     A
C215   C229    1.392   .     A
C215   C819    1.409   1_554 S
C215   H843    1.081   1_554 S
C216   C228    1.393   .     A
C216   C229    1.397   .     A
C217   C218    1.386   .     A
C217   H251    1.083   .     S
C218   C813    1.390   .     S
C218   H828    1.083   .     S
C219   H233    1.077   .     S
C219   C812    1.390   1_554 S
C219   C804    1.419   1_554 S
C220   H238    1.116   .     S
C220   H237    1.105   .     S
C220   C222    1.536   .     S
C220   O264    1.417   .     S
C221   C227    1.411   .     A
C222   C289    1.527   .     S
C223   H241    1.111   .     S
C223   H244    1.110   .     S
C223   C354    1.527   1_455 S
C224   C228    1.401   .     A
C224   C804    1.422   1_554 S
C224   C819    1.425   1_554 S
C225   C226    1.403   .     A
C225   C809    1.409   .     S
C225   C818    1.425   .     S
C226   C227    1.389   .     A
C226   I253    2.131   .     S
C227   H235    1.079   .     S
C228   H250    1.076   .     S
C229   H232    1.083   .     S
Cu230  O256    1.972   .     S
Cu230  Cu231   2.682   .     S
Cu230  O258    1.952   .     S
Cu230  O260    1.968   .     S
Cu230  O262    1.941   .     S
Cu230  N254    2.016   .     S
Cu231  N255    2.016   .     S
Cu231  O261    1.972   .     S
Cu231  O263    1.952   .     S
Cu231  O257    1.968   .     S
Cu231  O259    1.941   .     S
H234   C812    1.083   1_554 S
H239   C420    1.112   .     S
H240   C420    1.109   .     S
H242   C421    1.111   .     S
H249   C809    1.081   .     S
C265   O322    1.291   .     A
C265   O323    1.293   .     A
C265   C273    1.449   .     S
C266   C268    1.473   .     S
C266   C287    1.421   .     A
C266   C283    1.403   .     A
C267   C273    1.394   .     A
C267   H302    1.081   .     S
C267   C467    1.385   .     S
C268   O324    1.299   .     A
C268   O325    1.297   .     A
C269   O330    1.384   .     S
C269   C270    1.416   .     A
C270   C271    1.405   .     A
C270   C279    1.460   .     S
C271   H309    1.082   .     S
C272   H311    1.083   .     S
C272   C273    1.398   .     A
C272   C469    1.385   .     S
C274   I318    2.124   .     S
C274   N321    1.387   .     A
C274   C341    1.410   .     S
C275   H312    1.082   .     S
C275   N320    1.354   .     A
C276   C287    1.415   .     A
C276   C879    1.419   .     S
C276   C884    1.422   .     S
C277   N320    1.369   .     A
C277   H313    1.082   .     S
C278   H314    1.082   .     S
C278   N321    1.365   .     A
C278   C343    1.418   .     S
C279   O326    1.298   .     A
C279   O327    1.292   .     A
C280   O329    1.295   .     A
C280   C282    1.462   .     S
C280   O328    1.296   .     A
C281   C295    1.392   .     A
C281   C885    1.409   1_554 S
C281   H909    1.081   1_554 S
C282   C294    1.393   .     A
C282   C295    1.397   .     A
C283   C284    1.386   .     A
C283   H317    1.083   .     S
C284   C879    1.390   .     S
C284   H894    1.083   .     S
C285   H299    1.077   .     S
C285   C878    1.390   1_554 S
C285   C870    1.419   1_554 S
C286   H304    1.116   .     S
C286   H303    1.105   .     S
C286   C288    1.536   .     S
C286   O330    1.417   .     S
C287   C293    1.411   .     A
C288   C355    1.527   .     S
C289   H307    1.111   .     S
C289   H310    1.110   .     S
C290   C294    1.401   .     A
C290   C870    1.422   1_554 S
C290   C885    1.425   1_554 S
C291   C292    1.403   .     A
C291   C875    1.409   .     S
C291   C884    1.425   .     S
C292   C293    1.389   .     A
C292   I319    2.131   .     S
C293   H301    1.079   .     S
C294   H316    1.076   .     S
C295   H298    1.083   .     S
Cu296  O322    1.972   .     S
Cu296  Cu297   2.682   .     S
Cu296  O324    1.952   .     S
Cu296  O326    1.968   .     S
Cu296  O328    1.941   .     S
Cu296  N320    2.016   .     S
Cu297  N321    2.016   .     S
Cu297  O327    1.972   .     S
Cu297  O329    1.952   .     S
Cu297  O323    1.968   .     S
Cu297  O325    1.941   .     S
H300   C878    1.083   1_554 S
H305   C486    1.112   .     S
H306   C486    1.109   .     S
H308   C487    1.111   .     S
H315   C875    1.081   .     S
C331   O388    1.291   .     A
C331   O389    1.293   .     A
C331   C339    1.449   .     S
C332   C334    1.473   .     S
C332   C353    1.421   .     A
C332   C349    1.403   .     A
C333   C339    1.394   .     A
C333   H368    1.081   .     S
C333   C533    1.385   .     S
C334   O390    1.299   .     A
C334   O391    1.297   .     A
C335   O396    1.384   .     S
C335   C336    1.416   .     A
C336   C337    1.405   .     A
C336   C345    1.460   .     S
C337   H375    1.082   .     S
C338   H377    1.083   .     S
C338   C339    1.398   .     A
C338   C535    1.385   .     S
C340   I384    2.124   .     S
C340   N387    1.387   .     A
C340   C209    1.410   1_655 S
C341   H378    1.082   .     S
C341   N386    1.354   .     A
C342   C353    1.415   .     A
C342   C945    1.419   .     S
C342   C950    1.422   .     S
C343   N386    1.369   .     A
C343   H379    1.082   .     S
C344   H380    1.082   .     S
C344   N387    1.365   .     A
C344   C211    1.418   1_655 S
C345   O392    1.298   .     A
C345   O393    1.292   .     A
C346   O395    1.295   .     A
C346   C348    1.462   .     S
C346   O394    1.296   .     A
C347   C361    1.392   .     A
C347   C951    1.409   1_554 S
C347   H975    1.081   1_554 S
C348   C360    1.393   .     A
C348   C361    1.397   .     A
C349   C350    1.386   .     A
C349   H383    1.083   .     S
C350   C945    1.390   .     S
C350   H960    1.083   .     S
C351   H365    1.077   .     S
C351   C944    1.390   1_554 S
C351   C936    1.419   1_554 S
C352   H370    1.116   .     S
C352   H369    1.105   .     S
C352   C354    1.536   .     S
C352   O396    1.417   .     S
C353   C359    1.411   .     A
C354   C223    1.527   1_655 S
C355   H373    1.111   .     S
C355   H376    1.110   .     S
C356   C360    1.401   .     A
C356   C936    1.422   1_554 S
C356   C951    1.425   1_554 S
C357   C358    1.403   .     A
C357   C941    1.409   .     S
C357   C950    1.425   .     S
C358   C359    1.389   .     A
C358   I385    2.131   .     S
C359   H367    1.079   .     S
C360   H382    1.076   .     S
C361   H364    1.083   .     S
Cu362  O388    1.972   .     S
Cu362  Cu363   2.682   .     S
Cu362  O390    1.952   .     S
Cu362  O392    1.968   .     S
Cu362  O394    1.941   .     S
Cu362  N386    2.016   .     S
Cu363  N387    2.016   .     S
Cu363  O393    1.972   .     S
Cu363  O395    1.952   .     S
Cu363  O389    1.968   .     S
Cu363  O391    1.941   .     S
H366   C944    1.083   1_554 S
H371   C552    1.112   .     S
H372   C552    1.109   .     S
H374   C553    1.111   .     S
H381   C941    1.081   .     S
C397   O454    1.291   .     A
C397   O455    1.293   .     A
C397   C405    1.449   .     S
C398   C400    1.473   .     S
C398   C419    1.421   .     A
C398   C415    1.403   .     A
C399   C405    1.394   .     A
C399   H434    1.081   .     S
C399   C5      1.385   1_565 S
C400   O456    1.299   .     A
C400   O457    1.297   .     A
C401   O462    1.384   .     S
C401   C402    1.416   .     A
C402   C403    1.405   .     A
C402   C411    1.460   .     S
C403   H441    1.082   .     S
C404   H443    1.083   .     S
C404   C405    1.398   .     A
C404   C7      1.385   1_565 S
C406   I450    2.124   .     S
C406   N453    1.387   .     A
C406   C473    1.410   .     S
C407   H444    1.082   .     S
C407   N452    1.354   .     A
C407   C538    1.410   1_455 S
C408   C419    1.415   .     A
C408   C1011   1.419   .     S
C408   C1016   1.422   .     S
C409   N452    1.369   .     A
C409   H445    1.082   .     S
C409   C542    1.418   1_455 S
C410   H446    1.082   .     S
C410   N453    1.365   .     A
C410   C475    1.418   .     S
C411   O458    1.298   .     A
C411   O459    1.292   .     A
C412   O461    1.295   .     A
C412   C414    1.462   .     S
C412   O460    1.296   .     A
C413   C427    1.392   .     A
C413   C1017   1.409   1_554 S
C413   H1041   1.081   1_554 S
C414   C426    1.393   .     A
C414   C427    1.397   .     A
C415   C416    1.386   .     A
C415   H449    1.083   .     S
C416   C1011   1.390   .     S
C416   H1026   1.083   .     S
C417   H431    1.077   .     S
C417   C1010   1.390   1_554 S
C417   C1002   1.419   1_554 S
C418   H436    1.116   .     S
C418   H435    1.105   .     S
C418   C420    1.536   .     S
C418   O462    1.417   .     S
C419   C425    1.411   .     A
C420   C487    1.527   .     S
C421   H439    1.111   .     S
C421   H442    1.110   .     S
C421   C552    1.527   1_455 S
C422   C426    1.401   .     A
C422   C1002   1.422   1_554 S
C422   C1017   1.425   1_554 S
C423   C424    1.403   .     A
C423   C1007   1.409   .     S
C423   C1016   1.425   .     S
C424   C425    1.389   .     A
C424   I451    2.131   .     S
C425   H433    1.079   .     S
C426   H448    1.076   .     S
C427   H430    1.083   .     S
Cu428  O454    1.972   .     S
Cu428  Cu429   2.682   .     S
Cu428  O456    1.952   .     S
Cu428  O458    1.968   .     S
Cu428  O460    1.941   .     S
Cu428  N452    2.016   .     S
Cu429  N453    2.016   .     S
Cu429  O459    1.972   .     S
Cu429  O461    1.952   .     S
Cu429  O455    1.968   .     S
Cu429  O457    1.941   .     S
H432   C1010   1.083   1_554 S
H437   C24     1.112   1_565 S
H438   C24     1.109   1_565 S
H440   C25     1.111   1_565 S
H447   C1007   1.081   .     S
C463   O520    1.291   .     A
C463   O521    1.293   .     A
C463   C471    1.449   .     S
C464   C466    1.473   .     S
C464   C485    1.421   .     A
C464   C481    1.403   .     A
C465   C471    1.394   .     A
C465   H500    1.081   .     S
C465   C71     1.385   1_565 S
C466   O522    1.299   .     A
C466   O523    1.297   .     A
C467   O528    1.384   .     S
C467   C468    1.416   .     A
C468   C469    1.405   .     A
C468   C477    1.460   .     S
C469   H507    1.082   .     S
C470   H509    1.083   .     S
C470   C471    1.398   .     A
C470   C73     1.385   1_565 S
C472   I516    2.124   .     S
C472   N519    1.387   .     A
C472   C539    1.410   .     S
C473   H510    1.082   .     S
C473   N518    1.354   .     A
C474   C485    1.415   .     A
C474   C1077   1.419   .     S
C474   C1082   1.422   .     S
C475   N518    1.369   .     A
C475   H511    1.082   .     S
C476   H512    1.082   .     S
C476   N519    1.365   .     A
C476   C541    1.418   .     S
C477   O524    1.298   .     A
C477   O525    1.292   .     A
C478   O527    1.295   .     A
C478   C480    1.462   .     S
C478   O526    1.296   .     A
C479   C493    1.392   .     A
C479   C1083   1.409   1_554 S
C479   H1107   1.081   1_554 S
C480   C492    1.393   .     A
C480   C493    1.397   .     A
C481   C482    1.386   .     A
C481   H515    1.083   .     S
C482   C1077   1.390   .     S
C482   H1092   1.083   .     S
C483   H497    1.077   .     S
C483   C1076   1.390   1_554 S
C483   C1068   1.419   1_554 S
C484   H502    1.116   .     S
C484   H501    1.105   .     S
C484   C486    1.536   .     S
C484   O528    1.417   .     S
C485   C491    1.411   .     A
C486   C553    1.527   .     S
C487   H505    1.111   .     S
C487   H508    1.110   .     S
C488   C492    1.401   .     A
C488   C1068   1.422   1_554 S
C488   C1083   1.425   1_554 S
C489   C490    1.403   .     A
C489   C1073   1.409   .     S
C489   C1082   1.425   .     S
C490   C491    1.389   .     A
C490   I517    2.131   .     S
C491   H499    1.079   .     S
C492   H514    1.076   .     S
C493   H496    1.083   .     S
Cu494  O520    1.972   .     S
Cu494  Cu495   2.682   .     S
Cu494  O522    1.952   .     S
Cu494  O524    1.968   .     S
Cu494  O526    1.941   .     S
Cu494  N518    2.016   .     S
Cu495  N519    2.016   .     S
Cu495  O525    1.972   .     S
Cu495  O527    1.952   .     S
Cu495  O521    1.968   .     S
Cu495  O523    1.941   .     S
H498   C1076   1.083   1_554 S
H503   C90     1.112   1_565 S
H504   C90     1.109   1_565 S
H506   C91     1.111   1_565 S
H513   C1073   1.081   .     S
C529   O586    1.291   .     A
C529   O587    1.293   .     A
C529   C537    1.449   .     S
C530   C532    1.473   .     S
C530   C551    1.421   .     A
C530   C547    1.403   .     A
C531   C537    1.394   .     A
C531   H566    1.081   .     S
C531   C137    1.385   1_565 S
C532   O588    1.299   .     A
C532   O589    1.297   .     A
C533   O594    1.384   .     S
C533   C534    1.416   .     A
C534   C535    1.405   .     A
C534   C543    1.460   .     S
C535   H573    1.082   .     S
C536   H575    1.083   .     S
C536   C537    1.398   .     A
C536   C139    1.385   1_565 S
C538   I582    2.124   .     S
C538   N585    1.387   .     A
C538   C407    1.410   1_655 S
C539   H576    1.082   .     S
C539   N584    1.354   .     A
C540   C551    1.415   .     A
C540   C1143   1.419   .     S
C540   C1148   1.422   .     S
C541   N584    1.369   .     A
C541   H577    1.082   .     S
C542   H578    1.082   .     S
C542   N585    1.365   .     A
C542   C409    1.418   1_655 S
C543   O590    1.298   .     A
C543   O591    1.292   .     A
C544   O593    1.295   .     A
C544   C546    1.462   .     S
C544   O592    1.296   .     A
C545   C559    1.392   .     A
C545   C1149   1.409   1_554 S
C545   H1173   1.081   1_554 S
C546   C558    1.393   .     A
C546   C559    1.397   .     A
C547   C548    1.386   .     A
C547   H581    1.083   .     S
C548   C1143   1.390   .     S
C548   H1158   1.083   .     S
C549   H563    1.077   .     S
C549   C1142   1.390   1_554 S
C549   C1134   1.419   1_554 S
C550   H568    1.116   .     S
C550   H567    1.105   .     S
C550   C552    1.536   .     S
C550   O594    1.417   .     S
C551   C557    1.411   .     A
C552   C421    1.527   1_655 S
C553   H571    1.111   .     S
C553   H574    1.110   .     S
C554   C558    1.401   .     A
C554   C1134   1.422   1_554 S
C554   C1149   1.425   1_554 S
C555   C556    1.403   .     A
C555   C1139   1.409   .     S
C555   C1148   1.425   .     S
C556   C557    1.389   .     A
C556   I583    2.131   .     S
C557   H565    1.079   .     S
C558   H580    1.076   .     S
C559   H562    1.083   .     S
Cu560  O586    1.972   .     S
Cu560  Cu561   2.682   .     S
Cu560  O588    1.952   .     S
Cu560  O590    1.968   .     S
Cu560  O592    1.941   .     S
Cu560  N584    2.016   .     S
Cu561  N585    2.016   .     S
Cu561  O591    1.972   .     S
Cu561  O593    1.952   .     S
Cu561  O587    1.968   .     S
Cu561  O589    1.941   .     S
H564   C1142   1.083   1_554 S
H569   C156    1.112   1_565 S
H570   C156    1.109   1_565 S
H572   C157    1.111   1_565 S
H579   C1139   1.081   .     S
C595   O652    1.291   .     A
C595   O653    1.293   .     A
C595   C603    1.449   .     S
C596   C598    1.473   .     S
C596   C617    1.421   .     A
C596   C613    1.403   .     A
C597   C603    1.394   .     A
C597   H632    1.081   .     S
C597   C797    1.385   .     S
C598   O654    1.299   .     A
C598   O655    1.297   .     A
C599   O660    1.384   .     S
C599   C600    1.416   .     A
C599   C993    1.385   1_545 S
C600   C601    1.405   .     A
C600   C609    1.460   .     S
C601   H639    1.082   .     S
C601   C998    1.385   1_545 S
C602   H641    1.083   .     S
C602   C603    1.398   .     A
C602   C799    1.385   .     S
C604   I648    2.124   .     S
C604   N651    1.387   .     A
C604   C671    1.410   .     S
C605   H642    1.082   .     S
C605   N650    1.354   .     A
C605   C736    1.410   1_455 S
C606   C617    1.415   .     A
C606   C21     1.419   1_556 S
C606   C26     1.422   1_556 S
C607   N650    1.369   .     A
C607   H643    1.082   .     S
C607   C740    1.418   1_455 S
C608   H644    1.082   .     S
C608   N651    1.365   .     A
C608   C673    1.418   .     S
C609   O656    1.298   .     A
C609   O657    1.292   .     A
C610   O659    1.295   .     A
C610   C612    1.462   .     S
C610   O658    1.296   .     A
C611   C625    1.392   .     A
C612   C624    1.393   .     A
C612   C625    1.397   .     A
C613   C614    1.386   .     A
C613   H647    1.083   .     S
C614   C21     1.390   1_556 S
C614   H36     1.083   1_556 S
C615   H629    1.077   .     S
C616   H634    1.116   .     S
C616   H633    1.105   .     S
C616   C618    1.536   .     S
C616   O660    1.417   .     S
C617   C623    1.411   .     A
C618   C685    1.527   .     S
C618   H1031   1.112   1_545 S
C618   H1032   1.109   1_545 S
C619   H637    1.111   .     S
C619   H640    1.110   .     S
C619   C750    1.527   1_455 S
C619   H1034   1.111   1_545 S
C620   C624    1.401   .     A
C621   C622    1.403   .     A
C621   C17     1.409   1_556 S
C621   C26     1.425   1_556 S
C622   C623    1.389   .     A
C622   I649    2.131   .     S
C623   H631    1.079   .     S
C624   H646    1.076   .     S
C625   H628    1.083   .     S
Cu626  O652    1.972   .     S
Cu626  Cu627   2.682   .     S
Cu626  O654    1.952   .     S
Cu626  O656    1.968   .     S
Cu626  O658    1.941   .     S
Cu626  N650    2.016   .     S
Cu627  N651    2.016   .     S
Cu627  O657    1.972   .     S
Cu627  O659    1.952   .     S
Cu627  O653    1.968   .     S
Cu627  O655    1.941   .     S
H635   C816    1.112   .     S
H636   C816    1.109   .     S
H638   C817    1.111   .     S
H645   C17     1.081   1_556 S
C661   O718    1.291   .     A
C661   O719    1.293   .     A
C661   C669    1.449   .     S
C662   C664    1.473   .     S
C662   C683    1.421   .     A
C662   C679    1.403   .     A
C663   C669    1.394   .     A
C663   H698    1.081   .     S
C663   C863    1.385   .     S
C664   O720    1.299   .     A
C664   O721    1.297   .     A
C665   O726    1.384   .     S
C665   C666    1.416   .     A
C665   C1059   1.385   1_545 S
C666   C667    1.405   .     A
C666   C675    1.460   .     S
C667   H705    1.082   .     S
C667   C1064   1.385   1_545 S
C668   H707    1.083   .     S
C668   C669    1.398   .     A
C668   C865    1.385   .     S
C670   I714    2.124   .     S
C670   N717    1.387   .     A
C670   C737    1.410   .     S
C671   H708    1.082   .     S
C671   N716    1.354   .     A
C672   C683    1.415   .     A
C672   C87     1.419   1_556 S
C672   C92     1.422   1_556 S
C673   N716    1.369   .     A
C673   H709    1.082   .     S
C674   H710    1.082   .     S
C674   N717    1.365   .     A
C674   C739    1.418   .     S
C675   O722    1.298   .     A
C675   O723    1.292   .     A
C676   O725    1.295   .     A
C676   C678    1.462   .     S
C676   O724    1.296   .     A
C677   C691    1.392   .     A
C678   C690    1.393   .     A
C678   C691    1.397   .     A
C679   C680    1.386   .     A
C679   H713    1.083   .     S
C680   C87     1.390   1_556 S
C680   H102    1.083   1_556 S
C681   H695    1.077   .     S
C682   H700    1.116   .     S
C682   H699    1.105   .     S
C682   C684    1.536   .     S
C682   O726    1.417   .     S
C683   C689    1.411   .     A
C684   C751    1.527   .     S
C684   H1097   1.112   1_545 S
C684   H1098   1.109   1_545 S
C685   H703    1.111   .     S
C685   H706    1.110   .     S
C685   H1100   1.111   1_545 S
C686   C690    1.401   .     A
C687   C688    1.403   .     A
C687   C83     1.409   1_556 S
C687   C92     1.425   1_556 S
C688   C689    1.389   .     A
C688   I715    2.131   .     S
C689   H697    1.079   .     S
C690   H712    1.076   .     S
C691   H694    1.083   .     S
Cu692  O718    1.972   .     S
Cu692  Cu693   2.682   .     S
Cu692  O720    1.952   .     S
Cu692  O722    1.968   .     S
Cu692  O724    1.941   .     S
Cu692  N716    2.016   .     S
Cu693  N717    2.016   .     S
Cu693  O723    1.972   .     S
Cu693  O725    1.952   .     S
Cu693  O719    1.968   .     S
Cu693  O721    1.941   .     S
H701   C882    1.112   .     S
H702   C882    1.109   .     S
H704   C883    1.111   .     S
H711   C83     1.081   1_556 S
C727   O784    1.291   .     A
C727   O785    1.293   .     A
C727   C735    1.449   .     S
C728   C730    1.473   .     S
C728   C749    1.421   .     A
C728   C745    1.403   .     A
C729   C735    1.394   .     A
C729   H764    1.081   .     S
C729   C929    1.385   .     S
C730   O786    1.299   .     A
C730   O787    1.297   .     A
C731   O792    1.384   .     S
C731   C732    1.416   .     A
C731   C1125   1.385   1_545 S
C732   C733    1.405   .     A
C732   C741    1.460   .     S
C733   H771    1.082   .     S
C733   C1130   1.385   1_545 S
C734   H773    1.083   .     S
C734   C735    1.398   .     A
C734   C931    1.385   .     S
C736   I780    2.124   .     S
C736   N783    1.387   .     A
C736   C605    1.410   1_655 S
C737   H774    1.082   .     S
C737   N782    1.354   .     A
C738   C749    1.415   .     A
C738   C153    1.419   1_556 S
C738   C158    1.422   1_556 S
C739   N782    1.369   .     A
C739   H775    1.082   .     S
C740   H776    1.082   .     S
C740   N783    1.365   .     A
C740   C607    1.418   1_655 S
C741   O788    1.298   .     A
C741   O789    1.292   .     A
C742   O791    1.295   .     A
C742   C744    1.462   .     S
C742   O790    1.296   .     A
C743   C757    1.392   .     A
C744   C756    1.393   .     A
C744   C757    1.397   .     A
C745   C746    1.386   .     A
C745   H779    1.083   .     S
C746   C153    1.390   1_556 S
C746   H168    1.083   1_556 S
C747   H761    1.077   .     S
C748   H766    1.116   .     S
C748   H765    1.105   .     S
C748   C750    1.536   .     S
C748   O792    1.417   .     S
C749   C755    1.411   .     A
C750   C619    1.527   1_655 S
C750   H1163   1.112   1_545 S
C750   H1164   1.109   1_545 S
C751   H769    1.111   .     S
C751   H772    1.110   .     S
C751   H1166   1.111   1_545 S
C752   C756    1.401   .     A
C753   C754    1.403   .     A
C753   C149    1.409   1_556 S
C753   C158    1.425   1_556 S
C754   C755    1.389   .     A
C754   I781    2.131   .     S
C755   H763    1.079   .     S
C756   H778    1.076   .     S
C757   H760    1.083   .     S
Cu758  O784    1.972   .     S
Cu758  Cu759   2.682   .     S
Cu758  O786    1.952   .     S
Cu758  O788    1.968   .     S
Cu758  O790    1.941   .     S
Cu758  N782    2.016   .     S
Cu759  N783    2.016   .     S
Cu759  O789    1.972   .     S
Cu759  O791    1.952   .     S
Cu759  O785    1.968   .     S
Cu759  O787    1.941   .     S
H767   C948    1.112   .     S
H768   C948    1.109   .     S
H770   C949    1.111   .     S
H777   C149    1.081   1_556 S
C793   O850    1.291   .     A
C793   O851    1.293   .     A
C793   C801    1.449   .     S
C794   C796    1.473   .     S
C794   C815    1.421   .     A
C794   C811    1.403   .     A
C795   C801    1.394   .     A
C795   H830    1.081   .     S
C795   C995    1.385   .     S
C796   O852    1.299   .     A
C796   O853    1.297   .     A
C797   O858    1.384   .     S
C797   C798    1.416   .     A
C798   C799    1.405   .     A
C798   C807    1.460   .     S
C799   H837    1.082   .     S
C800   H839    1.083   .     S
C800   C801    1.398   .     A
C800   C997    1.385   .     S
C802   I846    2.124   .     S
C802   N849    1.387   .     A
C802   C869    1.410   .     S
C803   H840    1.082   .     S
C803   N848    1.354   .     A
C803   C934    1.410   1_455 S
C804   C815    1.415   .     A
C804   C219    1.419   1_556 S
C804   C224    1.422   1_556 S
C805   N848    1.369   .     A
C805   H841    1.082   .     S
C805   C938    1.418   1_455 S
C806   H842    1.082   .     S
C806   N849    1.365   .     A
C806   C871    1.418   .     S
C807   O854    1.298   .     A
C807   O855    1.292   .     A
C808   O857    1.295   .     A
C808   C810    1.462   .     S
C808   O856    1.296   .     A
C809   C823    1.392   .     A
C810   C822    1.393   .     A
C810   C823    1.397   .     A
C811   C812    1.386   .     A
C811   H845    1.083   .     S
C812   C219    1.390   1_556 S
C812   H234    1.083   1_556 S
C813   H827    1.077   .     S
C814   H832    1.116   .     S
C814   H831    1.105   .     S
C814   C816    1.536   .     S
C814   O858    1.417   .     S
C815   C821    1.411   .     A
C816   C883    1.527   .     S
C817   H835    1.111   .     S
C817   H838    1.110   .     S
C817   C948    1.527   1_455 S
C818   C822    1.401   .     A
C819   C820    1.403   .     A
C819   C215    1.409   1_556 S
C819   C224    1.425   1_556 S
C820   C821    1.389   .     A
C820   I847    2.131   .     S
C821   H829    1.079   .     S
C822   H844    1.076   .     S
C823   H826    1.083   .     S
Cu824  O850    1.972   .     S
Cu824  Cu825   2.682   .     S
Cu824  O852    1.952   .     S
Cu824  O854    1.968   .     S
Cu824  O856    1.941   .     S
Cu824  N848    2.016   .     S
Cu825  N849    2.016   .     S
Cu825  O855    1.972   .     S
Cu825  O857    1.952   .     S
Cu825  O851    1.968   .     S
Cu825  O853    1.941   .     S
H833   C1014   1.112   .     S
H834   C1014   1.109   .     S
H836   C1015   1.111   .     S
H843   C215    1.081   1_556 S
C859   O916    1.291   .     A
C859   O917    1.293   .     A
C859   C867    1.449   .     S
C860   C862    1.473   .     S
C860   C881    1.421   .     A
C860   C877    1.403   .     A
C861   C867    1.394   .     A
C861   H896    1.081   .     S
C861   C1061   1.385   .     S
C862   O918    1.299   .     A
C862   O919    1.297   .     A
C863   O924    1.384   .     S
C863   C864    1.416   .     A
C864   C865    1.405   .     A
C864   C873    1.460   .     S
C865   H903    1.082   .     S
C866   H905    1.083   .     S
C866   C867    1.398   .     A
C866   C1063   1.385   .     S
C868   I912    2.124   .     S
C868   N915    1.387   .     A
C868   C935    1.410   .     S
C869   H906    1.082   .     S
C869   N914    1.354   .     A
C870   C881    1.415   .     A
C870   C285    1.419   1_556 S
C870   C290    1.422   1_556 S
C871   N914    1.369   .     A
C871   H907    1.082   .     S
C872   H908    1.082   .     S
C872   N915    1.365   .     A
C872   C937    1.418   .     S
C873   O920    1.298   .     A
C873   O921    1.292   .     A
C874   O923    1.295   .     A
C874   C876    1.462   .     S
C874   O922    1.296   .     A
C875   C889    1.392   .     A
C876   C888    1.393   .     A
C876   C889    1.397   .     A
C877   C878    1.386   .     A
C877   H911    1.083   .     S
C878   C285    1.390   1_556 S
C878   H300    1.083   1_556 S
C879   H893    1.077   .     S
C880   H898    1.116   .     S
C880   H897    1.105   .     S
C880   C882    1.536   .     S
C880   O924    1.417   .     S
C881   C887    1.411   .     A
C882   C949    1.527   .     S
C883   H901    1.111   .     S
C883   H904    1.110   .     S
C884   C888    1.401   .     A
C885   C886    1.403   .     A
C885   C281    1.409   1_556 S
C885   C290    1.425   1_556 S
C886   C887    1.389   .     A
C886   I913    2.131   .     S
C887   H895    1.079   .     S
C888   H910    1.076   .     S
C889   H892    1.083   .     S
Cu890  O916    1.972   .     S
Cu890  Cu891   2.682   .     S
Cu890  O918    1.952   .     S
Cu890  O920    1.968   .     S
Cu890  O922    1.941   .     S
Cu890  N914    2.016   .     S
Cu891  N915    2.016   .     S
Cu891  O921    1.972   .     S
Cu891  O923    1.952   .     S
Cu891  O917    1.968   .     S
Cu891  O919    1.941   .     S
H899   C1080   1.112   .     S
H900   C1080   1.109   .     S
H902   C1081   1.111   .     S
H909   C281    1.081   1_556 S
C925   O982    1.291   .     A
C925   O983    1.293   .     A
C925   C933    1.449   .     S
C926   C928    1.473   .     S
C926   C947    1.421   .     A
C926   C943    1.403   .     A
C927   C933    1.394   .     A
C927   H962    1.081   .     S
C927   C1127   1.385   .     S
C928   O984    1.299   .     A
C928   O985    1.297   .     A
C929   O990    1.384   .     S
C929   C930    1.416   .     A
C930   C931    1.405   .     A
C930   C939    1.460   .     S
C931   H969    1.082   .     S
C932   H971    1.083   .     S
C932   C933    1.398   .     A
C932   C1129   1.385   .     S
C934   I978    2.124   .     S
C934   N981    1.387   .     A
C934   C803    1.410   1_655 S
C935   H972    1.082   .     S
C935   N980    1.354   .     A
C936   C947    1.415   .     A
C936   C351    1.419   1_556 S
C936   C356    1.422   1_556 S
C937   N980    1.369   .     A
C937   H973    1.082   .     S
C938   H974    1.082   .     S
C938   N981    1.365   .     A
C938   C805    1.418   1_655 S
C939   O986    1.298   .     A
C939   O987    1.292   .     A
C940   O989    1.295   .     A
C940   C942    1.462   .     S
C940   O988    1.296   .     A
C941   C955    1.392   .     A
C942   C954    1.393   .     A
C942   C955    1.397   .     A
C943   C944    1.386   .     A
C943   H977    1.083   .     S
C944   C351    1.390   1_556 S
C944   H366    1.083   1_556 S
C945   H959    1.077   .     S
C946   H964    1.116   .     S
C946   H963    1.105   .     S
C946   C948    1.536   .     S
C946   O990    1.417   .     S
C947   C953    1.411   .     A
C948   C817    1.527   1_655 S
C949   H967    1.111   .     S
C949   H970    1.110   .     S
C950   C954    1.401   .     A
C951   C952    1.403   .     A
C951   C347    1.409   1_556 S
C951   C356    1.425   1_556 S
C952   C953    1.389   .     A
C952   I979    2.131   .     S
C953   H961    1.079   .     S
C954   H976    1.076   .     S
C955   H958    1.083   .     S
Cu956  O982    1.972   .     S
Cu956  Cu957   2.682   .     S
Cu956  O984    1.952   .     S
Cu956  O986    1.968   .     S
Cu956  O988    1.941   .     S
Cu956  N980    2.016   .     S
Cu957  N981    2.016   .     S
Cu957  O987    1.972   .     S
Cu957  O989    1.952   .     S
Cu957  O983    1.968   .     S
Cu957  O985    1.941   .     S
H965   C1146   1.112   .     S
H966   C1146   1.109   .     S
H968   C1147   1.111   .     S
H975   C347    1.081   1_556 S
C991   O1048   1.291   .     A
C991   O1049   1.293   .     A
C991   C999    1.449   .     S
C992   C994    1.473   .     S
C992   C1013   1.421   .     A
C992   C1009   1.403   .     A
C993   C999    1.394   .     A
C993   H1028   1.081   .     S
C993   C599    1.385   1_565 S
C994   O1050   1.299   .     A
C994   O1051   1.297   .     A
C995   O1056   1.384   .     S
C995   C996    1.416   .     A
C996   C997    1.405   .     A
C996   C1005   1.460   .     S
C997   H1035   1.082   .     S
C998   H1037   1.083   .     S
C998   C999    1.398   .     A
C998   C601    1.385   1_565 S
C1000  I1044   2.124   .     S
C1000  N1047   1.387   .     A
C1000  C1067   1.410   .     S
C1001  H1038   1.082   .     S
C1001  N1046   1.354   .     A
C1001  C1132   1.410   1_455 S
C1002  C1013   1.415   .     A
C1002  C417    1.419   1_556 S
C1002  C422    1.422   1_556 S
C1003  N1046   1.369   .     A
C1003  H1039   1.082   .     S
C1003  C1136   1.418   1_455 S
C1004  H1040   1.082   .     S
C1004  N1047   1.365   .     A
C1004  C1069   1.418   .     S
C1005  O1052   1.298   .     A
C1005  O1053   1.292   .     A
C1006  O1055   1.295   .     A
C1006  C1008   1.462   .     S
C1006  O1054   1.296   .     A
C1007  C1021   1.392   .     A
C1008  C1020   1.393   .     A
C1008  C1021   1.397   .     A
C1009  C1010   1.386   .     A
C1009  H1043   1.083   .     S
C1010  C417    1.390   1_556 S
C1010  H432    1.083   1_556 S
C1011  H1025   1.077   .     S
C1012  H1030   1.116   .     S
C1012  H1029   1.105   .     S
C1012  C1014   1.536   .     S
C1012  O1056   1.417   .     S
C1013  C1019   1.411   .     A
C1014  C1081   1.527   .     S
C1015  H1033   1.111   .     S
C1015  H1036   1.110   .     S
C1015  C1146   1.527   1_455 S
C1016  C1020   1.401   .     A
C1017  C1018   1.403   .     A
C1017  C413    1.409   1_556 S
C1017  C422    1.425   1_556 S
C1018  C1019   1.389   .     A
C1018  I1045   2.131   .     S
C1019  H1027   1.079   .     S
C1020  H1042   1.076   .     S
C1021  H1024   1.083   .     S
Cu1022 O1048   1.972   .     S
Cu1022 Cu1023  2.682   .     S
Cu1022 O1050   1.952   .     S
Cu1022 O1052   1.968   .     S
Cu1022 O1054   1.941   .     S
Cu1022 N1046   2.016   .     S
Cu1023 N1047   2.016   .     S
Cu1023 O1053   1.972   .     S
Cu1023 O1055   1.952   .     S
Cu1023 O1049   1.968   .     S
Cu1023 O1051   1.941   .     S
H1031  C618    1.112   1_565 S
H1032  C618    1.109   1_565 S
H1034  C619    1.111   1_565 S
H1041  C413    1.081   1_556 S
C1057  O1114   1.291   .     A
C1057  O1115   1.293   .     A
C1057  C1065   1.449   .     S
C1058  C1060   1.473   .     S
C1058  C1079   1.421   .     A
C1058  C1075   1.403   .     A
C1059  C1065   1.394   .     A
C1059  H1094   1.081   .     S
C1059  C665    1.385   1_565 S
C1060  O1116   1.299   .     A
C1060  O1117   1.297   .     A
C1061  O1122   1.384   .     S
C1061  C1062   1.416   .     A
C1062  C1063   1.405   .     A
C1062  C1071   1.460   .     S
C1063  H1101   1.082   .     S
C1064  H1103   1.083   .     S
C1064  C1065   1.398   .     A
C1064  C667    1.385   1_565 S
C1066  I1110   2.124   .     S
C1066  N1113   1.387   .     A
C1066  C1133   1.410   .     S
C1067  H1104   1.082   .     S
C1067  N1112   1.354   .     A
C1068  C1079   1.415   .     A
C1068  C483    1.419   1_556 S
C1068  C488    1.422   1_556 S
C1069  N1112   1.369   .     A
C1069  H1105   1.082   .     S
C1070  H1106   1.082   .     S
C1070  N1113   1.365   .     A
C1070  C1135   1.418   .     S
C1071  O1118   1.298   .     A
C1071  O1119   1.292   .     A
C1072  O1121   1.295   .     A
C1072  C1074   1.462   .     S
C1072  O1120   1.296   .     A
C1073  C1087   1.392   .     A
C1074  C1086   1.393   .     A
C1074  C1087   1.397   .     A
C1075  C1076   1.386   .     A
C1075  H1109   1.083   .     S
C1076  C483    1.390   1_556 S
C1076  H498    1.083   1_556 S
C1077  H1091   1.077   .     S
C1078  H1096   1.116   .     S
C1078  H1095   1.105   .     S
C1078  C1080   1.536   .     S
C1078  O1122   1.417   .     S
C1079  C1085   1.411   .     A
C1080  C1147   1.527   .     S
C1081  H1099   1.111   .     S
C1081  H1102   1.110   .     S
C1082  C1086   1.401   .     A
C1083  C1084   1.403   .     A
C1083  C479    1.409   1_556 S
C1083  C488    1.425   1_556 S
C1084  C1085   1.389   .     A
C1084  I1111   2.131   .     S
C1085  H1093   1.079   .     S
C1086  H1108   1.076   .     S
C1087  H1090   1.083   .     S
Cu1088 O1114   1.972   .     S
Cu1088 Cu1089  2.682   .     S
Cu1088 O1116   1.952   .     S
Cu1088 O1118   1.968   .     S
Cu1088 O1120   1.941   .     S
Cu1088 N1112   2.016   .     S
Cu1089 N1113   2.016   .     S
Cu1089 O1119   1.972   .     S
Cu1089 O1121   1.952   .     S
Cu1089 O1115   1.968   .     S
Cu1089 O1117   1.941   .     S
H1097  C684    1.112   1_565 S
H1098  C684    1.109   1_565 S
H1100  C685    1.111   1_565 S
H1107  C479    1.081   1_556 S
C1123  O1180   1.291   .     A
C1123  O1181   1.293   .     A
C1123  C1131   1.449   .     S
C1124  C1126   1.473   .     S
C1124  C1145   1.421   .     A
C1124  C1141   1.403   .     A
C1125  C1131   1.394   .     A
C1125  H1160   1.081   .     S
C1125  C731    1.385   1_565 S
C1126  O1182   1.299   .     A
C1126  O1183   1.297   .     A
C1127  O1188   1.384   .     S
C1127  C1128   1.416   .     A
C1128  C1129   1.405   .     A
C1128  C1137   1.460   .     S
C1129  H1167   1.082   .     S
C1130  H1169   1.083   .     S
C1130  C1131   1.398   .     A
C1130  C733    1.385   1_565 S
C1132  I1176   2.124   .     S
C1132  N1179   1.387   .     A
C1132  C1001   1.410   1_655 S
C1133  H1170   1.082   .     S
C1133  N1178   1.354   .     A
C1134  C1145   1.415   .     A
C1134  C549    1.419   1_556 S
C1134  C554    1.422   1_556 S
C1135  N1178   1.369   .     A
C1135  H1171   1.082   .     S
C1136  H1172   1.082   .     S
C1136  N1179   1.365   .     A
C1136  C1003   1.418   1_655 S
C1137  O1184   1.298   .     A
C1137  O1185   1.292   .     A
C1138  O1187   1.295   .     A
C1138  C1140   1.462   .     S
C1138  O1186   1.296   .     A
C1139  C1153   1.392   .     A
C1140  C1152   1.393   .     A
C1140  C1153   1.397   .     A
C1141  C1142   1.386   .     A
C1141  H1175   1.083   .     S
C1142  C549    1.390   1_556 S
C1142  H564    1.083   1_556 S
C1143  H1157   1.077   .     S
C1144  H1162   1.116   .     S
C1144  H1161   1.105   .     S
C1144  C1146   1.536   .     S
C1144  O1188   1.417   .     S
C1145  C1151   1.411   .     A
C1146  C1015   1.527   1_655 S
C1147  H1165   1.111   .     S
C1147  H1168   1.110   .     S
C1148  C1152   1.401   .     A
C1149  C1150   1.403   .     A
C1149  C545    1.409   1_556 S
C1149  C554    1.425   1_556 S
C1150  C1151   1.389   .     A
C1150  I1177   2.131   .     S
C1151  H1159   1.079   .     S
C1152  H1174   1.076   .     S
C1153  H1156   1.083   .     S
Cu1154 O1180   1.972   .     S
Cu1154 Cu1155  2.682   .     S
Cu1154 O1182   1.952   .     S
Cu1154 O1184   1.968   .     S
Cu1154 O1186   1.941   .     S
Cu1154 N1178   2.016   .     S
Cu1155 N1179   2.016   .     S
Cu1155 O1185   1.972   .     S
Cu1155 O1187   1.952   .     S
Cu1155 O1181   1.968   .     S
Cu1155 O1183   1.941   .     S
H1163  C750    1.112   1_565 S
H1164  C750    1.109   1_565 S
H1166  C751    1.111   1_565 S
H1173  C545    1.081   1_556 S
