data_str_m2_o2_o10_pcu_sym.12
_audit_creation_date              2020-01-03
_audit_creation_method            'Materials Studio'
_symmetry_space_group_name_H-M    'P1'
_symmetry_Int_Tables_number       1
_symmetry_cell_setting            triclinic
loop_
_symmetry_equiv_pos_as_xyz
  x,y,z
_cell_length_a                    26.3092
_cell_length_b                    30.1935
_cell_length_c                    27.7920
_cell_angle_alpha                 89.1608
_cell_angle_beta                  97.0865
_cell_angle_gamma                 91.4114
loop_
_atom_site_label
_atom_site_type_symbol
_atom_site_fract_x
_atom_site_fract_y
_atom_site_fract_z
_atom_site_U_iso_or_equiv
_atom_site_adp_type
_atom_site_occupancy
C1     C     0.17177   0.16501   0.25081   0.00000  Uiso   1.00
C2     C     0.18406   0.28751   0.44763   0.00000  Uiso   1.00
C3     C     0.16570   0.25007   0.02708   0.00000  Uiso   1.00
C4     C     0.16555   0.25030   0.47248   0.00000  Uiso   1.00
C5     C     0.06813   0.24843   0.23796   0.00000  Uiso   1.00
C6     C     0.26522   0.25127   0.26208   0.00000  Uiso   1.00
C7     C     0.01312   0.24246   0.23246   0.00000  Uiso   1.00
C8     C     0.32028   0.25678   0.26780   0.00000  Uiso   1.00
C9     C     0.19049   0.04584   0.29603   0.00000  Uiso   1.00
C10    C     0.14984   0.45481   0.20345   0.00000  Uiso   1.00
C11    C     0.19102   0.09278   0.29675   0.00000  Uiso   1.00
C12    C     0.16311   0.33525   0.24918   0.00000  Uiso   1.00
C13    C     0.15357   0.40839   0.20282   0.00000  Uiso   1.00
C14    C     0.18226   0.11673   0.25216   0.00000  Uiso   1.00
C15    C     0.15484   0.38392   0.24715   0.00000  Uiso   1.00
C16    C     0.18962   0.09398   0.20925   0.00000  Uiso   1.00
C17    C     0.14268   0.40675   0.28848   0.00000  Uiso   1.00
C18    C     0.19245   0.04780   0.21047   0.00000  Uiso   1.00
C19    C     0.14277   0.45326   0.28803   0.00000  Uiso   1.00
C20    C     0.17879   0.02418   0.25128   0.00000  Uiso   1.00
C21    C     0.15897   0.47674   0.24810   0.00000  Uiso   1.00
C22    C     0.21022   0.26200   0.05810   0.00000  Uiso   1.00
C23    C     0.14645   0.21361   0.44445   0.00000  Uiso   1.00
C24    C     0.20795   0.26649   0.10816   0.00000  Uiso   1.00
C25    C     0.14263   0.21623   0.39347   0.00000  Uiso   1.00
C26    C     0.12384   0.23621   0.10015   0.00000  Uiso   1.00
C27    C     0.18736   0.28508   0.39716   0.00000  Uiso   1.00
C28    C     0.12107   0.23892   0.04885   0.00000  Uiso   1.00
Cl29   Cl    0.20918   0.12049   0.35228   0.00000  Uiso   1.00
Cl30   Cl    0.10044   0.17841   0.36019   0.00000  Uiso   1.00
Cl31   Cl    0.15768   0.38346   0.14605   0.00000  Uiso   1.00
Cl32   Cl    0.20037   0.12149   0.15443   0.00000  Uiso   1.00
Cl33   Cl    0.12283   0.37875   0.33972   0.00000  Uiso   1.00
Cl34   Cl    0.22796   0.02220   0.16863   0.00000  Uiso   1.00
Cl35   Cl    0.10936   0.48044   0.33034   0.00000  Uiso   1.00
Cl36   Cl    0.27000   0.26972   0.03565   0.00000  Uiso   1.00
Cl37   Cl    0.12948   0.16312   0.47217   0.00000  Uiso   1.00
Cl38   Cl    0.25548   0.30059   0.14016   0.00000  Uiso   1.00
Cu39   Cu    0.16667   0.24999   0.29821   0.00000  Uiso   1.00
Cu40   Cu    0.16667   0.25000   0.20178   0.00000  Uiso   1.00
H41    H     0.09059   0.22485   0.11643   0.00000  Uiso   1.00
H42    H     0.20456   0.31234   0.37883   0.00000  Uiso   1.00
H43    H     0.01400   0.20886   0.17286   0.00000  Uiso   1.00
H44    H     0.31952   0.29021   0.32755   0.00000  Uiso   1.00
H45    H     0.20862   0.03826   0.36629   0.00000  Uiso   1.00
H46    H     0.11620   0.45920   0.13678   0.00000  Uiso   1.00
H47    H     0.04810   0.22430   0.04056   0.00000  Uiso   1.00
H48    H     0.20953   0.34858   0.45019   0.00000  Uiso   1.00
N49    N     0.16667   0.25001   0.12934   0.00000  Uiso   1.00
N50    N     0.16667   0.24999   0.37065   0.00000  Uiso   1.00
O51    O     0.16667   0.18572   0.29071   0.00000  Uiso   1.00
O52    O     0.01180   0.27895   0.30772   0.00000  Uiso   1.00
O53    O     0.20672   0.02045   0.33663   0.00000  Uiso   1.00
O54    O     0.13313   0.47907   0.16216   0.00000  Uiso   1.00
O55    O     0.07529   0.23144   0.01975   0.00000  Uiso   1.00
O56    O     0.19804   0.32586   0.47287   0.00000  Uiso   1.00
O57    O     0.16666   0.31427   0.20928   0.00000  Uiso   1.00
O58    O     0.16667   0.18573   0.20928   0.00000  Uiso   1.00
O59    O     0.16666   0.31427   0.29072   0.00000  Uiso   1.00
O60    O     0.09161   0.24999   0.28132   0.00000  Uiso   1.00
O61    O     0.24172   0.25000   0.21868   0.00000  Uiso   1.00
O62    O     0.09161   0.25000   0.19988   0.00000  Uiso   1.00
O63    O     0.24172   0.25000   0.30011   0.00000  Uiso   1.00
O64    O     0.32169   0.21973   0.19290   0.00000  Uiso   1.00
C65    C     0.50510   0.16501   0.25081   0.00000  Uiso   1.00
C66    C     0.51740   0.28751   0.44763   0.00000  Uiso   1.00
C67    C     0.49903   0.25007   0.02708   0.00000  Uiso   1.00
C68    C     0.49889   0.25030   0.47248   0.00000  Uiso   1.00
C69    C     0.40147   0.24843   0.23796   0.00000  Uiso   1.00
C70    C     0.59855   0.25127   0.26208   0.00000  Uiso   1.00
C71    C     0.34645   0.24246   0.23246   0.00000  Uiso   1.00
C72    C     0.65361   0.25678   0.26780   0.00000  Uiso   1.00
C73    C     0.52382   0.04584   0.29603   0.00000  Uiso   1.00
C74    C     0.48317   0.45481   0.20345   0.00000  Uiso   1.00
C75    C     0.52435   0.09278   0.29675   0.00000  Uiso   1.00
C76    C     0.49645   0.33525   0.24918   0.00000  Uiso   1.00
C77    C     0.48691   0.40839   0.20282   0.00000  Uiso   1.00
C78    C     0.51559   0.11673   0.25216   0.00000  Uiso   1.00
C79    C     0.48817   0.38392   0.24715   0.00000  Uiso   1.00
C80    C     0.52295   0.09398   0.20925   0.00000  Uiso   1.00
C81    C     0.47601   0.40675   0.28848   0.00000  Uiso   1.00
C82    C     0.52579   0.04780   0.21047   0.00000  Uiso   1.00
C83    C     0.47611   0.45326   0.28803   0.00000  Uiso   1.00
C84    C     0.51212   0.02418   0.25128   0.00000  Uiso   1.00
C85    C     0.49230   0.47674   0.24810   0.00000  Uiso   1.00
C86    C     0.54355   0.26200   0.05810   0.00000  Uiso   1.00
C87    C     0.47978   0.21361   0.44445   0.00000  Uiso   1.00
C88    C     0.54128   0.26649   0.10816   0.00000  Uiso   1.00
C89    C     0.47596   0.21623   0.39347   0.00000  Uiso   1.00
C90    C     0.45717   0.23621   0.10015   0.00000  Uiso   1.00
C91    C     0.52069   0.28508   0.39716   0.00000  Uiso   1.00
C92    C     0.45441   0.23892   0.04885   0.00000  Uiso   1.00
Cl93   Cl    0.54251   0.12049   0.35228   0.00000  Uiso   1.00
Cl94   Cl    0.43378   0.17841   0.36019   0.00000  Uiso   1.00
Cl95   Cl    0.49101   0.38346   0.14605   0.00000  Uiso   1.00
Cl96   Cl    0.53371   0.12149   0.15443   0.00000  Uiso   1.00
Cl97   Cl    0.45616   0.37875   0.33972   0.00000  Uiso   1.00
Cl98   Cl    0.56129   0.02220   0.16863   0.00000  Uiso   1.00
Cl99   Cl    0.44269   0.48044   0.33034   0.00000  Uiso   1.00
Cl100  Cl    0.60334   0.26972   0.03565   0.00000  Uiso   1.00
Cl101  Cl    0.46282   0.16312   0.47217   0.00000  Uiso   1.00
Cl102  Cl    0.58882   0.30059   0.14016   0.00000  Uiso   1.00
Cu103  Cu    0.50000   0.24999   0.29821   0.00000  Uiso   1.00
Cu104  Cu    0.50000   0.25000   0.20178   0.00000  Uiso   1.00
H105   H     0.42392   0.22485   0.11643   0.00000  Uiso   1.00
H106   H     0.53789   0.31234   0.37883   0.00000  Uiso   1.00
H107   H     0.34733   0.20886   0.17286   0.00000  Uiso   1.00
H108   H     0.65285   0.29021   0.32755   0.00000  Uiso   1.00
H109   H     0.54196   0.03826   0.36629   0.00000  Uiso   1.00
H110   H     0.44953   0.45920   0.13678   0.00000  Uiso   1.00
H111   H     0.38144   0.22430   0.04056   0.00000  Uiso   1.00
H112   H     0.54287   0.34858   0.45019   0.00000  Uiso   1.00
N113   N     0.50000   0.25001   0.12934   0.00000  Uiso   1.00
N114   N     0.50000   0.24999   0.37065   0.00000  Uiso   1.00
O115   O     0.50000   0.18572   0.29071   0.00000  Uiso   1.00
O116   O     0.34513   0.27895   0.30772   0.00000  Uiso   1.00
O117   O     0.54006   0.02045   0.33663   0.00000  Uiso   1.00
O118   O     0.46646   0.47907   0.16216   0.00000  Uiso   1.00
O119   O     0.40862   0.23144   0.01975   0.00000  Uiso   1.00
O120   O     0.53138   0.32586   0.47287   0.00000  Uiso   1.00
O121   O     0.50000   0.31427   0.20928   0.00000  Uiso   1.00
O122   O     0.50000   0.18573   0.20928   0.00000  Uiso   1.00
O123   O     0.50000   0.31427   0.29072   0.00000  Uiso   1.00
O124   O     0.42495   0.24999   0.28132   0.00000  Uiso   1.00
O125   O     0.57505   0.25000   0.21868   0.00000  Uiso   1.00
O126   O     0.42495   0.25000   0.19988   0.00000  Uiso   1.00
O127   O     0.57505   0.25000   0.30011   0.00000  Uiso   1.00
O128   O     0.65503   0.21973   0.19290   0.00000  Uiso   1.00
C129   C     0.83844   0.16501   0.25081   0.00000  Uiso   1.00
C130   C     0.85073   0.28751   0.44763   0.00000  Uiso   1.00
C131   C     0.83236   0.25007   0.02708   0.00000  Uiso   1.00
C132   C     0.83222   0.25030   0.47248   0.00000  Uiso   1.00
C133   C     0.73480   0.24843   0.23796   0.00000  Uiso   1.00
C134   C     0.93189   0.25127   0.26208   0.00000  Uiso   1.00
C135   C     0.67978   0.24246   0.23246   0.00000  Uiso   1.00
C136   C     0.98695   0.25678   0.26780   0.00000  Uiso   1.00
C137   C     0.85715   0.04584   0.29603   0.00000  Uiso   1.00
C138   C     0.81650   0.45481   0.20345   0.00000  Uiso   1.00
C139   C     0.85769   0.09278   0.29675   0.00000  Uiso   1.00
C140   C     0.82978   0.33525   0.24918   0.00000  Uiso   1.00
C141   C     0.82024   0.40839   0.20282   0.00000  Uiso   1.00
C142   C     0.84893   0.11673   0.25216   0.00000  Uiso   1.00
C143   C     0.82151   0.38392   0.24715   0.00000  Uiso   1.00
C144   C     0.85629   0.09398   0.20925   0.00000  Uiso   1.00
C145   C     0.80935   0.40675   0.28848   0.00000  Uiso   1.00
C146   C     0.85912   0.04780   0.21047   0.00000  Uiso   1.00
C147   C     0.80944   0.45326   0.28803   0.00000  Uiso   1.00
C148   C     0.84546   0.02418   0.25128   0.00000  Uiso   1.00
C149   C     0.82564   0.47674   0.24810   0.00000  Uiso   1.00
C150   C     0.87689   0.26200   0.05810   0.00000  Uiso   1.00
C151   C     0.81311   0.21361   0.44445   0.00000  Uiso   1.00
C152   C     0.87461   0.26649   0.10816   0.00000  Uiso   1.00
C153   C     0.80930   0.21623   0.39347   0.00000  Uiso   1.00
C154   C     0.79050   0.23621   0.10015   0.00000  Uiso   1.00
C155   C     0.85402   0.28508   0.39716   0.00000  Uiso   1.00
C156   C     0.78774   0.23892   0.04885   0.00000  Uiso   1.00
Cl157  Cl    0.87585   0.12049   0.35228   0.00000  Uiso   1.00
Cl158  Cl    0.76711   0.17841   0.36019   0.00000  Uiso   1.00
Cl159  Cl    0.82434   0.38346   0.14605   0.00000  Uiso   1.00
Cl160  Cl    0.86704   0.12149   0.15443   0.00000  Uiso   1.00
Cl161  Cl    0.78950   0.37875   0.33972   0.00000  Uiso   1.00
Cl162  Cl    0.89462   0.02220   0.16863   0.00000  Uiso   1.00
Cl163  Cl    0.77602   0.48044   0.33034   0.00000  Uiso   1.00
Cl164  Cl    0.93667   0.26972   0.03565   0.00000  Uiso   1.00
Cl165  Cl    0.79615   0.16312   0.47217   0.00000  Uiso   1.00
Cl166  Cl    0.92215   0.30059   0.14016   0.00000  Uiso   1.00
Cu167  Cu    0.83333   0.24999   0.29821   0.00000  Uiso   1.00
Cu168  Cu    0.83333   0.25000   0.20178   0.00000  Uiso   1.00
H169   H     0.75726   0.22485   0.11643   0.00000  Uiso   1.00
H170   H     0.87123   0.31234   0.37883   0.00000  Uiso   1.00
H171   H     0.68067   0.20886   0.17286   0.00000  Uiso   1.00
H172   H     0.98618   0.29021   0.32755   0.00000  Uiso   1.00
H173   H     0.87529   0.03826   0.36629   0.00000  Uiso   1.00
H174   H     0.78286   0.45920   0.13678   0.00000  Uiso   1.00
H175   H     0.71477   0.22430   0.04056   0.00000  Uiso   1.00
H176   H     0.87620   0.34858   0.45019   0.00000  Uiso   1.00
N177   N     0.83333   0.25001   0.12934   0.00000  Uiso   1.00
N178   N     0.83333   0.24999   0.37065   0.00000  Uiso   1.00
O179   O     0.83334   0.18572   0.29071   0.00000  Uiso   1.00
O180   O     0.67847   0.27895   0.30772   0.00000  Uiso   1.00
O181   O     0.87339   0.02045   0.33663   0.00000  Uiso   1.00
O182   O     0.79980   0.47907   0.16216   0.00000  Uiso   1.00
O183   O     0.74195   0.23144   0.01975   0.00000  Uiso   1.00
O184   O     0.86471   0.32586   0.47287   0.00000  Uiso   1.00
O185   O     0.83333   0.31427   0.20928   0.00000  Uiso   1.00
O186   O     0.83334   0.18573   0.20928   0.00000  Uiso   1.00
O187   O     0.83333   0.31427   0.29072   0.00000  Uiso   1.00
O188   O     0.75828   0.24999   0.28132   0.00000  Uiso   1.00
O189   O     0.90839   0.25000   0.21868   0.00000  Uiso   1.00
O190   O     0.75828   0.25000   0.19988   0.00000  Uiso   1.00
O191   O     0.90839   0.25000   0.30011   0.00000  Uiso   1.00
O192   O     0.98836   0.21973   0.19290   0.00000  Uiso   1.00
C193   C     0.17177   0.66501   0.25081   0.00000  Uiso   1.00
C194   C     0.18406   0.78751   0.44763   0.00000  Uiso   1.00
C195   C     0.16570   0.75007   0.02708   0.00000  Uiso   1.00
C196   C     0.16555   0.75030   0.47248   0.00000  Uiso   1.00
C197   C     0.06813   0.74843   0.23796   0.00000  Uiso   1.00
C198   C     0.26522   0.75127   0.26208   0.00000  Uiso   1.00
C199   C     0.01312   0.74246   0.23246   0.00000  Uiso   1.00
C200   C     0.32028   0.75678   0.26780   0.00000  Uiso   1.00
C201   C     0.19049   0.54584   0.29603   0.00000  Uiso   1.00
C202   C     0.14984   0.95481   0.20345   0.00000  Uiso   1.00
C203   C     0.19102   0.59278   0.29675   0.00000  Uiso   1.00
C204   C     0.16311   0.83525   0.24918   0.00000  Uiso   1.00
C205   C     0.15357   0.90839   0.20282   0.00000  Uiso   1.00
C206   C     0.18226   0.61673   0.25216   0.00000  Uiso   1.00
C207   C     0.15484   0.88392   0.24715   0.00000  Uiso   1.00
C208   C     0.18962   0.59398   0.20925   0.00000  Uiso   1.00
C209   C     0.14268   0.90675   0.28848   0.00000  Uiso   1.00
C210   C     0.19245   0.54780   0.21047   0.00000  Uiso   1.00
C211   C     0.14277   0.95326   0.28803   0.00000  Uiso   1.00
C212   C     0.17879   0.52418   0.25128   0.00000  Uiso   1.00
C213   C     0.15897   0.97674   0.24810   0.00000  Uiso   1.00
C214   C     0.21022   0.76200   0.05810   0.00000  Uiso   1.00
C215   C     0.14645   0.71361   0.44445   0.00000  Uiso   1.00
C216   C     0.20795   0.76649   0.10816   0.00000  Uiso   1.00
C217   C     0.14263   0.71623   0.39347   0.00000  Uiso   1.00
C218   C     0.12384   0.73621   0.10015   0.00000  Uiso   1.00
C219   C     0.18736   0.78508   0.39716   0.00000  Uiso   1.00
C220   C     0.12107   0.73892   0.04885   0.00000  Uiso   1.00
Cl221  Cl    0.20918   0.62049   0.35228   0.00000  Uiso   1.00
Cl222  Cl    0.10044   0.67841   0.36019   0.00000  Uiso   1.00
Cl223  Cl    0.15768   0.88346   0.14605   0.00000  Uiso   1.00
Cl224  Cl    0.20037   0.62149   0.15443   0.00000  Uiso   1.00
Cl225  Cl    0.12283   0.87875   0.33972   0.00000  Uiso   1.00
Cl226  Cl    0.22796   0.52220   0.16863   0.00000  Uiso   1.00
Cl227  Cl    0.10936   0.98044   0.33034   0.00000  Uiso   1.00
Cl228  Cl    0.27000   0.76972   0.03565   0.00000  Uiso   1.00
Cl229  Cl    0.12948   0.66312   0.47217   0.00000  Uiso   1.00
Cl230  Cl    0.25548   0.80059   0.14016   0.00000  Uiso   1.00
Cu231  Cu    0.16667   0.74999   0.29821   0.00000  Uiso   1.00
Cu232  Cu    0.16667   0.75000   0.20178   0.00000  Uiso   1.00
H233   H     0.09059   0.72485   0.11643   0.00000  Uiso   1.00
H234   H     0.20456   0.81234   0.37883   0.00000  Uiso   1.00
H235   H     0.01400   0.70886   0.17286   0.00000  Uiso   1.00
H236   H     0.31952   0.79021   0.32755   0.00000  Uiso   1.00
H237   H     0.20862   0.53826   0.36629   0.00000  Uiso   1.00
H238   H     0.11620   0.95920   0.13678   0.00000  Uiso   1.00
H239   H     0.04810   0.72430   0.04056   0.00000  Uiso   1.00
H240   H     0.20953   0.84858   0.45019   0.00000  Uiso   1.00
N241   N     0.16667   0.75001   0.12934   0.00000  Uiso   1.00
N242   N     0.16667   0.74999   0.37065   0.00000  Uiso   1.00
O243   O     0.16667   0.68572   0.29071   0.00000  Uiso   1.00
O244   O     0.01180   0.77895   0.30772   0.00000  Uiso   1.00
O245   O     0.20672   0.52045   0.33663   0.00000  Uiso   1.00
O246   O     0.13313   0.97907   0.16216   0.00000  Uiso   1.00
O247   O     0.07529   0.73144   0.01975   0.00000  Uiso   1.00
O248   O     0.19804   0.82586   0.47287   0.00000  Uiso   1.00
O249   O     0.16666   0.81427   0.20928   0.00000  Uiso   1.00
O250   O     0.16667   0.68573   0.20928   0.00000  Uiso   1.00
O251   O     0.16666   0.81427   0.29072   0.00000  Uiso   1.00
O252   O     0.09161   0.74999   0.28132   0.00000  Uiso   1.00
O253   O     0.24172   0.75000   0.21868   0.00000  Uiso   1.00
O254   O     0.09161   0.75000   0.19988   0.00000  Uiso   1.00
O255   O     0.24172   0.75000   0.30011   0.00000  Uiso   1.00
O256   O     0.32169   0.71973   0.19290   0.00000  Uiso   1.00
C257   C     0.50510   0.66501   0.25081   0.00000  Uiso   1.00
C258   C     0.51740   0.78751   0.44763   0.00000  Uiso   1.00
C259   C     0.49903   0.75007   0.02708   0.00000  Uiso   1.00
C260   C     0.49889   0.75030   0.47248   0.00000  Uiso   1.00
C261   C     0.40147   0.74843   0.23796   0.00000  Uiso   1.00
C262   C     0.59855   0.75127   0.26208   0.00000  Uiso   1.00
C263   C     0.34645   0.74246   0.23246   0.00000  Uiso   1.00
C264   C     0.65361   0.75678   0.26780   0.00000  Uiso   1.00
C265   C     0.52382   0.54584   0.29603   0.00000  Uiso   1.00
C266   C     0.48317   0.95481   0.20345   0.00000  Uiso   1.00
C267   C     0.52435   0.59278   0.29675   0.00000  Uiso   1.00
C268   C     0.49645   0.83525   0.24918   0.00000  Uiso   1.00
C269   C     0.48691   0.90839   0.20282   0.00000  Uiso   1.00
C270   C     0.51559   0.61673   0.25216   0.00000  Uiso   1.00
C271   C     0.48817   0.88392   0.24715   0.00000  Uiso   1.00
C272   C     0.52295   0.59398   0.20925   0.00000  Uiso   1.00
C273   C     0.47601   0.90675   0.28848   0.00000  Uiso   1.00
C274   C     0.52579   0.54780   0.21047   0.00000  Uiso   1.00
C275   C     0.47611   0.95326   0.28803   0.00000  Uiso   1.00
C276   C     0.51212   0.52418   0.25128   0.00000  Uiso   1.00
C277   C     0.49230   0.97674   0.24810   0.00000  Uiso   1.00
C278   C     0.54355   0.76200   0.05810   0.00000  Uiso   1.00
C279   C     0.47978   0.71361   0.44445   0.00000  Uiso   1.00
C280   C     0.54128   0.76649   0.10816   0.00000  Uiso   1.00
C281   C     0.47596   0.71623   0.39347   0.00000  Uiso   1.00
C282   C     0.45717   0.73621   0.10015   0.00000  Uiso   1.00
C283   C     0.52069   0.78508   0.39716   0.00000  Uiso   1.00
C284   C     0.45441   0.73892   0.04885   0.00000  Uiso   1.00
Cl285  Cl    0.54251   0.62049   0.35228   0.00000  Uiso   1.00
Cl286  Cl    0.43378   0.67841   0.36019   0.00000  Uiso   1.00
Cl287  Cl    0.49101   0.88346   0.14605   0.00000  Uiso   1.00
Cl288  Cl    0.53371   0.62149   0.15443   0.00000  Uiso   1.00
Cl289  Cl    0.45616   0.87875   0.33972   0.00000  Uiso   1.00
Cl290  Cl    0.56129   0.52220   0.16863   0.00000  Uiso   1.00
Cl291  Cl    0.44269   0.98044   0.33034   0.00000  Uiso   1.00
Cl292  Cl    0.60334   0.76972   0.03565   0.00000  Uiso   1.00
Cl293  Cl    0.46282   0.66312   0.47217   0.00000  Uiso   1.00
Cl294  Cl    0.58882   0.80059   0.14016   0.00000  Uiso   1.00
Cu295  Cu    0.50000   0.74999   0.29821   0.00000  Uiso   1.00
Cu296  Cu    0.50000   0.75000   0.20178   0.00000  Uiso   1.00
H297   H     0.42392   0.72485   0.11643   0.00000  Uiso   1.00
H298   H     0.53789   0.81234   0.37883   0.00000  Uiso   1.00
H299   H     0.34733   0.70886   0.17286   0.00000  Uiso   1.00
H300   H     0.65285   0.79021   0.32755   0.00000  Uiso   1.00
H301   H     0.54196   0.53826   0.36629   0.00000  Uiso   1.00
H302   H     0.44953   0.95920   0.13678   0.00000  Uiso   1.00
H303   H     0.38144   0.72430   0.04056   0.00000  Uiso   1.00
H304   H     0.54287   0.84858   0.45019   0.00000  Uiso   1.00
N305   N     0.50000   0.75001   0.12934   0.00000  Uiso   1.00
N306   N     0.50000   0.74999   0.37065   0.00000  Uiso   1.00
O307   O     0.50000   0.68572   0.29071   0.00000  Uiso   1.00
O308   O     0.34513   0.77895   0.30772   0.00000  Uiso   1.00
O309   O     0.54006   0.52045   0.33663   0.00000  Uiso   1.00
O310   O     0.46646   0.97907   0.16216   0.00000  Uiso   1.00
O311   O     0.40862   0.73144   0.01975   0.00000  Uiso   1.00
O312   O     0.53138   0.82586   0.47287   0.00000  Uiso   1.00
O313   O     0.50000   0.81427   0.20928   0.00000  Uiso   1.00
O314   O     0.50000   0.68573   0.20928   0.00000  Uiso   1.00
O315   O     0.50000   0.81427   0.29072   0.00000  Uiso   1.00
O316   O     0.42495   0.74999   0.28132   0.00000  Uiso   1.00
O317   O     0.57505   0.75000   0.21868   0.00000  Uiso   1.00
O318   O     0.42495   0.75000   0.19988   0.00000  Uiso   1.00
O319   O     0.57505   0.75000   0.30011   0.00000  Uiso   1.00
O320   O     0.65503   0.71973   0.19290   0.00000  Uiso   1.00
C321   C     0.83844   0.66501   0.25081   0.00000  Uiso   1.00
C322   C     0.85073   0.78751   0.44763   0.00000  Uiso   1.00
C323   C     0.83236   0.75007   0.02708   0.00000  Uiso   1.00
C324   C     0.83222   0.75030   0.47248   0.00000  Uiso   1.00
C325   C     0.73480   0.74843   0.23796   0.00000  Uiso   1.00
C326   C     0.93189   0.75127   0.26208   0.00000  Uiso   1.00
C327   C     0.67978   0.74246   0.23246   0.00000  Uiso   1.00
C328   C     0.98695   0.75678   0.26780   0.00000  Uiso   1.00
C329   C     0.85715   0.54584   0.29603   0.00000  Uiso   1.00
C330   C     0.81650   0.95481   0.20345   0.00000  Uiso   1.00
C331   C     0.85769   0.59278   0.29675   0.00000  Uiso   1.00
C332   C     0.82978   0.83525   0.24918   0.00000  Uiso   1.00
C333   C     0.82024   0.90839   0.20282   0.00000  Uiso   1.00
C334   C     0.84893   0.61673   0.25216   0.00000  Uiso   1.00
C335   C     0.82151   0.88392   0.24715   0.00000  Uiso   1.00
C336   C     0.85629   0.59398   0.20925   0.00000  Uiso   1.00
C337   C     0.80935   0.90675   0.28848   0.00000  Uiso   1.00
C338   C     0.85912   0.54780   0.21047   0.00000  Uiso   1.00
C339   C     0.80944   0.95326   0.28803   0.00000  Uiso   1.00
C340   C     0.84546   0.52418   0.25128   0.00000  Uiso   1.00
C341   C     0.82564   0.97674   0.24810   0.00000  Uiso   1.00
C342   C     0.87689   0.76200   0.05810   0.00000  Uiso   1.00
C343   C     0.81311   0.71361   0.44445   0.00000  Uiso   1.00
C344   C     0.87461   0.76649   0.10816   0.00000  Uiso   1.00
C345   C     0.80930   0.71623   0.39347   0.00000  Uiso   1.00
C346   C     0.79050   0.73621   0.10015   0.00000  Uiso   1.00
C347   C     0.85402   0.78508   0.39716   0.00000  Uiso   1.00
C348   C     0.78774   0.73892   0.04885   0.00000  Uiso   1.00
Cl349  Cl    0.87585   0.62049   0.35228   0.00000  Uiso   1.00
Cl350  Cl    0.76711   0.67841   0.36019   0.00000  Uiso   1.00
Cl351  Cl    0.82434   0.88346   0.14605   0.00000  Uiso   1.00
Cl352  Cl    0.86704   0.62149   0.15443   0.00000  Uiso   1.00
Cl353  Cl    0.78950   0.87875   0.33972   0.00000  Uiso   1.00
Cl354  Cl    0.89462   0.52220   0.16863   0.00000  Uiso   1.00
Cl355  Cl    0.77602   0.98044   0.33034   0.00000  Uiso   1.00
Cl356  Cl    0.93667   0.76972   0.03565   0.00000  Uiso   1.00
Cl357  Cl    0.79615   0.66312   0.47217   0.00000  Uiso   1.00
Cl358  Cl    0.92215   0.80059   0.14016   0.00000  Uiso   1.00
Cu359  Cu    0.83333   0.74999   0.29821   0.00000  Uiso   1.00
Cu360  Cu    0.83333   0.75000   0.20178   0.00000  Uiso   1.00
H361   H     0.75726   0.72485   0.11643   0.00000  Uiso   1.00
H362   H     0.87123   0.81234   0.37883   0.00000  Uiso   1.00
H363   H     0.68067   0.70886   0.17286   0.00000  Uiso   1.00
H364   H     0.98618   0.79021   0.32755   0.00000  Uiso   1.00
H365   H     0.87529   0.53826   0.36629   0.00000  Uiso   1.00
H366   H     0.78286   0.95920   0.13678   0.00000  Uiso   1.00
H367   H     0.71477   0.72430   0.04056   0.00000  Uiso   1.00
H368   H     0.87620   0.84858   0.45019   0.00000  Uiso   1.00
N369   N     0.83333   0.75001   0.12934   0.00000  Uiso   1.00
N370   N     0.83333   0.74999   0.37065   0.00000  Uiso   1.00
O371   O     0.83334   0.68572   0.29071   0.00000  Uiso   1.00
O372   O     0.67847   0.77895   0.30772   0.00000  Uiso   1.00
O373   O     0.87339   0.52045   0.33663   0.00000  Uiso   1.00
O374   O     0.79980   0.97907   0.16216   0.00000  Uiso   1.00
O375   O     0.74195   0.73144   0.01975   0.00000  Uiso   1.00
O376   O     0.86471   0.82586   0.47287   0.00000  Uiso   1.00
O377   O     0.83333   0.81427   0.20928   0.00000  Uiso   1.00
O378   O     0.83334   0.68573   0.20928   0.00000  Uiso   1.00
O379   O     0.83333   0.81427   0.29072   0.00000  Uiso   1.00
O380   O     0.75828   0.74999   0.28132   0.00000  Uiso   1.00
O381   O     0.90839   0.75000   0.21868   0.00000  Uiso   1.00
O382   O     0.75828   0.75000   0.19988   0.00000  Uiso   1.00
O383   O     0.90839   0.75000   0.30011   0.00000  Uiso   1.00
O384   O     0.98836   0.71973   0.19290   0.00000  Uiso   1.00
C385   C     0.17177   0.16501   0.75081   0.00000  Uiso   1.00
C386   C     0.18406   0.28751   0.94763   0.00000  Uiso   1.00
C387   C     0.16570   0.25007   0.52708   0.00000  Uiso   1.00
C388   C     0.16555   0.25030   0.97248   0.00000  Uiso   1.00
C389   C     0.06813   0.24843   0.73796   0.00000  Uiso   1.00
C390   C     0.26522   0.25127   0.76208   0.00000  Uiso   1.00
C391   C     0.01312   0.24246   0.73246   0.00000  Uiso   1.00
C392   C     0.32028   0.25678   0.76780   0.00000  Uiso   1.00
C393   C     0.19049   0.04584   0.79603   0.00000  Uiso   1.00
C394   C     0.14984   0.45481   0.70345   0.00000  Uiso   1.00
C395   C     0.19102   0.09278   0.79675   0.00000  Uiso   1.00
C396   C     0.16311   0.33525   0.74918   0.00000  Uiso   1.00
C397   C     0.15357   0.40839   0.70282   0.00000  Uiso   1.00
C398   C     0.18226   0.11673   0.75216   0.00000  Uiso   1.00
C399   C     0.15484   0.38392   0.74715   0.00000  Uiso   1.00
C400   C     0.18962   0.09398   0.70925   0.00000  Uiso   1.00
C401   C     0.14268   0.40675   0.78848   0.00000  Uiso   1.00
C402   C     0.19245   0.04780   0.71047   0.00000  Uiso   1.00
C403   C     0.14277   0.45326   0.78803   0.00000  Uiso   1.00
C404   C     0.17879   0.02418   0.75128   0.00000  Uiso   1.00
C405   C     0.15897   0.47674   0.74810   0.00000  Uiso   1.00
C406   C     0.21022   0.26200   0.55810   0.00000  Uiso   1.00
C407   C     0.14645   0.21361   0.94445   0.00000  Uiso   1.00
C408   C     0.20795   0.26649   0.60816   0.00000  Uiso   1.00
C409   C     0.14263   0.21623   0.89347   0.00000  Uiso   1.00
C410   C     0.12384   0.23621   0.60015   0.00000  Uiso   1.00
C411   C     0.18736   0.28508   0.89716   0.00000  Uiso   1.00
C412   C     0.12107   0.23892   0.54885   0.00000  Uiso   1.00
Cl413  Cl    0.20918   0.12049   0.85228   0.00000  Uiso   1.00
Cl414  Cl    0.10044   0.17841   0.86019   0.00000  Uiso   1.00
Cl415  Cl    0.15768   0.38346   0.64605   0.00000  Uiso   1.00
Cl416  Cl    0.20037   0.12149   0.65443   0.00000  Uiso   1.00
Cl417  Cl    0.12283   0.37875   0.83972   0.00000  Uiso   1.00
Cl418  Cl    0.22796   0.02220   0.66863   0.00000  Uiso   1.00
Cl419  Cl    0.10936   0.48044   0.83034   0.00000  Uiso   1.00
Cl420  Cl    0.27000   0.26972   0.53565   0.00000  Uiso   1.00
Cl421  Cl    0.12948   0.16312   0.97217   0.00000  Uiso   1.00
Cl422  Cl    0.25548   0.30059   0.64016   0.00000  Uiso   1.00
Cu423  Cu    0.16667   0.24999   0.79821   0.00000  Uiso   1.00
Cu424  Cu    0.16667   0.25000   0.70178   0.00000  Uiso   1.00
H425   H     0.09059   0.22485   0.61643   0.00000  Uiso   1.00
H426   H     0.20456   0.31234   0.87883   0.00000  Uiso   1.00
H427   H     0.01400   0.20886   0.67286   0.00000  Uiso   1.00
H428   H     0.31952   0.29021   0.82755   0.00000  Uiso   1.00
H429   H     0.20862   0.03826   0.86629   0.00000  Uiso   1.00
H430   H     0.11620   0.45920   0.63678   0.00000  Uiso   1.00
H431   H     0.04810   0.22430   0.54056   0.00000  Uiso   1.00
H432   H     0.20953   0.34858   0.95019   0.00000  Uiso   1.00
N433   N     0.16667   0.25001   0.62934   0.00000  Uiso   1.00
N434   N     0.16667   0.24999   0.87065   0.00000  Uiso   1.00
O435   O     0.16667   0.18572   0.79071   0.00000  Uiso   1.00
O436   O     0.01180   0.27895   0.80772   0.00000  Uiso   1.00
O437   O     0.20672   0.02045   0.83663   0.00000  Uiso   1.00
O438   O     0.13313   0.47907   0.66216   0.00000  Uiso   1.00
O439   O     0.07529   0.23144   0.51975   0.00000  Uiso   1.00
O440   O     0.19804   0.32586   0.97287   0.00000  Uiso   1.00
O441   O     0.16666   0.31427   0.70928   0.00000  Uiso   1.00
O442   O     0.16667   0.18573   0.70928   0.00000  Uiso   1.00
O443   O     0.16666   0.31427   0.79072   0.00000  Uiso   1.00
O444   O     0.09161   0.24999   0.78132   0.00000  Uiso   1.00
O445   O     0.24172   0.25000   0.71868   0.00000  Uiso   1.00
O446   O     0.09161   0.25000   0.69988   0.00000  Uiso   1.00
O447   O     0.24172   0.25000   0.80011   0.00000  Uiso   1.00
O448   O     0.32169   0.21973   0.69290   0.00000  Uiso   1.00
C449   C     0.50510   0.16501   0.75081   0.00000  Uiso   1.00
C450   C     0.51740   0.28751   0.94763   0.00000  Uiso   1.00
C451   C     0.49903   0.25007   0.52708   0.00000  Uiso   1.00
C452   C     0.49889   0.25030   0.97248   0.00000  Uiso   1.00
C453   C     0.40147   0.24843   0.73796   0.00000  Uiso   1.00
C454   C     0.59855   0.25127   0.76208   0.00000  Uiso   1.00
C455   C     0.34645   0.24246   0.73246   0.00000  Uiso   1.00
C456   C     0.65361   0.25678   0.76780   0.00000  Uiso   1.00
C457   C     0.52382   0.04584   0.79603   0.00000  Uiso   1.00
C458   C     0.48317   0.45481   0.70345   0.00000  Uiso   1.00
C459   C     0.52435   0.09278   0.79675   0.00000  Uiso   1.00
C460   C     0.49645   0.33525   0.74918   0.00000  Uiso   1.00
C461   C     0.48691   0.40839   0.70282   0.00000  Uiso   1.00
C462   C     0.51559   0.11673   0.75216   0.00000  Uiso   1.00
C463   C     0.48817   0.38392   0.74715   0.00000  Uiso   1.00
C464   C     0.52295   0.09398   0.70925   0.00000  Uiso   1.00
C465   C     0.47601   0.40675   0.78848   0.00000  Uiso   1.00
C466   C     0.52579   0.04780   0.71047   0.00000  Uiso   1.00
C467   C     0.47611   0.45326   0.78803   0.00000  Uiso   1.00
C468   C     0.51212   0.02418   0.75128   0.00000  Uiso   1.00
C469   C     0.49230   0.47674   0.74810   0.00000  Uiso   1.00
C470   C     0.54355   0.26200   0.55810   0.00000  Uiso   1.00
C471   C     0.47978   0.21361   0.94445   0.00000  Uiso   1.00
C472   C     0.54128   0.26649   0.60816   0.00000  Uiso   1.00
C473   C     0.47596   0.21623   0.89347   0.00000  Uiso   1.00
C474   C     0.45717   0.23621   0.60015   0.00000  Uiso   1.00
C475   C     0.52069   0.28508   0.89716   0.00000  Uiso   1.00
C476   C     0.45441   0.23892   0.54885   0.00000  Uiso   1.00
Cl477  Cl    0.54251   0.12049   0.85228   0.00000  Uiso   1.00
Cl478  Cl    0.43378   0.17841   0.86019   0.00000  Uiso   1.00
Cl479  Cl    0.49101   0.38346   0.64605   0.00000  Uiso   1.00
Cl480  Cl    0.53371   0.12149   0.65443   0.00000  Uiso   1.00
Cl481  Cl    0.45616   0.37875   0.83972   0.00000  Uiso   1.00
Cl482  Cl    0.56129   0.02220   0.66863   0.00000  Uiso   1.00
Cl483  Cl    0.44269   0.48044   0.83034   0.00000  Uiso   1.00
Cl484  Cl    0.60334   0.26972   0.53565   0.00000  Uiso   1.00
Cl485  Cl    0.46282   0.16312   0.97217   0.00000  Uiso   1.00
Cl486  Cl    0.58882   0.30059   0.64016   0.00000  Uiso   1.00
Cu487  Cu    0.50000   0.24999   0.79821   0.00000  Uiso   1.00
Cu488  Cu    0.50000   0.25000   0.70178   0.00000  Uiso   1.00
H489   H     0.42392   0.22485   0.61643   0.00000  Uiso   1.00
H490   H     0.53789   0.31234   0.87883   0.00000  Uiso   1.00
H491   H     0.34733   0.20886   0.67286   0.00000  Uiso   1.00
H492   H     0.65285   0.29021   0.82755   0.00000  Uiso   1.00
H493   H     0.54196   0.03826   0.86629   0.00000  Uiso   1.00
H494   H     0.44953   0.45920   0.63678   0.00000  Uiso   1.00
H495   H     0.38144   0.22430   0.54056   0.00000  Uiso   1.00
H496   H     0.54287   0.34858   0.95019   0.00000  Uiso   1.00
N497   N     0.50000   0.25001   0.62934   0.00000  Uiso   1.00
N498   N     0.50000   0.24999   0.87065   0.00000  Uiso   1.00
O499   O     0.50000   0.18572   0.79071   0.00000  Uiso   1.00
O500   O     0.34513   0.27895   0.80772   0.00000  Uiso   1.00
O501   O     0.54006   0.02045   0.83663   0.00000  Uiso   1.00
O502   O     0.46646   0.47907   0.66216   0.00000  Uiso   1.00
O503   O     0.40862   0.23144   0.51975   0.00000  Uiso   1.00
O504   O     0.53138   0.32586   0.97287   0.00000  Uiso   1.00
O505   O     0.50000   0.31427   0.70928   0.00000  Uiso   1.00
O506   O     0.50000   0.18573   0.70928   0.00000  Uiso   1.00
O507   O     0.50000   0.31427   0.79072   0.00000  Uiso   1.00
O508   O     0.42495   0.24999   0.78132   0.00000  Uiso   1.00
O509   O     0.57505   0.25000   0.71868   0.00000  Uiso   1.00
O510   O     0.42495   0.25000   0.69988   0.00000  Uiso   1.00
O511   O     0.57505   0.25000   0.80011   0.00000  Uiso   1.00
O512   O     0.65503   0.21973   0.69290   0.00000  Uiso   1.00
C513   C     0.83844   0.16501   0.75081   0.00000  Uiso   1.00
C514   C     0.85073   0.28751   0.94763   0.00000  Uiso   1.00
C515   C     0.83236   0.25007   0.52708   0.00000  Uiso   1.00
C516   C     0.83222   0.25030   0.97248   0.00000  Uiso   1.00
C517   C     0.73480   0.24843   0.73796   0.00000  Uiso   1.00
C518   C     0.93189   0.25127   0.76208   0.00000  Uiso   1.00
C519   C     0.67978   0.24246   0.73246   0.00000  Uiso   1.00
C520   C     0.98695   0.25678   0.76780   0.00000  Uiso   1.00
C521   C     0.85715   0.04584   0.79603   0.00000  Uiso   1.00
C522   C     0.81650   0.45481   0.70345   0.00000  Uiso   1.00
C523   C     0.85769   0.09278   0.79675   0.00000  Uiso   1.00
C524   C     0.82978   0.33525   0.74918   0.00000  Uiso   1.00
C525   C     0.82024   0.40839   0.70282   0.00000  Uiso   1.00
C526   C     0.84893   0.11673   0.75216   0.00000  Uiso   1.00
C527   C     0.82151   0.38392   0.74715   0.00000  Uiso   1.00
C528   C     0.85629   0.09398   0.70925   0.00000  Uiso   1.00
C529   C     0.80935   0.40675   0.78848   0.00000  Uiso   1.00
C530   C     0.85912   0.04780   0.71047   0.00000  Uiso   1.00
C531   C     0.80944   0.45326   0.78803   0.00000  Uiso   1.00
C532   C     0.84546   0.02418   0.75128   0.00000  Uiso   1.00
C533   C     0.82564   0.47674   0.74810   0.00000  Uiso   1.00
C534   C     0.87689   0.26200   0.55810   0.00000  Uiso   1.00
C535   C     0.81311   0.21361   0.94445   0.00000  Uiso   1.00
C536   C     0.87461   0.26649   0.60816   0.00000  Uiso   1.00
C537   C     0.80930   0.21623   0.89347   0.00000  Uiso   1.00
C538   C     0.79050   0.23621   0.60015   0.00000  Uiso   1.00
C539   C     0.85402   0.28508   0.89716   0.00000  Uiso   1.00
C540   C     0.78774   0.23892   0.54885   0.00000  Uiso   1.00
Cl541  Cl    0.87585   0.12049   0.85228   0.00000  Uiso   1.00
Cl542  Cl    0.76711   0.17841   0.86019   0.00000  Uiso   1.00
Cl543  Cl    0.82434   0.38346   0.64605   0.00000  Uiso   1.00
Cl544  Cl    0.86704   0.12149   0.65443   0.00000  Uiso   1.00
Cl545  Cl    0.78950   0.37875   0.83972   0.00000  Uiso   1.00
Cl546  Cl    0.89462   0.02220   0.66863   0.00000  Uiso   1.00
Cl547  Cl    0.77602   0.48044   0.83034   0.00000  Uiso   1.00
Cl548  Cl    0.93667   0.26972   0.53565   0.00000  Uiso   1.00
Cl549  Cl    0.79615   0.16312   0.97217   0.00000  Uiso   1.00
Cl550  Cl    0.92215   0.30059   0.64016   0.00000  Uiso   1.00
Cu551  Cu    0.83333   0.24999   0.79821   0.00000  Uiso   1.00
Cu552  Cu    0.83333   0.25000   0.70178   0.00000  Uiso   1.00
H553   H     0.75726   0.22485   0.61643   0.00000  Uiso   1.00
H554   H     0.87123   0.31234   0.87883   0.00000  Uiso   1.00
H555   H     0.68067   0.20886   0.67286   0.00000  Uiso   1.00
H556   H     0.98618   0.29021   0.82755   0.00000  Uiso   1.00
H557   H     0.87529   0.03826   0.86629   0.00000  Uiso   1.00
H558   H     0.78286   0.45920   0.63678   0.00000  Uiso   1.00
H559   H     0.71477   0.22430   0.54056   0.00000  Uiso   1.00
H560   H     0.87620   0.34858   0.95019   0.00000  Uiso   1.00
N561   N     0.83333   0.25001   0.62934   0.00000  Uiso   1.00
N562   N     0.83333   0.24999   0.87065   0.00000  Uiso   1.00
O563   O     0.83334   0.18572   0.79071   0.00000  Uiso   1.00
O564   O     0.67847   0.27895   0.80772   0.00000  Uiso   1.00
O565   O     0.87339   0.02045   0.83663   0.00000  Uiso   1.00
O566   O     0.79980   0.47907   0.66216   0.00000  Uiso   1.00
O567   O     0.74195   0.23144   0.51975   0.00000  Uiso   1.00
O568   O     0.86471   0.32586   0.97287   0.00000  Uiso   1.00
O569   O     0.83333   0.31427   0.70928   0.00000  Uiso   1.00
O570   O     0.83334   0.18573   0.70928   0.00000  Uiso   1.00
O571   O     0.83333   0.31427   0.79072   0.00000  Uiso   1.00
O572   O     0.75828   0.24999   0.78132   0.00000  Uiso   1.00
O573   O     0.90839   0.25000   0.71868   0.00000  Uiso   1.00
O574   O     0.75828   0.25000   0.69988   0.00000  Uiso   1.00
O575   O     0.90839   0.25000   0.80011   0.00000  Uiso   1.00
O576   O     0.98836   0.21973   0.69290   0.00000  Uiso   1.00
C577   C     0.17177   0.66501   0.75081   0.00000  Uiso   1.00
C578   C     0.18406   0.78751   0.94763   0.00000  Uiso   1.00
C579   C     0.16570   0.75007   0.52708   0.00000  Uiso   1.00
C580   C     0.16555   0.75030   0.97248   0.00000  Uiso   1.00
C581   C     0.06813   0.74843   0.73796   0.00000  Uiso   1.00
C582   C     0.26522   0.75127   0.76208   0.00000  Uiso   1.00
C583   C     0.01312   0.74246   0.73246   0.00000  Uiso   1.00
C584   C     0.32028   0.75678   0.76780   0.00000  Uiso   1.00
C585   C     0.19049   0.54584   0.79603   0.00000  Uiso   1.00
C586   C     0.14984   0.95481   0.70345   0.00000  Uiso   1.00
C587   C     0.19102   0.59278   0.79675   0.00000  Uiso   1.00
C588   C     0.16311   0.83525   0.74918   0.00000  Uiso   1.00
C589   C     0.15357   0.90839   0.70282   0.00000  Uiso   1.00
C590   C     0.18226   0.61673   0.75216   0.00000  Uiso   1.00
C591   C     0.15484   0.88392   0.74715   0.00000  Uiso   1.00
C592   C     0.18962   0.59398   0.70925   0.00000  Uiso   1.00
C593   C     0.14268   0.90675   0.78848   0.00000  Uiso   1.00
C594   C     0.19245   0.54780   0.71047   0.00000  Uiso   1.00
C595   C     0.14277   0.95326   0.78803   0.00000  Uiso   1.00
C596   C     0.17879   0.52418   0.75128   0.00000  Uiso   1.00
C597   C     0.15897   0.97674   0.74810   0.00000  Uiso   1.00
C598   C     0.21022   0.76200   0.55810   0.00000  Uiso   1.00
C599   C     0.14645   0.71361   0.94445   0.00000  Uiso   1.00
C600   C     0.20795   0.76649   0.60816   0.00000  Uiso   1.00
C601   C     0.14263   0.71623   0.89347   0.00000  Uiso   1.00
C602   C     0.12384   0.73621   0.60015   0.00000  Uiso   1.00
C603   C     0.18736   0.78508   0.89716   0.00000  Uiso   1.00
C604   C     0.12107   0.73892   0.54885   0.00000  Uiso   1.00
Cl605  Cl    0.20918   0.62049   0.85228   0.00000  Uiso   1.00
Cl606  Cl    0.10044   0.67841   0.86019   0.00000  Uiso   1.00
Cl607  Cl    0.15768   0.88346   0.64605   0.00000  Uiso   1.00
Cl608  Cl    0.20037   0.62149   0.65443   0.00000  Uiso   1.00
Cl609  Cl    0.12283   0.87875   0.83972   0.00000  Uiso   1.00
Cl610  Cl    0.22796   0.52220   0.66863   0.00000  Uiso   1.00
Cl611  Cl    0.10936   0.98044   0.83034   0.00000  Uiso   1.00
Cl612  Cl    0.27000   0.76972   0.53565   0.00000  Uiso   1.00
Cl613  Cl    0.12948   0.66312   0.97217   0.00000  Uiso   1.00
Cl614  Cl    0.25548   0.80059   0.64016   0.00000  Uiso   1.00
Cu615  Cu    0.16667   0.74999   0.79821   0.00000  Uiso   1.00
Cu616  Cu    0.16667   0.75000   0.70178   0.00000  Uiso   1.00
H617   H     0.09059   0.72485   0.61643   0.00000  Uiso   1.00
H618   H     0.20456   0.81234   0.87883   0.00000  Uiso   1.00
H619   H     0.01400   0.70886   0.67286   0.00000  Uiso   1.00
H620   H     0.31952   0.79021   0.82755   0.00000  Uiso   1.00
H621   H     0.20862   0.53826   0.86629   0.00000  Uiso   1.00
H622   H     0.11620   0.95920   0.63678   0.00000  Uiso   1.00
H623   H     0.04810   0.72430   0.54056   0.00000  Uiso   1.00
H624   H     0.20953   0.84858   0.95019   0.00000  Uiso   1.00
N625   N     0.16667   0.75001   0.62934   0.00000  Uiso   1.00
N626   N     0.16667   0.74999   0.87065   0.00000  Uiso   1.00
O627   O     0.16667   0.68572   0.79071   0.00000  Uiso   1.00
O628   O     0.01180   0.77895   0.80772   0.00000  Uiso   1.00
O629   O     0.20672   0.52045   0.83663   0.00000  Uiso   1.00
O630   O     0.13313   0.97907   0.66216   0.00000  Uiso   1.00
O631   O     0.07529   0.73144   0.51975   0.00000  Uiso   1.00
O632   O     0.19804   0.82586   0.97287   0.00000  Uiso   1.00
O633   O     0.16666   0.81427   0.70928   0.00000  Uiso   1.00
O634   O     0.16667   0.68573   0.70928   0.00000  Uiso   1.00
O635   O     0.16666   0.81427   0.79072   0.00000  Uiso   1.00
O636   O     0.09161   0.74999   0.78132   0.00000  Uiso   1.00
O637   O     0.24172   0.75000   0.71868   0.00000  Uiso   1.00
O638   O     0.09161   0.75000   0.69988   0.00000  Uiso   1.00
O639   O     0.24172   0.75000   0.80011   0.00000  Uiso   1.00
O640   O     0.32169   0.71973   0.69290   0.00000  Uiso   1.00
C641   C     0.50510   0.66501   0.75081   0.00000  Uiso   1.00
C642   C     0.51740   0.78751   0.94763   0.00000  Uiso   1.00
C643   C     0.49903   0.75007   0.52708   0.00000  Uiso   1.00
C644   C     0.49889   0.75030   0.97248   0.00000  Uiso   1.00
C645   C     0.40147   0.74843   0.73796   0.00000  Uiso   1.00
C646   C     0.59855   0.75127   0.76208   0.00000  Uiso   1.00
C647   C     0.34645   0.74246   0.73246   0.00000  Uiso   1.00
C648   C     0.65361   0.75678   0.76780   0.00000  Uiso   1.00
C649   C     0.52382   0.54584   0.79603   0.00000  Uiso   1.00
C650   C     0.48317   0.95481   0.70345   0.00000  Uiso   1.00
C651   C     0.52435   0.59278   0.79675   0.00000  Uiso   1.00
C652   C     0.49645   0.83525   0.74918   0.00000  Uiso   1.00
C653   C     0.48691   0.90839   0.70282   0.00000  Uiso   1.00
C654   C     0.51559   0.61673   0.75216   0.00000  Uiso   1.00
C655   C     0.48817   0.88392   0.74715   0.00000  Uiso   1.00
C656   C     0.52295   0.59398   0.70925   0.00000  Uiso   1.00
C657   C     0.47601   0.90675   0.78848   0.00000  Uiso   1.00
C658   C     0.52579   0.54780   0.71047   0.00000  Uiso   1.00
C659   C     0.47611   0.95326   0.78803   0.00000  Uiso   1.00
C660   C     0.51212   0.52418   0.75128   0.00000  Uiso   1.00
C661   C     0.49230   0.97674   0.74810   0.00000  Uiso   1.00
C662   C     0.54355   0.76200   0.55810   0.00000  Uiso   1.00
C663   C     0.47978   0.71361   0.94445   0.00000  Uiso   1.00
C664   C     0.54128   0.76649   0.60816   0.00000  Uiso   1.00
C665   C     0.47596   0.71623   0.89347   0.00000  Uiso   1.00
C666   C     0.45717   0.73621   0.60015   0.00000  Uiso   1.00
C667   C     0.52069   0.78508   0.89716   0.00000  Uiso   1.00
C668   C     0.45441   0.73892   0.54885   0.00000  Uiso   1.00
Cl669  Cl    0.54251   0.62049   0.85228   0.00000  Uiso   1.00
Cl670  Cl    0.43378   0.67841   0.86019   0.00000  Uiso   1.00
Cl671  Cl    0.49101   0.88346   0.64605   0.00000  Uiso   1.00
Cl672  Cl    0.53371   0.62149   0.65443   0.00000  Uiso   1.00
Cl673  Cl    0.45616   0.87875   0.83972   0.00000  Uiso   1.00
Cl674  Cl    0.56129   0.52220   0.66863   0.00000  Uiso   1.00
Cl675  Cl    0.44269   0.98044   0.83034   0.00000  Uiso   1.00
Cl676  Cl    0.60334   0.76972   0.53565   0.00000  Uiso   1.00
Cl677  Cl    0.46282   0.66312   0.97217   0.00000  Uiso   1.00
Cl678  Cl    0.58882   0.80059   0.64016   0.00000  Uiso   1.00
Cu679  Cu    0.50000   0.74999   0.79821   0.00000  Uiso   1.00
Cu680  Cu    0.50000   0.75000   0.70178   0.00000  Uiso   1.00
H681   H     0.42392   0.72485   0.61643   0.00000  Uiso   1.00
H682   H     0.53789   0.81234   0.87883   0.00000  Uiso   1.00
H683   H     0.34733   0.70886   0.67286   0.00000  Uiso   1.00
H684   H     0.65285   0.79021   0.82755   0.00000  Uiso   1.00
H685   H     0.54196   0.53826   0.86629   0.00000  Uiso   1.00
H686   H     0.44953   0.95920   0.63678   0.00000  Uiso   1.00
H687   H     0.38144   0.72430   0.54056   0.00000  Uiso   1.00
H688   H     0.54287   0.84858   0.95019   0.00000  Uiso   1.00
N689   N     0.50000   0.75001   0.62934   0.00000  Uiso   1.00
N690   N     0.50000   0.74999   0.87065   0.00000  Uiso   1.00
O691   O     0.50000   0.68572   0.79071   0.00000  Uiso   1.00
O692   O     0.34513   0.77895   0.80772   0.00000  Uiso   1.00
O693   O     0.54006   0.52045   0.83663   0.00000  Uiso   1.00
O694   O     0.46646   0.97907   0.66216   0.00000  Uiso   1.00
O695   O     0.40862   0.73144   0.51975   0.00000  Uiso   1.00
O696   O     0.53138   0.82586   0.97287   0.00000  Uiso   1.00
O697   O     0.50000   0.81427   0.70928   0.00000  Uiso   1.00
O698   O     0.50000   0.68573   0.70928   0.00000  Uiso   1.00
O699   O     0.50000   0.81427   0.79072   0.00000  Uiso   1.00
O700   O     0.42495   0.74999   0.78132   0.00000  Uiso   1.00
O701   O     0.57505   0.75000   0.71868   0.00000  Uiso   1.00
O702   O     0.42495   0.75000   0.69988   0.00000  Uiso   1.00
O703   O     0.57505   0.75000   0.80011   0.00000  Uiso   1.00
O704   O     0.65503   0.71973   0.69290   0.00000  Uiso   1.00
C705   C     0.83844   0.66501   0.75081   0.00000  Uiso   1.00
C706   C     0.85073   0.78751   0.94763   0.00000  Uiso   1.00
C707   C     0.83236   0.75007   0.52708   0.00000  Uiso   1.00
C708   C     0.83222   0.75030   0.97248   0.00000  Uiso   1.00
C709   C     0.73480   0.74843   0.73796   0.00000  Uiso   1.00
C710   C     0.93189   0.75127   0.76208   0.00000  Uiso   1.00
C711   C     0.67978   0.74246   0.73246   0.00000  Uiso   1.00
C712   C     0.98695   0.75678   0.76780   0.00000  Uiso   1.00
C713   C     0.85715   0.54584   0.79603   0.00000  Uiso   1.00
C714   C     0.81650   0.95481   0.70345   0.00000  Uiso   1.00
C715   C     0.85769   0.59278   0.79675   0.00000  Uiso   1.00
C716   C     0.82978   0.83525   0.74918   0.00000  Uiso   1.00
C717   C     0.82024   0.90839   0.70282   0.00000  Uiso   1.00
C718   C     0.84893   0.61673   0.75216   0.00000  Uiso   1.00
C719   C     0.82151   0.88392   0.74715   0.00000  Uiso   1.00
C720   C     0.85629   0.59398   0.70925   0.00000  Uiso   1.00
C721   C     0.80935   0.90675   0.78848   0.00000  Uiso   1.00
C722   C     0.85912   0.54780   0.71047   0.00000  Uiso   1.00
C723   C     0.80944   0.95326   0.78803   0.00000  Uiso   1.00
C724   C     0.84546   0.52418   0.75128   0.00000  Uiso   1.00
C725   C     0.82564   0.97674   0.74810   0.00000  Uiso   1.00
C726   C     0.87689   0.76200   0.55810   0.00000  Uiso   1.00
C727   C     0.81311   0.71361   0.94445   0.00000  Uiso   1.00
C728   C     0.87461   0.76649   0.60816   0.00000  Uiso   1.00
C729   C     0.80930   0.71623   0.89347   0.00000  Uiso   1.00
C730   C     0.79050   0.73621   0.60015   0.00000  Uiso   1.00
C731   C     0.85402   0.78508   0.89716   0.00000  Uiso   1.00
C732   C     0.78774   0.73892   0.54885   0.00000  Uiso   1.00
Cl733  Cl    0.87585   0.62049   0.85228   0.00000  Uiso   1.00
Cl734  Cl    0.76711   0.67841   0.86019   0.00000  Uiso   1.00
Cl735  Cl    0.82434   0.88346   0.64605   0.00000  Uiso   1.00
Cl736  Cl    0.86704   0.62149   0.65443   0.00000  Uiso   1.00
Cl737  Cl    0.78950   0.87875   0.83972   0.00000  Uiso   1.00
Cl738  Cl    0.89462   0.52220   0.66863   0.00000  Uiso   1.00
Cl739  Cl    0.77602   0.98044   0.83034   0.00000  Uiso   1.00
Cl740  Cl    0.93667   0.76972   0.53565   0.00000  Uiso   1.00
Cl741  Cl    0.79615   0.66312   0.97217   0.00000  Uiso   1.00
Cl742  Cl    0.92215   0.80059   0.64016   0.00000  Uiso   1.00
Cu743  Cu    0.83333   0.74999   0.79821   0.00000  Uiso   1.00
Cu744  Cu    0.83333   0.75000   0.70178   0.00000  Uiso   1.00
H745   H     0.75726   0.72485   0.61643   0.00000  Uiso   1.00
H746   H     0.87123   0.81234   0.87883   0.00000  Uiso   1.00
H747   H     0.68067   0.70886   0.67286   0.00000  Uiso   1.00
H748   H     0.98618   0.79021   0.82755   0.00000  Uiso   1.00
H749   H     0.87529   0.53826   0.86629   0.00000  Uiso   1.00
H750   H     0.78286   0.95920   0.63678   0.00000  Uiso   1.00
H751   H     0.71477   0.72430   0.54056   0.00000  Uiso   1.00
H752   H     0.87620   0.84858   0.95019   0.00000  Uiso   1.00
N753   N     0.83333   0.75001   0.62934   0.00000  Uiso   1.00
N754   N     0.83333   0.74999   0.87065   0.00000  Uiso   1.00
O755   O     0.83334   0.68572   0.79071   0.00000  Uiso   1.00
O756   O     0.67847   0.77895   0.80772   0.00000  Uiso   1.00
O757   O     0.87339   0.52045   0.83663   0.00000  Uiso   1.00
O758   O     0.79980   0.97907   0.66216   0.00000  Uiso   1.00
O759   O     0.74195   0.73144   0.51975   0.00000  Uiso   1.00
O760   O     0.86471   0.82586   0.97287   0.00000  Uiso   1.00
O761   O     0.83333   0.81427   0.70928   0.00000  Uiso   1.00
O762   O     0.83334   0.68573   0.70928   0.00000  Uiso   1.00
O763   O     0.83333   0.81427   0.79072   0.00000  Uiso   1.00
O764   O     0.75828   0.74999   0.78132   0.00000  Uiso   1.00
O765   O     0.90839   0.75000   0.71868   0.00000  Uiso   1.00
O766   O     0.75828   0.75000   0.69988   0.00000  Uiso   1.00
O767   O     0.90839   0.75000   0.80011   0.00000  Uiso   1.00
O768   O     0.98836   0.71973   0.69290   0.00000  Uiso   1.00
loop_
_geom_bond_atom_site_label_1
_geom_bond_atom_site_label_2
_geom_bond_distance
_geom_bond_site_symmetry_2
_ccdc_geom_bond_type
C1     C14     1.490   .     S
C1     O58     1.299   .     A
C1     O51     1.304   .     A
C2     C27     1.419   .     A
C2     O56     1.381   .     S
C2     C4      1.418   .     A
C3     C28     1.417   .     A
C3     C22     1.409   .     A
C3     C388    1.517   1_554 S
C4     C23     1.410   .     A
C4     C387    1.517   .     S
C5     O62     1.289   .     A
C5     C7      1.444   .     S
C5     O60     1.285   .     A
C6     O63     1.288   .     A
C6     O61     1.286   .     A
C6     C8      1.443   .     S
C7     C136    1.349   1_455 S
C7     O192    1.388   1_455 S
C8     C71     1.349   .     S
C8     O116    1.389   .     S
C9     C20     1.410   .     A
C9     C11     1.417   .     A
C9     O53     1.384   .     S
C10    C21     1.407   .     A
C10    O54     1.383   .     S
C10    C13     1.408   .     A
C11    C14     1.422   .     A
C11    Cl29    1.774   .     S
C12    O57     1.299   .     A
C12    C15     1.490   .     S
C12    O59     1.303   .     A
C13    C15     1.424   .     A
C13    Cl31    1.774   .     S
C14    C16     1.421   .     A
C15    C17     1.422   .     A
C16    Cl32    1.774   .     S
C16    C18     1.398   .     A
C17    Cl33    1.773   .     S
C17    C19     1.404   .     A
C18    Cl34    1.775   .     S
C18    C20     1.410   .     A
C19    Cl35    1.774   .     S
C19    C21     1.412   .     A
C20    C213    1.512   1_545 S
C21    C212    1.512   .     S
C22    C24     1.408   .     A
C22    Cl36    1.771   .     S
C23    Cl37    1.770   .     S
C23    C25     1.409   .     A
C24    Cl38    1.762   .     S
C24    N49     1.377   .     A
C25    Cl30    1.762   .     S
C25    N50     1.375   .     A
C26    N49     1.365   .     A
C26    C28     1.420   .     A
C26    H41     1.080   .     S
C27    N50     1.363   .     A
C27    H42     1.081   .     S
C28    O55     1.381   .     S
Cu39   O51     1.955   .     S
Cu39   O63     1.969   .     S
Cu39   O59     1.949   .     S
Cu39   O60     1.972   .     S
Cu39   N50     2.013   .     S
Cu39   Cu40    2.680   .     S
Cu40   O62     1.969   .     S
Cu40   O58     1.949   .     S
Cu40   O57     1.955   .     S
Cu40   O61     1.972   .     S
Cu40   N49     2.013   .     S
H43    O192    0.991   1_455 S
H44    O116    0.991   .     S
H45    O53     0.986   .     S
H46    O54     0.989   .     S
H47    O55     0.992   .     S
H48    O56     0.992   .     S
O52    H172    0.991   1_455 S
O52    C136    1.389   1_455 S
O64    C71     1.388   .     S
O64    H107    0.991   .     S
C65    C78     1.490   .     S
C65    O122    1.299   .     A
C65    O115    1.304   .     A
C66    C91     1.419   .     A
C66    O120    1.381   .     S
C66    C68     1.418   .     A
C67    C92     1.417   .     A
C67    C86     1.409   .     A
C67    C452    1.517   1_554 S
C68    C87     1.410   .     A
C68    C451    1.517   .     S
C69    O126    1.289   .     A
C69    C71     1.444   .     S
C69    O124    1.285   .     A
C70    O127    1.288   .     A
C70    O125    1.286   .     A
C70    C72     1.443   .     S
C72    C135    1.349   .     S
C72    O180    1.389   .     S
C73    C84     1.410   .     A
C73    C75     1.417   .     A
C73    O117    1.384   .     S
C74    C85     1.407   .     A
C74    O118    1.383   .     S
C74    C77     1.408   .     A
C75    C78     1.422   .     A
C75    Cl93    1.774   .     S
C76    O121    1.299   .     A
C76    C79     1.490   .     S
C76    O123    1.303   .     A
C77    C79     1.424   .     A
C77    Cl95    1.774   .     S
C78    C80     1.421   .     A
C79    C81     1.422   .     A
C80    Cl96    1.774   .     S
C80    C82     1.398   .     A
C81    Cl97    1.773   .     S
C81    C83     1.404   .     A
C82    Cl98    1.775   .     S
C82    C84     1.410   .     A
C83    Cl99    1.774   .     S
C83    C85     1.412   .     A
C84    C277    1.512   1_545 S
C85    C276    1.512   .     S
C86    C88     1.408   .     A
C86    Cl100   1.771   .     S
C87    Cl101   1.770   .     S
C87    C89     1.409   .     A
C88    Cl102   1.762   .     S
C88    N113    1.377   .     A
C89    Cl94    1.762   .     S
C89    N114    1.375   .     A
C90    N113    1.365   .     A
C90    C92     1.420   .     A
C90    H105    1.080   .     S
C91    N114    1.363   .     A
C91    H106    1.081   .     S
C92    O119    1.381   .     S
Cu103  O115    1.955   .     S
Cu103  O127    1.969   .     S
Cu103  O123    1.949   .     S
Cu103  O124    1.972   .     S
Cu103  N114    2.013   .     S
Cu103  Cu104   2.680   .     S
Cu104  O126    1.969   .     S
Cu104  O122    1.949   .     S
Cu104  O121    1.955   .     S
Cu104  O125    1.972   .     S
Cu104  N113    2.013   .     S
H108   O180    0.991   .     S
H109   O117    0.986   .     S
H110   O118    0.989   .     S
H111   O119    0.992   .     S
H112   O120    0.992   .     S
O128   C135    1.388   .     S
O128   H171    0.991   .     S
C129   C142    1.490   .     S
C129   O186    1.299   .     A
C129   O179    1.304   .     A
C130   C155    1.419   .     A
C130   O184    1.381   .     S
C130   C132    1.418   .     A
C131   C156    1.417   .     A
C131   C150    1.409   .     A
C131   C516    1.517   1_554 S
C132   C151    1.410   .     A
C132   C515    1.517   .     S
C133   O190    1.289   .     A
C133   C135    1.444   .     S
C133   O188    1.285   .     A
C134   O191    1.288   .     A
C134   O189    1.286   .     A
C134   C136    1.443   .     S
C136   C7      1.349   1_655 S
C136   O52     1.389   1_655 S
C137   C148    1.410   .     A
C137   C139    1.417   .     A
C137   O181    1.384   .     S
C138   C149    1.407   .     A
C138   O182    1.383   .     S
C138   C141    1.408   .     A
C139   C142    1.422   .     A
C139   Cl157   1.774   .     S
C140   O185    1.299   .     A
C140   C143    1.490   .     S
C140   O187    1.303   .     A
C141   C143    1.424   .     A
C141   Cl159   1.774   .     S
C142   C144    1.421   .     A
C143   C145    1.422   .     A
C144   Cl160   1.774   .     S
C144   C146    1.398   .     A
C145   Cl161   1.773   .     S
C145   C147    1.404   .     A
C146   Cl162   1.775   .     S
C146   C148    1.410   .     A
C147   Cl163   1.774   .     S
C147   C149    1.412   .     A
C148   C341    1.512   1_545 S
C149   C340    1.512   .     S
C150   C152    1.408   .     A
C150   Cl164   1.771   .     S
C151   Cl165   1.770   .     S
C151   C153    1.409   .     A
C152   Cl166   1.762   .     S
C152   N177    1.377   .     A
C153   Cl158   1.762   .     S
C153   N178    1.375   .     A
C154   N177    1.365   .     A
C154   C156    1.420   .     A
C154   H169    1.080   .     S
C155   N178    1.363   .     A
C155   H170    1.081   .     S
C156   O183    1.381   .     S
Cu167  O179    1.955   .     S
Cu167  O191    1.969   .     S
Cu167  O187    1.949   .     S
Cu167  O188    1.972   .     S
Cu167  N178    2.013   .     S
Cu167  Cu168   2.680   .     S
Cu168  O190    1.969   .     S
Cu168  O186    1.949   .     S
Cu168  O185    1.955   .     S
Cu168  O189    1.972   .     S
Cu168  N177    2.013   .     S
H172   O52     0.991   1_655 S
H173   O181    0.986   .     S
H174   O182    0.989   .     S
H175   O183    0.992   .     S
H176   O184    0.992   .     S
O192   C7      1.388   1_655 S
O192   H43     0.991   1_655 S
C193   C206    1.490   .     S
C193   O250    1.299   .     A
C193   O243    1.304   .     A
C194   C219    1.419   .     A
C194   O248    1.381   .     S
C194   C196    1.418   .     A
C195   C220    1.417   .     A
C195   C214    1.409   .     A
C195   C580    1.517   1_554 S
C196   C215    1.410   .     A
C196   C579    1.517   .     S
C197   O254    1.289   .     A
C197   C199    1.444   .     S
C197   O252    1.285   .     A
C198   O255    1.288   .     A
C198   O253    1.286   .     A
C198   C200    1.443   .     S
C199   C328    1.349   1_455 S
C199   O384    1.388   1_455 S
C200   C263    1.349   .     S
C200   O308    1.389   .     S
C201   C212    1.410   .     A
C201   C203    1.417   .     A
C201   O245    1.384   .     S
C202   C213    1.407   .     A
C202   O246    1.383   .     S
C202   C205    1.408   .     A
C203   C206    1.422   .     A
C203   Cl221   1.774   .     S
C204   O249    1.299   .     A
C204   C207    1.490   .     S
C204   O251    1.303   .     A
C205   C207    1.424   .     A
C205   Cl223   1.774   .     S
C206   C208    1.421   .     A
C207   C209    1.422   .     A
C208   Cl224   1.774   .     S
C208   C210    1.398   .     A
C209   Cl225   1.773   .     S
C209   C211    1.404   .     A
C210   Cl226   1.775   .     S
C210   C212    1.410   .     A
C211   Cl227   1.774   .     S
C211   C213    1.412   .     A
C213   C20     1.512   1_565 S
C214   C216    1.408   .     A
C214   Cl228   1.771   .     S
C215   Cl229   1.770   .     S
C215   C217    1.409   .     A
C216   Cl230   1.762   .     S
C216   N241    1.377   .     A
C217   Cl222   1.762   .     S
C217   N242    1.375   .     A
C218   N241    1.365   .     A
C218   C220    1.420   .     A
C218   H233    1.080   .     S
C219   N242    1.363   .     A
C219   H234    1.081   .     S
C220   O247    1.381   .     S
Cu231  O243    1.955   .     S
Cu231  O255    1.969   .     S
Cu231  O251    1.949   .     S
Cu231  O252    1.972   .     S
Cu231  N242    2.013   .     S
Cu231  Cu232   2.680   .     S
Cu232  O254    1.969   .     S
Cu232  O250    1.949   .     S
Cu232  O249    1.955   .     S
Cu232  O253    1.972   .     S
Cu232  N241    2.013   .     S
H235   O384    0.991   1_455 S
H236   O308    0.991   .     S
H237   O245    0.986   .     S
H238   O246    0.989   .     S
H239   O247    0.992   .     S
H240   O248    0.992   .     S
O244   H364    0.991   1_455 S
O244   C328    1.389   1_455 S
O256   C263    1.388   .     S
O256   H299    0.991   .     S
C257   C270    1.490   .     S
C257   O314    1.299   .     A
C257   O307    1.304   .     A
C258   C283    1.419   .     A
C258   O312    1.381   .     S
C258   C260    1.418   .     A
C259   C284    1.417   .     A
C259   C278    1.409   .     A
C259   C644    1.517   1_554 S
C260   C279    1.410   .     A
C260   C643    1.517   .     S
C261   O318    1.289   .     A
C261   C263    1.444   .     S
C261   O316    1.285   .     A
C262   O319    1.288   .     A
C262   O317    1.286   .     A
C262   C264    1.443   .     S
C264   C327    1.349   .     S
C264   O372    1.389   .     S
C265   C276    1.410   .     A
C265   C267    1.417   .     A
C265   O309    1.384   .     S
C266   C277    1.407   .     A
C266   O310    1.383   .     S
C266   C269    1.408   .     A
C267   C270    1.422   .     A
C267   Cl285   1.774   .     S
C268   O313    1.299   .     A
C268   C271    1.490   .     S
C268   O315    1.303   .     A
C269   C271    1.424   .     A
C269   Cl287   1.774   .     S
C270   C272    1.421   .     A
C271   C273    1.422   .     A
C272   Cl288   1.774   .     S
C272   C274    1.398   .     A
C273   Cl289   1.773   .     S
C273   C275    1.404   .     A
C274   Cl290   1.775   .     S
C274   C276    1.410   .     A
C275   Cl291   1.774   .     S
C275   C277    1.412   .     A
C277   C84     1.512   1_565 S
C278   C280    1.408   .     A
C278   Cl292   1.771   .     S
C279   Cl293   1.770   .     S
C279   C281    1.409   .     A
C280   Cl294   1.762   .     S
C280   N305    1.377   .     A
C281   Cl286   1.762   .     S
C281   N306    1.375   .     A
C282   N305    1.365   .     A
C282   C284    1.420   .     A
C282   H297    1.080   .     S
C283   N306    1.363   .     A
C283   H298    1.081   .     S
C284   O311    1.381   .     S
Cu295  O307    1.955   .     S
Cu295  O319    1.969   .     S
Cu295  O315    1.949   .     S
Cu295  O316    1.972   .     S
Cu295  N306    2.013   .     S
Cu295  Cu296   2.680   .     S
Cu296  O318    1.969   .     S
Cu296  O314    1.949   .     S
Cu296  O313    1.955   .     S
Cu296  O317    1.972   .     S
Cu296  N305    2.013   .     S
H300   O372    0.991   .     S
H301   O309    0.986   .     S
H302   O310    0.989   .     S
H303   O311    0.992   .     S
H304   O312    0.992   .     S
O320   C327    1.388   .     S
O320   H363    0.991   .     S
C321   C334    1.490   .     S
C321   O378    1.299   .     A
C321   O371    1.304   .     A
C322   C347    1.419   .     A
C322   O376    1.381   .     S
C322   C324    1.418   .     A
C323   C348    1.417   .     A
C323   C342    1.409   .     A
C323   C708    1.517   1_554 S
C324   C343    1.410   .     A
C324   C707    1.517   .     S
C325   O382    1.289   .     A
C325   C327    1.444   .     S
C325   O380    1.285   .     A
C326   O383    1.288   .     A
C326   O381    1.286   .     A
C326   C328    1.443   .     S
C328   C199    1.349   1_655 S
C328   O244    1.389   1_655 S
C329   C340    1.410   .     A
C329   C331    1.417   .     A
C329   O373    1.384   .     S
C330   C341    1.407   .     A
C330   O374    1.383   .     S
C330   C333    1.408   .     A
C331   C334    1.422   .     A
C331   Cl349   1.774   .     S
C332   O377    1.299   .     A
C332   C335    1.490   .     S
C332   O379    1.303   .     A
C333   C335    1.424   .     A
C333   Cl351   1.774   .     S
C334   C336    1.421   .     A
C335   C337    1.422   .     A
C336   Cl352   1.774   .     S
C336   C338    1.398   .     A
C337   Cl353   1.773   .     S
C337   C339    1.404   .     A
C338   Cl354   1.775   .     S
C338   C340    1.410   .     A
C339   Cl355   1.774   .     S
C339   C341    1.412   .     A
C341   C148    1.512   1_565 S
C342   C344    1.408   .     A
C342   Cl356   1.771   .     S
C343   Cl357   1.770   .     S
C343   C345    1.409   .     A
C344   Cl358   1.762   .     S
C344   N369    1.377   .     A
C345   Cl350   1.762   .     S
C345   N370    1.375   .     A
C346   N369    1.365   .     A
C346   C348    1.420   .     A
C346   H361    1.080   .     S
C347   N370    1.363   .     A
C347   H362    1.081   .     S
C348   O375    1.381   .     S
Cu359  O371    1.955   .     S
Cu359  O383    1.969   .     S
Cu359  O379    1.949   .     S
Cu359  O380    1.972   .     S
Cu359  N370    2.013   .     S
Cu359  Cu360   2.680   .     S
Cu360  O382    1.969   .     S
Cu360  O378    1.949   .     S
Cu360  O377    1.955   .     S
Cu360  O381    1.972   .     S
Cu360  N369    2.013   .     S
H364   O244    0.991   1_655 S
H365   O373    0.986   .     S
H366   O374    0.989   .     S
H367   O375    0.992   .     S
H368   O376    0.992   .     S
O384   C199    1.388   1_655 S
O384   H235    0.991   1_655 S
C385   C398    1.490   .     S
C385   O442    1.299   .     A
C385   O435    1.304   .     A
C386   C411    1.419   .     A
C386   O440    1.381   .     S
C386   C388    1.418   .     A
C387   C412    1.417   .     A
C387   C406    1.409   .     A
C388   C407    1.410   .     A
C388   C3      1.517   1_556 S
C389   O446    1.289   .     A
C389   C391    1.444   .     S
C389   O444    1.285   .     A
C390   O447    1.288   .     A
C390   O445    1.286   .     A
C390   C392    1.443   .     S
C391   C520    1.349   1_455 S
C391   O576    1.388   1_455 S
C392   C455    1.349   .     S
C392   O500    1.389   .     S
C393   C404    1.410   .     A
C393   C395    1.417   .     A
C393   O437    1.384   .     S
C394   C405    1.407   .     A
C394   O438    1.383   .     S
C394   C397    1.408   .     A
C395   C398    1.422   .     A
C395   Cl413   1.774   .     S
C396   O441    1.299   .     A
C396   C399    1.490   .     S
C396   O443    1.303   .     A
C397   C399    1.424   .     A
C397   Cl415   1.774   .     S
C398   C400    1.421   .     A
C399   C401    1.422   .     A
C400   Cl416   1.774   .     S
C400   C402    1.398   .     A
C401   Cl417   1.773   .     S
C401   C403    1.404   .     A
C402   Cl418   1.775   .     S
C402   C404    1.410   .     A
C403   Cl419   1.774   .     S
C403   C405    1.412   .     A
C404   C597    1.512   1_545 S
C405   C596    1.512   .     S
C406   C408    1.408   .     A
C406   Cl420   1.771   .     S
C407   Cl421   1.770   .     S
C407   C409    1.409   .     A
C408   Cl422   1.762   .     S
C408   N433    1.377   .     A
C409   Cl414   1.762   .     S
C409   N434    1.375   .     A
C410   N433    1.365   .     A
C410   C412    1.420   .     A
C410   H425    1.080   .     S
C411   N434    1.363   .     A
C411   H426    1.081   .     S
C412   O439    1.381   .     S
Cu423  O435    1.955   .     S
Cu423  O447    1.969   .     S
Cu423  O443    1.949   .     S
Cu423  O444    1.972   .     S
Cu423  N434    2.013   .     S
Cu423  Cu424   2.680   .     S
Cu424  O446    1.969   .     S
Cu424  O442    1.949   .     S
Cu424  O441    1.955   .     S
Cu424  O445    1.972   .     S
Cu424  N433    2.013   .     S
H427   O576    0.991   1_455 S
H428   O500    0.991   .     S
H429   O437    0.986   .     S
H430   O438    0.989   .     S
H431   O439    0.992   .     S
H432   O440    0.992   .     S
O436   H556    0.991   1_455 S
O436   C520    1.389   1_455 S
O448   C455    1.388   .     S
O448   H491    0.991   .     S
C449   C462    1.490   .     S
C449   O506    1.299   .     A
C449   O499    1.304   .     A
C450   C475    1.419   .     A
C450   O504    1.381   .     S
C450   C452    1.418   .     A
C451   C476    1.417   .     A
C451   C470    1.409   .     A
C452   C471    1.410   .     A
C452   C67     1.517   1_556 S
C453   O510    1.289   .     A
C453   C455    1.444   .     S
C453   O508    1.285   .     A
C454   O511    1.288   .     A
C454   O509    1.286   .     A
C454   C456    1.443   .     S
C456   C519    1.349   .     S
C456   O564    1.389   .     S
C457   C468    1.410   .     A
C457   C459    1.417   .     A
C457   O501    1.384   .     S
C458   C469    1.407   .     A
C458   O502    1.383   .     S
C458   C461    1.408   .     A
C459   C462    1.422   .     A
C459   Cl477   1.774   .     S
C460   O505    1.299   .     A
C460   C463    1.490   .     S
C460   O507    1.303   .     A
C461   C463    1.424   .     A
C461   Cl479   1.774   .     S
C462   C464    1.421   .     A
C463   C465    1.422   .     A
C464   Cl480   1.774   .     S
C464   C466    1.398   .     A
C465   Cl481   1.773   .     S
C465   C467    1.404   .     A
C466   Cl482   1.775   .     S
C466   C468    1.410   .     A
C467   Cl483   1.774   .     S
C467   C469    1.412   .     A
C468   C661    1.512   1_545 S
C469   C660    1.512   .     S
C470   C472    1.408   .     A
C470   Cl484   1.771   .     S
C471   Cl485   1.770   .     S
C471   C473    1.409   .     A
C472   Cl486   1.762   .     S
C472   N497    1.377   .     A
C473   Cl478   1.762   .     S
C473   N498    1.375   .     A
C474   N497    1.365   .     A
C474   C476    1.420   .     A
C474   H489    1.080   .     S
C475   N498    1.363   .     A
C475   H490    1.081   .     S
C476   O503    1.381   .     S
Cu487  O499    1.955   .     S
Cu487  O511    1.969   .     S
Cu487  O507    1.949   .     S
Cu487  O508    1.972   .     S
Cu487  N498    2.013   .     S
Cu487  Cu488   2.680   .     S
Cu488  O510    1.969   .     S
Cu488  O506    1.949   .     S
Cu488  O505    1.955   .     S
Cu488  O509    1.972   .     S
Cu488  N497    2.013   .     S
H492   O564    0.991   .     S
H493   O501    0.986   .     S
H494   O502    0.989   .     S
H495   O503    0.992   .     S
H496   O504    0.992   .     S
O512   C519    1.388   .     S
O512   H555    0.991   .     S
C513   C526    1.490   .     S
C513   O570    1.299   .     A
C513   O563    1.304   .     A
C514   C539    1.419   .     A
C514   O568    1.381   .     S
C514   C516    1.418   .     A
C515   C540    1.417   .     A
C515   C534    1.409   .     A
C516   C535    1.410   .     A
C516   C131    1.517   1_556 S
C517   O574    1.289   .     A
C517   C519    1.444   .     S
C517   O572    1.285   .     A
C518   O575    1.288   .     A
C518   O573    1.286   .     A
C518   C520    1.443   .     S
C520   C391    1.349   1_655 S
C520   O436    1.389   1_655 S
C521   C532    1.410   .     A
C521   C523    1.417   .     A
C521   O565    1.384   .     S
C522   C533    1.407   .     A
C522   O566    1.383   .     S
C522   C525    1.408   .     A
C523   C526    1.422   .     A
C523   Cl541   1.774   .     S
C524   O569    1.299   .     A
C524   C527    1.490   .     S
C524   O571    1.303   .     A
C525   C527    1.424   .     A
C525   Cl543   1.774   .     S
C526   C528    1.421   .     A
C527   C529    1.422   .     A
C528   Cl544   1.774   .     S
C528   C530    1.398   .     A
C529   Cl545   1.773   .     S
C529   C531    1.404   .     A
C530   Cl546   1.775   .     S
C530   C532    1.410   .     A
C531   Cl547   1.774   .     S
C531   C533    1.412   .     A
C532   C725    1.512   1_545 S
C533   C724    1.512   .     S
C534   C536    1.408   .     A
C534   Cl548   1.771   .     S
C535   Cl549   1.770   .     S
C535   C537    1.409   .     A
C536   Cl550   1.762   .     S
C536   N561    1.377   .     A
C537   Cl542   1.762   .     S
C537   N562    1.375   .     A
C538   N561    1.365   .     A
C538   C540    1.420   .     A
C538   H553    1.080   .     S
C539   N562    1.363   .     A
C539   H554    1.081   .     S
C540   O567    1.381   .     S
Cu551  O563    1.955   .     S
Cu551  O575    1.969   .     S
Cu551  O571    1.949   .     S
Cu551  O572    1.972   .     S
Cu551  N562    2.013   .     S
Cu551  Cu552   2.680   .     S
Cu552  O574    1.969   .     S
Cu552  O570    1.949   .     S
Cu552  O569    1.955   .     S
Cu552  O573    1.972   .     S
Cu552  N561    2.013   .     S
H556   O436    0.991   1_655 S
H557   O565    0.986   .     S
H558   O566    0.989   .     S
H559   O567    0.992   .     S
H560   O568    0.992   .     S
O576   C391    1.388   1_655 S
O576   H427    0.991   1_655 S
C577   C590    1.490   .     S
C577   O634    1.299   .     A
C577   O627    1.304   .     A
C578   C603    1.419   .     A
C578   O632    1.381   .     S
C578   C580    1.418   .     A
C579   C604    1.417   .     A
C579   C598    1.409   .     A
C580   C599    1.410   .     A
C580   C195    1.517   1_556 S
C581   O638    1.289   .     A
C581   C583    1.444   .     S
C581   O636    1.285   .     A
C582   O639    1.288   .     A
C582   O637    1.286   .     A
C582   C584    1.443   .     S
C583   C712    1.349   1_455 S
C583   O768    1.388   1_455 S
C584   C647    1.349   .     S
C584   O692    1.389   .     S
C585   C596    1.410   .     A
C585   C587    1.417   .     A
C585   O629    1.384   .     S
C586   C597    1.407   .     A
C586   O630    1.383   .     S
C586   C589    1.408   .     A
C587   C590    1.422   .     A
C587   Cl605   1.774   .     S
C588   O633    1.299   .     A
C588   C591    1.490   .     S
C588   O635    1.303   .     A
C589   C591    1.424   .     A
C589   Cl607   1.774   .     S
C590   C592    1.421   .     A
C591   C593    1.422   .     A
C592   Cl608   1.774   .     S
C592   C594    1.398   .     A
C593   Cl609   1.773   .     S
C593   C595    1.404   .     A
C594   Cl610   1.775   .     S
C594   C596    1.410   .     A
C595   Cl611   1.774   .     S
C595   C597    1.412   .     A
C597   C404    1.512   1_565 S
C598   C600    1.408   .     A
C598   Cl612   1.771   .     S
C599   Cl613   1.770   .     S
C599   C601    1.409   .     A
C600   Cl614   1.762   .     S
C600   N625    1.377   .     A
C601   Cl606   1.762   .     S
C601   N626    1.375   .     A
C602   N625    1.365   .     A
C602   C604    1.420   .     A
C602   H617    1.080   .     S
C603   N626    1.363   .     A
C603   H618    1.081   .     S
C604   O631    1.381   .     S
Cu615  O627    1.955   .     S
Cu615  O639    1.969   .     S
Cu615  O635    1.949   .     S
Cu615  O636    1.972   .     S
Cu615  N626    2.013   .     S
Cu615  Cu616   2.680   .     S
Cu616  O638    1.969   .     S
Cu616  O634    1.949   .     S
Cu616  O633    1.955   .     S
Cu616  O637    1.972   .     S
Cu616  N625    2.013   .     S
H619   O768    0.991   1_455 S
H620   O692    0.991   .     S
H621   O629    0.986   .     S
H622   O630    0.989   .     S
H623   O631    0.992   .     S
H624   O632    0.992   .     S
O628   H748    0.991   1_455 S
O628   C712    1.389   1_455 S
O640   C647    1.388   .     S
O640   H683    0.991   .     S
C641   C654    1.490   .     S
C641   O698    1.299   .     A
C641   O691    1.304   .     A
C642   C667    1.419   .     A
C642   O696    1.381   .     S
C642   C644    1.418   .     A
C643   C668    1.417   .     A
C643   C662    1.409   .     A
C644   C663    1.410   .     A
C644   C259    1.517   1_556 S
C645   O702    1.289   .     A
C645   C647    1.444   .     S
C645   O700    1.285   .     A
C646   O703    1.288   .     A
C646   O701    1.286   .     A
C646   C648    1.443   .     S
C648   C711    1.349   .     S
C648   O756    1.389   .     S
C649   C660    1.410   .     A
C649   C651    1.417   .     A
C649   O693    1.384   .     S
C650   C661    1.407   .     A
C650   O694    1.383   .     S
C650   C653    1.408   .     A
C651   C654    1.422   .     A
C651   Cl669   1.774   .     S
C652   O697    1.299   .     A
C652   C655    1.490   .     S
C652   O699    1.303   .     A
C653   C655    1.424   .     A
C653   Cl671   1.774   .     S
C654   C656    1.421   .     A
C655   C657    1.422   .     A
C656   Cl672   1.774   .     S
C656   C658    1.398   .     A
C657   Cl673   1.773   .     S
C657   C659    1.404   .     A
C658   Cl674   1.775   .     S
C658   C660    1.410   .     A
C659   Cl675   1.774   .     S
C659   C661    1.412   .     A
C661   C468    1.512   1_565 S
C662   C664    1.408   .     A
C662   Cl676   1.771   .     S
C663   Cl677   1.770   .     S
C663   C665    1.409   .     A
C664   Cl678   1.762   .     S
C664   N689    1.377   .     A
C665   Cl670   1.762   .     S
C665   N690    1.375   .     A
C666   N689    1.365   .     A
C666   C668    1.420   .     A
C666   H681    1.080   .     S
C667   N690    1.363   .     A
C667   H682    1.081   .     S
C668   O695    1.381   .     S
Cu679  O691    1.955   .     S
Cu679  O703    1.969   .     S
Cu679  O699    1.949   .     S
Cu679  O700    1.972   .     S
Cu679  N690    2.013   .     S
Cu679  Cu680   2.680   .     S
Cu680  O702    1.969   .     S
Cu680  O698    1.949   .     S
Cu680  O697    1.955   .     S
Cu680  O701    1.972   .     S
Cu680  N689    2.013   .     S
H684   O756    0.991   .     S
H685   O693    0.986   .     S
H686   O694    0.989   .     S
H687   O695    0.992   .     S
H688   O696    0.992   .     S
O704   C711    1.388   .     S
O704   H747    0.991   .     S
C705   C718    1.490   .     S
C705   O762    1.299   .     A
C705   O755    1.304   .     A
C706   C731    1.419   .     A
C706   O760    1.381   .     S
C706   C708    1.418   .     A
C707   C732    1.417   .     A
C707   C726    1.409   .     A
C708   C727    1.410   .     A
C708   C323    1.517   1_556 S
C709   O766    1.289   .     A
C709   C711    1.444   .     S
C709   O764    1.285   .     A
C710   O767    1.288   .     A
C710   O765    1.286   .     A
C710   C712    1.443   .     S
C712   C583    1.349   1_655 S
C712   O628    1.389   1_655 S
C713   C724    1.410   .     A
C713   C715    1.417   .     A
C713   O757    1.384   .     S
C714   C725    1.407   .     A
C714   O758    1.383   .     S
C714   C717    1.408   .     A
C715   C718    1.422   .     A
C715   Cl733   1.774   .     S
C716   O761    1.299   .     A
C716   C719    1.490   .     S
C716   O763    1.303   .     A
C717   C719    1.424   .     A
C717   Cl735   1.774   .     S
C718   C720    1.421   .     A
C719   C721    1.422   .     A
C720   Cl736   1.774   .     S
C720   C722    1.398   .     A
C721   Cl737   1.773   .     S
C721   C723    1.404   .     A
C722   Cl738   1.775   .     S
C722   C724    1.410   .     A
C723   Cl739   1.774   .     S
C723   C725    1.412   .     A
C725   C532    1.512   1_565 S
C726   C728    1.408   .     A
C726   Cl740   1.771   .     S
C727   Cl741   1.770   .     S
C727   C729    1.409   .     A
C728   Cl742   1.762   .     S
C728   N753    1.377   .     A
C729   Cl734   1.762   .     S
C729   N754    1.375   .     A
C730   N753    1.365   .     A
C730   C732    1.420   .     A
C730   H745    1.080   .     S
C731   N754    1.363   .     A
C731   H746    1.081   .     S
C732   O759    1.381   .     S
Cu743  O755    1.955   .     S
Cu743  O767    1.969   .     S
Cu743  O763    1.949   .     S
Cu743  O764    1.972   .     S
Cu743  N754    2.013   .     S
Cu743  Cu744   2.680   .     S
Cu744  O766    1.969   .     S
Cu744  O762    1.949   .     S
Cu744  O761    1.955   .     S
Cu744  O765    1.972   .     S
Cu744  N753    2.013   .     S
H748   O628    0.991   1_655 S
H749   O757    0.986   .     S
H750   O758    0.989   .     S
H751   O759    0.992   .     S
H752   O760    0.992   .     S
O768   C583    1.388   1_655 S
O768   H619    0.991   1_655 S
