data_str_m2_o2_o5_pcu_sym.52
_audit_creation_date              2020-01-03
_audit_creation_method            'Materials Studio'
_symmetry_space_group_name_H-M    'P1'
_symmetry_Int_Tables_number       1
_symmetry_cell_setting            triclinic
loop_
_symmetry_equiv_pos_as_xyz
  x,y,z
_cell_length_a                    30.2703
_cell_length_b                    27.9203
_cell_length_c                    27.1818
_cell_angle_alpha                 89.9414
_cell_angle_beta                  90.8954
_cell_angle_gamma                 90.0096
loop_
_atom_site_label
_atom_site_type_symbol
_atom_site_fract_x
_atom_site_fract_y
_atom_site_fract_z
_atom_site_U_iso_or_equiv
_atom_site_adp_type
_atom_site_occupancy
C1     C     0.16508   0.24995   0.16660   0.00000  Uiso   1.00
C2     C     0.28164   0.44579   0.19411   0.00000  Uiso   1.00
C3     C     0.24993   0.25002   0.07359   0.00000  Uiso   1.00
C4     C     0.25005   0.24999   0.25974   0.00000  Uiso   1.00
C5     C     0.25141   0.02738   0.16550   0.00000  Uiso   1.00
C6     C     0.25122   0.47270   0.16564   0.00000  Uiso   1.00
C7     C     0.24995   0.25003   0.02186   0.00000  Uiso   1.00
C8     C     0.25000   0.25000   0.31147   0.00000  Uiso   1.00
C9     C     0.04743   0.28598   0.14245   0.00000  Uiso   1.00
C10    C     0.45241   0.20634   0.16085   0.00000  Uiso   1.00
C11    C     0.45290   0.29246   0.17237   0.00000  Uiso   1.00
C12    C     0.33505   0.24997   0.16667   0.00000  Uiso   1.00
C13    C     0.04832   0.21251   0.19022   0.00000  Uiso   1.00
C14    C     0.09334   0.28634   0.14281   0.00000  Uiso   1.00
C15    C     0.40648   0.20653   0.16108   0.00000  Uiso   1.00
C16    C     0.40699   0.29272   0.17202   0.00000  Uiso   1.00
C17    C     0.09426   0.21261   0.19002   0.00000  Uiso   1.00
C18    C     0.11694   0.24970   0.16655   0.00000  Uiso   1.00
C19    C     0.38343   0.24976   0.16660   0.00000  Uiso   1.00
C20    C     0.02454   0.24921   0.16640   0.00000  Uiso   1.00
C21    C     0.47598   0.24930   0.16660   0.00000  Uiso   1.00
C22    C     0.28980   0.12318   0.28650   0.00000  Uiso   1.00
C23    C     0.27479   0.10463   0.20085   0.00000  Uiso   1.00
C24    C     0.19944   0.37575   0.05382   0.00000  Uiso   1.00
C25    C     0.15228   0.12357   0.10243   0.00000  Uiso   1.00
C26    C     0.29941   0.37601   0.27974   0.00000  Uiso   1.00
C27    C     0.22108   0.39561   0.13701   0.00000  Uiso   1.00
C28    C     0.22574   0.10461   0.13212   0.00000  Uiso   1.00
C29    C     0.27947   0.39530   0.19590   0.00000  Uiso   1.00
C30    C     0.27541   0.05404   0.20091   0.00000  Uiso   1.00
C31    C     0.22012   0.44616   0.13780   0.00000  Uiso   1.00
C32    C     0.22732   0.05411   0.13018   0.00000  Uiso   1.00
Cu33   Cu    0.25000   0.29821   0.16667   0.00000  Uiso   1.00
Cu34   Cu    0.25000   0.20178   0.16667   0.00000  Uiso   1.00
H35    H     0.02987   0.31413   0.12292   0.00000  Uiso   1.00
H36    H     0.19471   0.46375   0.11619   0.00000  Uiso   1.00
H37    H     0.20951   0.03671   0.10053   0.00000  Uiso   1.00
H38    H     0.30731   0.46300   0.21561   0.00000  Uiso   1.00
H39    H     0.33477   0.12511   0.22990   0.00000  Uiso   1.00
H40    H     0.25381   0.12897   0.29152   0.00000  Uiso   1.00
H41    H     0.30808   0.14950   0.30969   0.00000  Uiso   1.00
H42    H     0.29881   0.08657   0.29915   0.00000  Uiso   1.00
H43    H     0.15861   0.37882   0.11363   0.00000  Uiso   1.00
H44    H     0.19158   0.41271   0.04124   0.00000  Uiso   1.00
H45    H     0.17835   0.35021   0.03278   0.00000  Uiso   1.00
H46    H     0.46945   0.17269   0.15553   0.00000  Uiso   1.00
H47    H     0.23458   0.36784   0.04589   0.00000  Uiso   1.00
H48    H     0.20920   0.12395   0.06145   0.00000  Uiso   1.00
H49    H     0.14229   0.08678   0.09134   0.00000  Uiso   1.00
H50    H     0.13450   0.14968   0.07850   0.00000  Uiso   1.00
H51    H     0.14251   0.12985   0.14110   0.00000  Uiso   1.00
H52    H     0.34134   0.37706   0.22078   0.00000  Uiso   1.00
H53    H     0.30762   0.41300   0.29186   0.00000  Uiso   1.00
H54    H     0.31978   0.35040   0.30162   0.00000  Uiso   1.00
H55    H     0.26402   0.36878   0.28708   0.00000  Uiso   1.00
H56    H     0.47033   0.32598   0.17762   0.00000  Uiso   1.00
H57    H     0.03144   0.18415   0.20959   0.00000  Uiso   1.00
H58    H     0.11032   0.31468   0.12370   0.00000  Uiso   1.00
H59    H     0.38908   0.17289   0.15652   0.00000  Uiso   1.00
H60    H     0.39007   0.32654   0.17622   0.00000  Uiso   1.00
H61    H     0.11208   0.18423   0.20893   0.00000  Uiso   1.00
H62    H     0.29474   0.03647   0.22922   0.00000  Uiso   1.00
N63    N     0.25000   0.12934   0.16667   0.00000  Uiso   1.00
N64    N     0.25000   0.37065   0.16667   0.00000  Uiso   1.00
N65    N     0.30145   0.13000   0.23547   0.00000  Uiso   1.00
N66    N     0.19096   0.37065   0.10586   0.00000  Uiso   1.00
N67    N     0.19942   0.12988   0.09711   0.00000  Uiso   1.00
N68    N     0.30864   0.37003   0.22798   0.00000  Uiso   1.00
O69    O     0.18573   0.29071   0.16667   0.00000  Uiso   1.00
O70    O     0.31427   0.20928   0.16666   0.00000  Uiso   1.00
O71    O     0.31427   0.29071   0.16666   0.00000  Uiso   1.00
O72    O     0.18573   0.20928   0.16667   0.00000  Uiso   1.00
O73    O     0.25000   0.29071   0.09613   0.00000  Uiso   1.00
O74    O     0.25000   0.20929   0.23720   0.00000  Uiso   1.00
O75    O     0.25000   0.29071   0.23720   0.00000  Uiso   1.00
O76    O     0.25000   0.20929   0.09613   0.00000  Uiso   1.00
C77    C     0.66508   0.24995   0.16660   0.00000  Uiso   1.00
C78    C     0.78164   0.44579   0.19411   0.00000  Uiso   1.00
C79    C     0.74993   0.25002   0.07359   0.00000  Uiso   1.00
C80    C     0.75005   0.24999   0.25974   0.00000  Uiso   1.00
C81    C     0.75141   0.02738   0.16550   0.00000  Uiso   1.00
C82    C     0.75122   0.47270   0.16564   0.00000  Uiso   1.00
C83    C     0.74995   0.25003   0.02186   0.00000  Uiso   1.00
C84    C     0.75000   0.25000   0.31147   0.00000  Uiso   1.00
C85    C     0.54743   0.28598   0.14245   0.00000  Uiso   1.00
C86    C     0.95241   0.20634   0.16085   0.00000  Uiso   1.00
C87    C     0.95290   0.29246   0.17237   0.00000  Uiso   1.00
C88    C     0.83505   0.24997   0.16667   0.00000  Uiso   1.00
C89    C     0.54832   0.21251   0.19022   0.00000  Uiso   1.00
C90    C     0.59334   0.28634   0.14281   0.00000  Uiso   1.00
C91    C     0.90648   0.20653   0.16108   0.00000  Uiso   1.00
C92    C     0.90699   0.29272   0.17202   0.00000  Uiso   1.00
C93    C     0.59426   0.21261   0.19002   0.00000  Uiso   1.00
C94    C     0.61694   0.24970   0.16655   0.00000  Uiso   1.00
C95    C     0.88343   0.24976   0.16660   0.00000  Uiso   1.00
C96    C     0.52454   0.24921   0.16640   0.00000  Uiso   1.00
C97    C     0.97598   0.24930   0.16660   0.00000  Uiso   1.00
C98    C     0.78980   0.12318   0.28650   0.00000  Uiso   1.00
C99    C     0.77479   0.10463   0.20085   0.00000  Uiso   1.00
C100   C     0.69944   0.37575   0.05382   0.00000  Uiso   1.00
C101   C     0.65228   0.12357   0.10243   0.00000  Uiso   1.00
C102   C     0.79941   0.37601   0.27974   0.00000  Uiso   1.00
C103   C     0.72108   0.39561   0.13701   0.00000  Uiso   1.00
C104   C     0.72574   0.10461   0.13212   0.00000  Uiso   1.00
C105   C     0.77947   0.39530   0.19590   0.00000  Uiso   1.00
C106   C     0.77541   0.05404   0.20091   0.00000  Uiso   1.00
C107   C     0.72012   0.44616   0.13780   0.00000  Uiso   1.00
C108   C     0.72732   0.05411   0.13018   0.00000  Uiso   1.00
Cu109  Cu    0.75000   0.29821   0.16667   0.00000  Uiso   1.00
Cu110  Cu    0.75000   0.20178   0.16667   0.00000  Uiso   1.00
H111   H     0.52987   0.31413   0.12292   0.00000  Uiso   1.00
H112   H     0.69471   0.46375   0.11619   0.00000  Uiso   1.00
H113   H     0.70951   0.03671   0.10053   0.00000  Uiso   1.00
H114   H     0.80731   0.46300   0.21561   0.00000  Uiso   1.00
H115   H     0.83477   0.12511   0.22990   0.00000  Uiso   1.00
H116   H     0.75381   0.12897   0.29152   0.00000  Uiso   1.00
H117   H     0.80808   0.14950   0.30969   0.00000  Uiso   1.00
H118   H     0.79881   0.08657   0.29915   0.00000  Uiso   1.00
H119   H     0.65861   0.37882   0.11363   0.00000  Uiso   1.00
H120   H     0.69158   0.41271   0.04124   0.00000  Uiso   1.00
H121   H     0.67835   0.35021   0.03278   0.00000  Uiso   1.00
H122   H     0.96945   0.17269   0.15553   0.00000  Uiso   1.00
H123   H     0.73458   0.36784   0.04589   0.00000  Uiso   1.00
H124   H     0.70920   0.12395   0.06145   0.00000  Uiso   1.00
H125   H     0.64229   0.08678   0.09134   0.00000  Uiso   1.00
H126   H     0.63450   0.14968   0.07850   0.00000  Uiso   1.00
H127   H     0.64251   0.12985   0.14110   0.00000  Uiso   1.00
H128   H     0.84134   0.37706   0.22078   0.00000  Uiso   1.00
H129   H     0.80762   0.41300   0.29186   0.00000  Uiso   1.00
H130   H     0.81978   0.35040   0.30162   0.00000  Uiso   1.00
H131   H     0.76402   0.36878   0.28708   0.00000  Uiso   1.00
H132   H     0.97033   0.32598   0.17762   0.00000  Uiso   1.00
H133   H     0.53144   0.18415   0.20959   0.00000  Uiso   1.00
H134   H     0.61032   0.31468   0.12370   0.00000  Uiso   1.00
H135   H     0.88908   0.17289   0.15652   0.00000  Uiso   1.00
H136   H     0.89007   0.32654   0.17622   0.00000  Uiso   1.00
H137   H     0.61208   0.18423   0.20893   0.00000  Uiso   1.00
H138   H     0.79474   0.03647   0.22922   0.00000  Uiso   1.00
N139   N     0.75000   0.12934   0.16667   0.00000  Uiso   1.00
N140   N     0.75000   0.37065   0.16667   0.00000  Uiso   1.00
N141   N     0.80145   0.13000   0.23547   0.00000  Uiso   1.00
N142   N     0.69096   0.37065   0.10586   0.00000  Uiso   1.00
N143   N     0.69942   0.12988   0.09711   0.00000  Uiso   1.00
N144   N     0.80864   0.37003   0.22798   0.00000  Uiso   1.00
O145   O     0.68573   0.29071   0.16667   0.00000  Uiso   1.00
O146   O     0.81427   0.20928   0.16666   0.00000  Uiso   1.00
O147   O     0.81427   0.29071   0.16666   0.00000  Uiso   1.00
O148   O     0.68573   0.20928   0.16667   0.00000  Uiso   1.00
O149   O     0.75000   0.29071   0.09613   0.00000  Uiso   1.00
O150   O     0.75000   0.20929   0.23720   0.00000  Uiso   1.00
O151   O     0.75000   0.29071   0.23720   0.00000  Uiso   1.00
O152   O     0.75000   0.20929   0.09613   0.00000  Uiso   1.00
C153   C     0.16508   0.74995   0.16660   0.00000  Uiso   1.00
C154   C     0.28164   0.94579   0.19411   0.00000  Uiso   1.00
C155   C     0.24993   0.75002   0.07359   0.00000  Uiso   1.00
C156   C     0.25005   0.74999   0.25974   0.00000  Uiso   1.00
C157   C     0.25141   0.52738   0.16550   0.00000  Uiso   1.00
C158   C     0.25122   0.97270   0.16564   0.00000  Uiso   1.00
C159   C     0.24995   0.75003   0.02186   0.00000  Uiso   1.00
C160   C     0.25000   0.75000   0.31147   0.00000  Uiso   1.00
C161   C     0.04743   0.78598   0.14245   0.00000  Uiso   1.00
C162   C     0.45241   0.70634   0.16085   0.00000  Uiso   1.00
C163   C     0.45290   0.79246   0.17237   0.00000  Uiso   1.00
C164   C     0.33505   0.74997   0.16667   0.00000  Uiso   1.00
C165   C     0.04832   0.71251   0.19022   0.00000  Uiso   1.00
C166   C     0.09334   0.78634   0.14281   0.00000  Uiso   1.00
C167   C     0.40648   0.70653   0.16108   0.00000  Uiso   1.00
C168   C     0.40699   0.79272   0.17202   0.00000  Uiso   1.00
C169   C     0.09426   0.71261   0.19002   0.00000  Uiso   1.00
C170   C     0.11694   0.74970   0.16655   0.00000  Uiso   1.00
C171   C     0.38343   0.74976   0.16660   0.00000  Uiso   1.00
C172   C     0.02454   0.74921   0.16640   0.00000  Uiso   1.00
C173   C     0.47598   0.74930   0.16660   0.00000  Uiso   1.00
C174   C     0.28980   0.62318   0.28650   0.00000  Uiso   1.00
C175   C     0.27479   0.60463   0.20085   0.00000  Uiso   1.00
C176   C     0.19944   0.87575   0.05382   0.00000  Uiso   1.00
C177   C     0.15228   0.62357   0.10243   0.00000  Uiso   1.00
C178   C     0.29941   0.87601   0.27974   0.00000  Uiso   1.00
C179   C     0.22108   0.89561   0.13701   0.00000  Uiso   1.00
C180   C     0.22574   0.60461   0.13212   0.00000  Uiso   1.00
C181   C     0.27947   0.89530   0.19590   0.00000  Uiso   1.00
C182   C     0.27541   0.55404   0.20091   0.00000  Uiso   1.00
C183   C     0.22012   0.94616   0.13780   0.00000  Uiso   1.00
C184   C     0.22732   0.55411   0.13018   0.00000  Uiso   1.00
Cu185  Cu    0.25000   0.79821   0.16667   0.00000  Uiso   1.00
Cu186  Cu    0.25000   0.70178   0.16667   0.00000  Uiso   1.00
H187   H     0.02987   0.81413   0.12292   0.00000  Uiso   1.00
H188   H     0.19471   0.96375   0.11619   0.00000  Uiso   1.00
H189   H     0.20951   0.53671   0.10053   0.00000  Uiso   1.00
H190   H     0.30731   0.96300   0.21561   0.00000  Uiso   1.00
H191   H     0.33477   0.62511   0.22990   0.00000  Uiso   1.00
H192   H     0.25381   0.62897   0.29152   0.00000  Uiso   1.00
H193   H     0.30808   0.64950   0.30969   0.00000  Uiso   1.00
H194   H     0.29881   0.58657   0.29915   0.00000  Uiso   1.00
H195   H     0.15861   0.87882   0.11363   0.00000  Uiso   1.00
H196   H     0.19158   0.91271   0.04124   0.00000  Uiso   1.00
H197   H     0.17835   0.85021   0.03278   0.00000  Uiso   1.00
H198   H     0.46945   0.67269   0.15553   0.00000  Uiso   1.00
H199   H     0.23458   0.86784   0.04589   0.00000  Uiso   1.00
H200   H     0.20920   0.62395   0.06145   0.00000  Uiso   1.00
H201   H     0.14229   0.58678   0.09134   0.00000  Uiso   1.00
H202   H     0.13450   0.64968   0.07850   0.00000  Uiso   1.00
H203   H     0.14251   0.62985   0.14110   0.00000  Uiso   1.00
H204   H     0.34134   0.87706   0.22078   0.00000  Uiso   1.00
H205   H     0.30762   0.91300   0.29186   0.00000  Uiso   1.00
H206   H     0.31978   0.85040   0.30162   0.00000  Uiso   1.00
H207   H     0.26402   0.86878   0.28708   0.00000  Uiso   1.00
H208   H     0.47033   0.82598   0.17762   0.00000  Uiso   1.00
H209   H     0.03144   0.68415   0.20959   0.00000  Uiso   1.00
H210   H     0.11032   0.81468   0.12370   0.00000  Uiso   1.00
H211   H     0.38908   0.67289   0.15652   0.00000  Uiso   1.00
H212   H     0.39007   0.82654   0.17622   0.00000  Uiso   1.00
H213   H     0.11208   0.68423   0.20893   0.00000  Uiso   1.00
H214   H     0.29474   0.53647   0.22922   0.00000  Uiso   1.00
N215   N     0.25000   0.62934   0.16667   0.00000  Uiso   1.00
N216   N     0.25000   0.87065   0.16667   0.00000  Uiso   1.00
N217   N     0.30145   0.63000   0.23547   0.00000  Uiso   1.00
N218   N     0.19096   0.87065   0.10586   0.00000  Uiso   1.00
N219   N     0.19942   0.62988   0.09711   0.00000  Uiso   1.00
N220   N     0.30864   0.87003   0.22798   0.00000  Uiso   1.00
O221   O     0.18573   0.79071   0.16667   0.00000  Uiso   1.00
O222   O     0.31427   0.70928   0.16666   0.00000  Uiso   1.00
O223   O     0.31427   0.79071   0.16666   0.00000  Uiso   1.00
O224   O     0.18573   0.70928   0.16667   0.00000  Uiso   1.00
O225   O     0.25000   0.79071   0.09613   0.00000  Uiso   1.00
O226   O     0.25000   0.70929   0.23720   0.00000  Uiso   1.00
O227   O     0.25000   0.79071   0.23720   0.00000  Uiso   1.00
O228   O     0.25000   0.70929   0.09613   0.00000  Uiso   1.00
C229   C     0.66508   0.74995   0.16660   0.00000  Uiso   1.00
C230   C     0.78164   0.94579   0.19411   0.00000  Uiso   1.00
C231   C     0.74993   0.75002   0.07359   0.00000  Uiso   1.00
C232   C     0.75005   0.74999   0.25974   0.00000  Uiso   1.00
C233   C     0.75141   0.52738   0.16550   0.00000  Uiso   1.00
C234   C     0.75122   0.97270   0.16564   0.00000  Uiso   1.00
C235   C     0.74995   0.75003   0.02186   0.00000  Uiso   1.00
C236   C     0.75000   0.75000   0.31147   0.00000  Uiso   1.00
C237   C     0.54743   0.78598   0.14245   0.00000  Uiso   1.00
C238   C     0.95241   0.70634   0.16085   0.00000  Uiso   1.00
C239   C     0.95290   0.79246   0.17237   0.00000  Uiso   1.00
C240   C     0.83505   0.74997   0.16667   0.00000  Uiso   1.00
C241   C     0.54832   0.71251   0.19022   0.00000  Uiso   1.00
C242   C     0.59334   0.78634   0.14281   0.00000  Uiso   1.00
C243   C     0.90648   0.70653   0.16108   0.00000  Uiso   1.00
C244   C     0.90699   0.79272   0.17202   0.00000  Uiso   1.00
C245   C     0.59426   0.71261   0.19002   0.00000  Uiso   1.00
C246   C     0.61694   0.74970   0.16655   0.00000  Uiso   1.00
C247   C     0.88343   0.74976   0.16660   0.00000  Uiso   1.00
C248   C     0.52454   0.74921   0.16640   0.00000  Uiso   1.00
C249   C     0.97598   0.74930   0.16660   0.00000  Uiso   1.00
C250   C     0.78980   0.62318   0.28650   0.00000  Uiso   1.00
C251   C     0.77479   0.60463   0.20085   0.00000  Uiso   1.00
C252   C     0.69944   0.87575   0.05382   0.00000  Uiso   1.00
C253   C     0.65228   0.62357   0.10243   0.00000  Uiso   1.00
C254   C     0.79941   0.87601   0.27974   0.00000  Uiso   1.00
C255   C     0.72108   0.89561   0.13701   0.00000  Uiso   1.00
C256   C     0.72574   0.60461   0.13212   0.00000  Uiso   1.00
C257   C     0.77947   0.89530   0.19590   0.00000  Uiso   1.00
C258   C     0.77541   0.55404   0.20091   0.00000  Uiso   1.00
C259   C     0.72012   0.94616   0.13780   0.00000  Uiso   1.00
C260   C     0.72732   0.55411   0.13018   0.00000  Uiso   1.00
Cu261  Cu    0.75000   0.79821   0.16667   0.00000  Uiso   1.00
Cu262  Cu    0.75000   0.70178   0.16667   0.00000  Uiso   1.00
H263   H     0.52987   0.81413   0.12292   0.00000  Uiso   1.00
H264   H     0.69471   0.96375   0.11619   0.00000  Uiso   1.00
H265   H     0.70951   0.53671   0.10053   0.00000  Uiso   1.00
H266   H     0.80731   0.96300   0.21561   0.00000  Uiso   1.00
H267   H     0.83477   0.62511   0.22990   0.00000  Uiso   1.00
H268   H     0.75381   0.62897   0.29152   0.00000  Uiso   1.00
H269   H     0.80808   0.64950   0.30969   0.00000  Uiso   1.00
H270   H     0.79881   0.58657   0.29915   0.00000  Uiso   1.00
H271   H     0.65861   0.87882   0.11363   0.00000  Uiso   1.00
H272   H     0.69158   0.91271   0.04124   0.00000  Uiso   1.00
H273   H     0.67835   0.85021   0.03278   0.00000  Uiso   1.00
H274   H     0.96945   0.67269   0.15553   0.00000  Uiso   1.00
H275   H     0.73458   0.86784   0.04589   0.00000  Uiso   1.00
H276   H     0.70920   0.62395   0.06145   0.00000  Uiso   1.00
H277   H     0.64229   0.58678   0.09134   0.00000  Uiso   1.00
H278   H     0.63450   0.64968   0.07850   0.00000  Uiso   1.00
H279   H     0.64251   0.62985   0.14110   0.00000  Uiso   1.00
H280   H     0.84134   0.87706   0.22078   0.00000  Uiso   1.00
H281   H     0.80762   0.91300   0.29186   0.00000  Uiso   1.00
H282   H     0.81978   0.85040   0.30162   0.00000  Uiso   1.00
H283   H     0.76402   0.86878   0.28708   0.00000  Uiso   1.00
H284   H     0.97033   0.82598   0.17762   0.00000  Uiso   1.00
H285   H     0.53144   0.68415   0.20959   0.00000  Uiso   1.00
H286   H     0.61032   0.81468   0.12370   0.00000  Uiso   1.00
H287   H     0.88908   0.67289   0.15652   0.00000  Uiso   1.00
H288   H     0.89007   0.82654   0.17622   0.00000  Uiso   1.00
H289   H     0.61208   0.68423   0.20893   0.00000  Uiso   1.00
H290   H     0.79474   0.53647   0.22922   0.00000  Uiso   1.00
N291   N     0.75000   0.62934   0.16667   0.00000  Uiso   1.00
N292   N     0.75000   0.87065   0.16667   0.00000  Uiso   1.00
N293   N     0.80145   0.63000   0.23547   0.00000  Uiso   1.00
N294   N     0.69096   0.87065   0.10586   0.00000  Uiso   1.00
N295   N     0.69942   0.62988   0.09711   0.00000  Uiso   1.00
N296   N     0.80864   0.87003   0.22798   0.00000  Uiso   1.00
O297   O     0.68573   0.79071   0.16667   0.00000  Uiso   1.00
O298   O     0.81427   0.70928   0.16666   0.00000  Uiso   1.00
O299   O     0.81427   0.79071   0.16666   0.00000  Uiso   1.00
O300   O     0.68573   0.70928   0.16667   0.00000  Uiso   1.00
O301   O     0.75000   0.79071   0.09613   0.00000  Uiso   1.00
O302   O     0.75000   0.70929   0.23720   0.00000  Uiso   1.00
O303   O     0.75000   0.79071   0.23720   0.00000  Uiso   1.00
O304   O     0.75000   0.70929   0.09613   0.00000  Uiso   1.00
C305   C     0.16508   0.24995   0.49993   0.00000  Uiso   1.00
C306   C     0.28164   0.44579   0.52744   0.00000  Uiso   1.00
C307   C     0.24993   0.25002   0.40692   0.00000  Uiso   1.00
C308   C     0.25005   0.24999   0.59308   0.00000  Uiso   1.00
C309   C     0.25141   0.02738   0.49884   0.00000  Uiso   1.00
C310   C     0.25122   0.47270   0.49897   0.00000  Uiso   1.00
C311   C     0.24995   0.25003   0.35520   0.00000  Uiso   1.00
C312   C     0.25000   0.25000   0.64480   0.00000  Uiso   1.00
C313   C     0.04743   0.28598   0.47578   0.00000  Uiso   1.00
C314   C     0.45241   0.20634   0.49418   0.00000  Uiso   1.00
C315   C     0.45290   0.29246   0.50570   0.00000  Uiso   1.00
C316   C     0.33505   0.24997   0.50001   0.00000  Uiso   1.00
C317   C     0.04832   0.21251   0.52355   0.00000  Uiso   1.00
C318   C     0.09334   0.28634   0.47615   0.00000  Uiso   1.00
C319   C     0.40648   0.20653   0.49442   0.00000  Uiso   1.00
C320   C     0.40699   0.29272   0.50535   0.00000  Uiso   1.00
C321   C     0.09426   0.21261   0.52335   0.00000  Uiso   1.00
C322   C     0.11694   0.24970   0.49988   0.00000  Uiso   1.00
C323   C     0.38343   0.24976   0.49993   0.00000  Uiso   1.00
C324   C     0.02454   0.24921   0.49973   0.00000  Uiso   1.00
C325   C     0.47598   0.24930   0.49993   0.00000  Uiso   1.00
C326   C     0.28980   0.12318   0.61983   0.00000  Uiso   1.00
C327   C     0.27479   0.10463   0.53418   0.00000  Uiso   1.00
C328   C     0.19944   0.37575   0.38715   0.00000  Uiso   1.00
C329   C     0.15228   0.12357   0.43576   0.00000  Uiso   1.00
C330   C     0.29941   0.37601   0.61307   0.00000  Uiso   1.00
C331   C     0.22108   0.39561   0.47034   0.00000  Uiso   1.00
C332   C     0.22574   0.10461   0.46545   0.00000  Uiso   1.00
C333   C     0.27947   0.39530   0.52924   0.00000  Uiso   1.00
C334   C     0.27541   0.05404   0.53424   0.00000  Uiso   1.00
C335   C     0.22012   0.44616   0.47113   0.00000  Uiso   1.00
C336   C     0.22732   0.05411   0.46351   0.00000  Uiso   1.00
Cu337  Cu    0.25000   0.29821   0.50000   0.00000  Uiso   1.00
Cu338  Cu    0.25000   0.20178   0.50000   0.00000  Uiso   1.00
H339   H     0.02987   0.31413   0.45626   0.00000  Uiso   1.00
H340   H     0.19471   0.46375   0.44952   0.00000  Uiso   1.00
H341   H     0.20951   0.03671   0.43386   0.00000  Uiso   1.00
H342   H     0.30731   0.46300   0.54895   0.00000  Uiso   1.00
H343   H     0.33477   0.12511   0.56324   0.00000  Uiso   1.00
H344   H     0.25381   0.12897   0.62486   0.00000  Uiso   1.00
H345   H     0.30808   0.14950   0.64302   0.00000  Uiso   1.00
H346   H     0.29881   0.08657   0.63248   0.00000  Uiso   1.00
H347   H     0.15861   0.37882   0.44697   0.00000  Uiso   1.00
H348   H     0.19158   0.41271   0.37458   0.00000  Uiso   1.00
H349   H     0.17835   0.35021   0.36611   0.00000  Uiso   1.00
H350   H     0.46945   0.17269   0.48887   0.00000  Uiso   1.00
H351   H     0.23458   0.36784   0.37922   0.00000  Uiso   1.00
H352   H     0.20920   0.12395   0.39478   0.00000  Uiso   1.00
H353   H     0.14229   0.08678   0.42468   0.00000  Uiso   1.00
H354   H     0.13450   0.14968   0.41183   0.00000  Uiso   1.00
H355   H     0.14251   0.12985   0.47444   0.00000  Uiso   1.00
H356   H     0.34134   0.37706   0.55411   0.00000  Uiso   1.00
H357   H     0.30762   0.41300   0.62519   0.00000  Uiso   1.00
H358   H     0.31978   0.35040   0.63496   0.00000  Uiso   1.00
H359   H     0.26402   0.36878   0.62041   0.00000  Uiso   1.00
H360   H     0.47033   0.32598   0.51095   0.00000  Uiso   1.00
H361   H     0.03144   0.18415   0.54292   0.00000  Uiso   1.00
H362   H     0.11032   0.31468   0.45703   0.00000  Uiso   1.00
H363   H     0.38908   0.17289   0.48986   0.00000  Uiso   1.00
H364   H     0.39007   0.32654   0.50955   0.00000  Uiso   1.00
H365   H     0.11208   0.18423   0.54226   0.00000  Uiso   1.00
H366   H     0.29474   0.03647   0.56256   0.00000  Uiso   1.00
N367   N     0.25000   0.12934   0.50000   0.00000  Uiso   1.00
N368   N     0.25000   0.37065   0.50000   0.00000  Uiso   1.00
N369   N     0.30145   0.13000   0.56880   0.00000  Uiso   1.00
N370   N     0.19096   0.37065   0.43919   0.00000  Uiso   1.00
N371   N     0.19942   0.12988   0.43045   0.00000  Uiso   1.00
N372   N     0.30864   0.37003   0.56132   0.00000  Uiso   1.00
O373   O     0.18573   0.29071   0.50000   0.00000  Uiso   1.00
O374   O     0.31427   0.20928   0.50000   0.00000  Uiso   1.00
O375   O     0.31427   0.29071   0.50000   0.00000  Uiso   1.00
O376   O     0.18573   0.20928   0.50000   0.00000  Uiso   1.00
O377   O     0.25000   0.29071   0.42946   0.00000  Uiso   1.00
O378   O     0.25000   0.20929   0.57054   0.00000  Uiso   1.00
O379   O     0.25000   0.29071   0.57054   0.00000  Uiso   1.00
O380   O     0.25000   0.20929   0.42946   0.00000  Uiso   1.00
C381   C     0.66508   0.24995   0.49993   0.00000  Uiso   1.00
C382   C     0.78164   0.44579   0.52744   0.00000  Uiso   1.00
C383   C     0.74993   0.25002   0.40692   0.00000  Uiso   1.00
C384   C     0.75005   0.24999   0.59308   0.00000  Uiso   1.00
C385   C     0.75141   0.02738   0.49884   0.00000  Uiso   1.00
C386   C     0.75122   0.47270   0.49897   0.00000  Uiso   1.00
C387   C     0.74995   0.25003   0.35520   0.00000  Uiso   1.00
C388   C     0.75000   0.25000   0.64480   0.00000  Uiso   1.00
C389   C     0.54743   0.28598   0.47578   0.00000  Uiso   1.00
C390   C     0.95241   0.20634   0.49418   0.00000  Uiso   1.00
C391   C     0.95290   0.29246   0.50570   0.00000  Uiso   1.00
C392   C     0.83505   0.24997   0.50001   0.00000  Uiso   1.00
C393   C     0.54832   0.21251   0.52355   0.00000  Uiso   1.00
C394   C     0.59334   0.28634   0.47615   0.00000  Uiso   1.00
C395   C     0.90648   0.20653   0.49442   0.00000  Uiso   1.00
C396   C     0.90699   0.29272   0.50535   0.00000  Uiso   1.00
C397   C     0.59426   0.21261   0.52335   0.00000  Uiso   1.00
C398   C     0.61694   0.24970   0.49988   0.00000  Uiso   1.00
C399   C     0.88343   0.24976   0.49993   0.00000  Uiso   1.00
C400   C     0.52454   0.24921   0.49973   0.00000  Uiso   1.00
C401   C     0.97598   0.24930   0.49993   0.00000  Uiso   1.00
C402   C     0.78980   0.12318   0.61983   0.00000  Uiso   1.00
C403   C     0.77479   0.10463   0.53418   0.00000  Uiso   1.00
C404   C     0.69944   0.37575   0.38715   0.00000  Uiso   1.00
C405   C     0.65228   0.12357   0.43576   0.00000  Uiso   1.00
C406   C     0.79941   0.37601   0.61307   0.00000  Uiso   1.00
C407   C     0.72108   0.39561   0.47034   0.00000  Uiso   1.00
C408   C     0.72574   0.10461   0.46545   0.00000  Uiso   1.00
C409   C     0.77947   0.39530   0.52924   0.00000  Uiso   1.00
C410   C     0.77541   0.05404   0.53424   0.00000  Uiso   1.00
C411   C     0.72012   0.44616   0.47113   0.00000  Uiso   1.00
C412   C     0.72732   0.05411   0.46351   0.00000  Uiso   1.00
Cu413  Cu    0.75000   0.29821   0.50000   0.00000  Uiso   1.00
Cu414  Cu    0.75000   0.20178   0.50000   0.00000  Uiso   1.00
H415   H     0.52987   0.31413   0.45626   0.00000  Uiso   1.00
H416   H     0.69471   0.46375   0.44952   0.00000  Uiso   1.00
H417   H     0.70951   0.03671   0.43386   0.00000  Uiso   1.00
H418   H     0.80731   0.46300   0.54895   0.00000  Uiso   1.00
H419   H     0.83477   0.12511   0.56324   0.00000  Uiso   1.00
H420   H     0.75381   0.12897   0.62486   0.00000  Uiso   1.00
H421   H     0.80808   0.14950   0.64302   0.00000  Uiso   1.00
H422   H     0.79881   0.08657   0.63248   0.00000  Uiso   1.00
H423   H     0.65861   0.37882   0.44697   0.00000  Uiso   1.00
H424   H     0.69158   0.41271   0.37458   0.00000  Uiso   1.00
H425   H     0.67835   0.35021   0.36611   0.00000  Uiso   1.00
H426   H     0.96945   0.17269   0.48887   0.00000  Uiso   1.00
H427   H     0.73458   0.36784   0.37922   0.00000  Uiso   1.00
H428   H     0.70920   0.12395   0.39478   0.00000  Uiso   1.00
H429   H     0.64229   0.08678   0.42468   0.00000  Uiso   1.00
H430   H     0.63450   0.14968   0.41183   0.00000  Uiso   1.00
H431   H     0.64251   0.12985   0.47444   0.00000  Uiso   1.00
H432   H     0.84134   0.37706   0.55411   0.00000  Uiso   1.00
H433   H     0.80762   0.41300   0.62519   0.00000  Uiso   1.00
H434   H     0.81978   0.35040   0.63496   0.00000  Uiso   1.00
H435   H     0.76402   0.36878   0.62041   0.00000  Uiso   1.00
H436   H     0.97033   0.32598   0.51095   0.00000  Uiso   1.00
H437   H     0.53144   0.18415   0.54292   0.00000  Uiso   1.00
H438   H     0.61032   0.31468   0.45703   0.00000  Uiso   1.00
H439   H     0.88908   0.17289   0.48986   0.00000  Uiso   1.00
H440   H     0.89007   0.32654   0.50955   0.00000  Uiso   1.00
H441   H     0.61208   0.18423   0.54226   0.00000  Uiso   1.00
H442   H     0.79474   0.03647   0.56256   0.00000  Uiso   1.00
N443   N     0.75000   0.12934   0.50000   0.00000  Uiso   1.00
N444   N     0.75000   0.37065   0.50000   0.00000  Uiso   1.00
N445   N     0.80145   0.13000   0.56880   0.00000  Uiso   1.00
N446   N     0.69096   0.37065   0.43919   0.00000  Uiso   1.00
N447   N     0.69942   0.12988   0.43045   0.00000  Uiso   1.00
N448   N     0.80864   0.37003   0.56132   0.00000  Uiso   1.00
O449   O     0.68573   0.29071   0.50000   0.00000  Uiso   1.00
O450   O     0.81427   0.20928   0.50000   0.00000  Uiso   1.00
O451   O     0.81427   0.29071   0.50000   0.00000  Uiso   1.00
O452   O     0.68573   0.20928   0.50000   0.00000  Uiso   1.00
O453   O     0.75000   0.29071   0.42946   0.00000  Uiso   1.00
O454   O     0.75000   0.20929   0.57054   0.00000  Uiso   1.00
O455   O     0.75000   0.29071   0.57054   0.00000  Uiso   1.00
O456   O     0.75000   0.20929   0.42946   0.00000  Uiso   1.00
C457   C     0.16508   0.74995   0.49993   0.00000  Uiso   1.00
C458   C     0.28164   0.94579   0.52744   0.00000  Uiso   1.00
C459   C     0.24993   0.75002   0.40692   0.00000  Uiso   1.00
C460   C     0.25005   0.74999   0.59308   0.00000  Uiso   1.00
C461   C     0.25141   0.52738   0.49884   0.00000  Uiso   1.00
C462   C     0.25122   0.97270   0.49897   0.00000  Uiso   1.00
C463   C     0.24995   0.75003   0.35520   0.00000  Uiso   1.00
C464   C     0.25000   0.75000   0.64480   0.00000  Uiso   1.00
C465   C     0.04743   0.78598   0.47578   0.00000  Uiso   1.00
C466   C     0.45241   0.70634   0.49418   0.00000  Uiso   1.00
C467   C     0.45290   0.79246   0.50570   0.00000  Uiso   1.00
C468   C     0.33505   0.74997   0.50001   0.00000  Uiso   1.00
C469   C     0.04832   0.71251   0.52355   0.00000  Uiso   1.00
C470   C     0.09334   0.78634   0.47615   0.00000  Uiso   1.00
C471   C     0.40648   0.70653   0.49442   0.00000  Uiso   1.00
C472   C     0.40699   0.79272   0.50535   0.00000  Uiso   1.00
C473   C     0.09426   0.71261   0.52335   0.00000  Uiso   1.00
C474   C     0.11694   0.74970   0.49988   0.00000  Uiso   1.00
C475   C     0.38343   0.74976   0.49993   0.00000  Uiso   1.00
C476   C     0.02454   0.74921   0.49973   0.00000  Uiso   1.00
C477   C     0.47598   0.74930   0.49993   0.00000  Uiso   1.00
C478   C     0.28980   0.62318   0.61983   0.00000  Uiso   1.00
C479   C     0.27479   0.60463   0.53418   0.00000  Uiso   1.00
C480   C     0.19944   0.87575   0.38715   0.00000  Uiso   1.00
C481   C     0.15228   0.62357   0.43576   0.00000  Uiso   1.00
C482   C     0.29941   0.87601   0.61307   0.00000  Uiso   1.00
C483   C     0.22108   0.89561   0.47034   0.00000  Uiso   1.00
C484   C     0.22574   0.60461   0.46545   0.00000  Uiso   1.00
C485   C     0.27947   0.89530   0.52924   0.00000  Uiso   1.00
C486   C     0.27541   0.55404   0.53424   0.00000  Uiso   1.00
C487   C     0.22012   0.94616   0.47113   0.00000  Uiso   1.00
C488   C     0.22732   0.55411   0.46351   0.00000  Uiso   1.00
Cu489  Cu    0.25000   0.79821   0.50000   0.00000  Uiso   1.00
Cu490  Cu    0.25000   0.70178   0.50000   0.00000  Uiso   1.00
H491   H     0.02987   0.81413   0.45626   0.00000  Uiso   1.00
H492   H     0.19471   0.96375   0.44952   0.00000  Uiso   1.00
H493   H     0.20951   0.53671   0.43386   0.00000  Uiso   1.00
H494   H     0.30731   0.96300   0.54895   0.00000  Uiso   1.00
H495   H     0.33477   0.62511   0.56324   0.00000  Uiso   1.00
H496   H     0.25381   0.62897   0.62486   0.00000  Uiso   1.00
H497   H     0.30808   0.64950   0.64302   0.00000  Uiso   1.00
H498   H     0.29881   0.58657   0.63248   0.00000  Uiso   1.00
H499   H     0.15861   0.87882   0.44697   0.00000  Uiso   1.00
H500   H     0.19158   0.91271   0.37458   0.00000  Uiso   1.00
H501   H     0.17835   0.85021   0.36611   0.00000  Uiso   1.00
H502   H     0.46945   0.67269   0.48887   0.00000  Uiso   1.00
H503   H     0.23458   0.86784   0.37922   0.00000  Uiso   1.00
H504   H     0.20920   0.62395   0.39478   0.00000  Uiso   1.00
H505   H     0.14229   0.58678   0.42468   0.00000  Uiso   1.00
H506   H     0.13450   0.64968   0.41183   0.00000  Uiso   1.00
H507   H     0.14251   0.62985   0.47444   0.00000  Uiso   1.00
H508   H     0.34134   0.87706   0.55411   0.00000  Uiso   1.00
H509   H     0.30762   0.91300   0.62519   0.00000  Uiso   1.00
H510   H     0.31978   0.85040   0.63496   0.00000  Uiso   1.00
H511   H     0.26402   0.86878   0.62041   0.00000  Uiso   1.00
H512   H     0.47033   0.82598   0.51095   0.00000  Uiso   1.00
H513   H     0.03144   0.68415   0.54292   0.00000  Uiso   1.00
H514   H     0.11032   0.81468   0.45703   0.00000  Uiso   1.00
H515   H     0.38908   0.67289   0.48986   0.00000  Uiso   1.00
H516   H     0.39007   0.82654   0.50955   0.00000  Uiso   1.00
H517   H     0.11208   0.68423   0.54226   0.00000  Uiso   1.00
H518   H     0.29474   0.53647   0.56256   0.00000  Uiso   1.00
N519   N     0.25000   0.62934   0.50000   0.00000  Uiso   1.00
N520   N     0.25000   0.87065   0.50000   0.00000  Uiso   1.00
N521   N     0.30145   0.63000   0.56880   0.00000  Uiso   1.00
N522   N     0.19096   0.87065   0.43919   0.00000  Uiso   1.00
N523   N     0.19942   0.62988   0.43045   0.00000  Uiso   1.00
N524   N     0.30864   0.87003   0.56132   0.00000  Uiso   1.00
O525   O     0.18573   0.79071   0.50000   0.00000  Uiso   1.00
O526   O     0.31427   0.70928   0.50000   0.00000  Uiso   1.00
O527   O     0.31427   0.79071   0.50000   0.00000  Uiso   1.00
O528   O     0.18573   0.70928   0.50000   0.00000  Uiso   1.00
O529   O     0.25000   0.79071   0.42946   0.00000  Uiso   1.00
O530   O     0.25000   0.70929   0.57054   0.00000  Uiso   1.00
O531   O     0.25000   0.79071   0.57054   0.00000  Uiso   1.00
O532   O     0.25000   0.70929   0.42946   0.00000  Uiso   1.00
C533   C     0.66508   0.74995   0.49993   0.00000  Uiso   1.00
C534   C     0.78164   0.94579   0.52744   0.00000  Uiso   1.00
C535   C     0.74993   0.75002   0.40692   0.00000  Uiso   1.00
C536   C     0.75005   0.74999   0.59308   0.00000  Uiso   1.00
C537   C     0.75141   0.52738   0.49884   0.00000  Uiso   1.00
C538   C     0.75122   0.97270   0.49897   0.00000  Uiso   1.00
C539   C     0.74995   0.75003   0.35520   0.00000  Uiso   1.00
C540   C     0.75000   0.75000   0.64480   0.00000  Uiso   1.00
C541   C     0.54743   0.78598   0.47578   0.00000  Uiso   1.00
C542   C     0.95241   0.70634   0.49418   0.00000  Uiso   1.00
C543   C     0.95290   0.79246   0.50570   0.00000  Uiso   1.00
C544   C     0.83505   0.74997   0.50001   0.00000  Uiso   1.00
C545   C     0.54832   0.71251   0.52355   0.00000  Uiso   1.00
C546   C     0.59334   0.78634   0.47615   0.00000  Uiso   1.00
C547   C     0.90648   0.70653   0.49442   0.00000  Uiso   1.00
C548   C     0.90699   0.79272   0.50535   0.00000  Uiso   1.00
C549   C     0.59426   0.71261   0.52335   0.00000  Uiso   1.00
C550   C     0.61694   0.74970   0.49988   0.00000  Uiso   1.00
C551   C     0.88343   0.74976   0.49993   0.00000  Uiso   1.00
C552   C     0.52454   0.74921   0.49973   0.00000  Uiso   1.00
C553   C     0.97598   0.74930   0.49993   0.00000  Uiso   1.00
C554   C     0.78980   0.62318   0.61983   0.00000  Uiso   1.00
C555   C     0.77479   0.60463   0.53418   0.00000  Uiso   1.00
C556   C     0.69944   0.87575   0.38715   0.00000  Uiso   1.00
C557   C     0.65228   0.62357   0.43576   0.00000  Uiso   1.00
C558   C     0.79941   0.87601   0.61307   0.00000  Uiso   1.00
C559   C     0.72108   0.89561   0.47034   0.00000  Uiso   1.00
C560   C     0.72574   0.60461   0.46545   0.00000  Uiso   1.00
C561   C     0.77947   0.89530   0.52924   0.00000  Uiso   1.00
C562   C     0.77541   0.55404   0.53424   0.00000  Uiso   1.00
C563   C     0.72012   0.94616   0.47113   0.00000  Uiso   1.00
C564   C     0.72732   0.55411   0.46351   0.00000  Uiso   1.00
Cu565  Cu    0.75000   0.79821   0.50000   0.00000  Uiso   1.00
Cu566  Cu    0.75000   0.70178   0.50000   0.00000  Uiso   1.00
H567   H     0.52987   0.81413   0.45626   0.00000  Uiso   1.00
H568   H     0.69471   0.96375   0.44952   0.00000  Uiso   1.00
H569   H     0.70951   0.53671   0.43386   0.00000  Uiso   1.00
H570   H     0.80731   0.96300   0.54895   0.00000  Uiso   1.00
H571   H     0.83477   0.62511   0.56324   0.00000  Uiso   1.00
H572   H     0.75381   0.62897   0.62486   0.00000  Uiso   1.00
H573   H     0.80808   0.64950   0.64302   0.00000  Uiso   1.00
H574   H     0.79881   0.58657   0.63248   0.00000  Uiso   1.00
H575   H     0.65861   0.87882   0.44697   0.00000  Uiso   1.00
H576   H     0.69158   0.91271   0.37458   0.00000  Uiso   1.00
H577   H     0.67835   0.85021   0.36611   0.00000  Uiso   1.00
H578   H     0.96945   0.67269   0.48887   0.00000  Uiso   1.00
H579   H     0.73458   0.86784   0.37922   0.00000  Uiso   1.00
H580   H     0.70920   0.62395   0.39478   0.00000  Uiso   1.00
H581   H     0.64229   0.58678   0.42468   0.00000  Uiso   1.00
H582   H     0.63450   0.64968   0.41183   0.00000  Uiso   1.00
H583   H     0.64251   0.62985   0.47444   0.00000  Uiso   1.00
H584   H     0.84134   0.87706   0.55411   0.00000  Uiso   1.00
H585   H     0.80762   0.91300   0.62519   0.00000  Uiso   1.00
H586   H     0.81978   0.85040   0.63496   0.00000  Uiso   1.00
H587   H     0.76402   0.86878   0.62041   0.00000  Uiso   1.00
H588   H     0.97033   0.82598   0.51095   0.00000  Uiso   1.00
H589   H     0.53144   0.68415   0.54292   0.00000  Uiso   1.00
H590   H     0.61032   0.81468   0.45703   0.00000  Uiso   1.00
H591   H     0.88908   0.67289   0.48986   0.00000  Uiso   1.00
H592   H     0.89007   0.82654   0.50955   0.00000  Uiso   1.00
H593   H     0.61208   0.68423   0.54226   0.00000  Uiso   1.00
H594   H     0.79474   0.53647   0.56256   0.00000  Uiso   1.00
N595   N     0.75000   0.62934   0.50000   0.00000  Uiso   1.00
N596   N     0.75000   0.87065   0.50000   0.00000  Uiso   1.00
N597   N     0.80145   0.63000   0.56880   0.00000  Uiso   1.00
N598   N     0.69096   0.87065   0.43919   0.00000  Uiso   1.00
N599   N     0.69942   0.62988   0.43045   0.00000  Uiso   1.00
N600   N     0.80864   0.87003   0.56132   0.00000  Uiso   1.00
O601   O     0.68573   0.79071   0.50000   0.00000  Uiso   1.00
O602   O     0.81427   0.70928   0.50000   0.00000  Uiso   1.00
O603   O     0.81427   0.79071   0.50000   0.00000  Uiso   1.00
O604   O     0.68573   0.70928   0.50000   0.00000  Uiso   1.00
O605   O     0.75000   0.79071   0.42946   0.00000  Uiso   1.00
O606   O     0.75000   0.70929   0.57054   0.00000  Uiso   1.00
O607   O     0.75000   0.79071   0.57054   0.00000  Uiso   1.00
O608   O     0.75000   0.70929   0.42946   0.00000  Uiso   1.00
C609   C     0.16508   0.24995   0.83326   0.00000  Uiso   1.00
C610   C     0.28164   0.44579   0.86077   0.00000  Uiso   1.00
C611   C     0.24993   0.25002   0.74025   0.00000  Uiso   1.00
C612   C     0.25005   0.24999   0.92641   0.00000  Uiso   1.00
C613   C     0.25141   0.02738   0.83217   0.00000  Uiso   1.00
C614   C     0.25122   0.47270   0.83231   0.00000  Uiso   1.00
C615   C     0.24995   0.25003   0.68853   0.00000  Uiso   1.00
C616   C     0.25000   0.25000   0.97813   0.00000  Uiso   1.00
C617   C     0.04743   0.28598   0.80911   0.00000  Uiso   1.00
C618   C     0.45241   0.20634   0.82751   0.00000  Uiso   1.00
C619   C     0.45290   0.29246   0.83903   0.00000  Uiso   1.00
C620   C     0.33505   0.24997   0.83334   0.00000  Uiso   1.00
C621   C     0.04832   0.21251   0.85688   0.00000  Uiso   1.00
C622   C     0.09334   0.28634   0.80948   0.00000  Uiso   1.00
C623   C     0.40648   0.20653   0.82775   0.00000  Uiso   1.00
C624   C     0.40699   0.29272   0.83868   0.00000  Uiso   1.00
C625   C     0.09426   0.21261   0.85668   0.00000  Uiso   1.00
C626   C     0.11694   0.24970   0.83322   0.00000  Uiso   1.00
C627   C     0.38343   0.24976   0.83326   0.00000  Uiso   1.00
C628   C     0.02454   0.24921   0.83306   0.00000  Uiso   1.00
C629   C     0.47598   0.24930   0.83327   0.00000  Uiso   1.00
C630   C     0.28980   0.12318   0.95317   0.00000  Uiso   1.00
C631   C     0.27479   0.10463   0.86751   0.00000  Uiso   1.00
C632   C     0.19944   0.37575   0.72049   0.00000  Uiso   1.00
C633   C     0.15228   0.12357   0.76910   0.00000  Uiso   1.00
C634   C     0.29941   0.37601   0.94641   0.00000  Uiso   1.00
C635   C     0.22108   0.39561   0.80367   0.00000  Uiso   1.00
C636   C     0.22574   0.10461   0.79878   0.00000  Uiso   1.00
C637   C     0.27947   0.39530   0.86257   0.00000  Uiso   1.00
C638   C     0.27541   0.05404   0.86757   0.00000  Uiso   1.00
C639   C     0.22012   0.44616   0.80446   0.00000  Uiso   1.00
C640   C     0.22732   0.05411   0.79684   0.00000  Uiso   1.00
Cu641  Cu    0.25000   0.29821   0.83333   0.00000  Uiso   1.00
Cu642  Cu    0.25000   0.20178   0.83333   0.00000  Uiso   1.00
H643   H     0.02987   0.31413   0.78959   0.00000  Uiso   1.00
H644   H     0.19471   0.46375   0.78286   0.00000  Uiso   1.00
H645   H     0.20951   0.03671   0.76719   0.00000  Uiso   1.00
H646   H     0.30731   0.46300   0.88228   0.00000  Uiso   1.00
H647   H     0.33477   0.12511   0.89657   0.00000  Uiso   1.00
H648   H     0.25381   0.12897   0.95819   0.00000  Uiso   1.00
H649   H     0.30808   0.14950   0.97635   0.00000  Uiso   1.00
H650   H     0.29881   0.08657   0.96581   0.00000  Uiso   1.00
H651   H     0.15861   0.37882   0.78030   0.00000  Uiso   1.00
H652   H     0.19158   0.41271   0.70791   0.00000  Uiso   1.00
H653   H     0.17835   0.35021   0.69944   0.00000  Uiso   1.00
H654   H     0.46945   0.17269   0.82220   0.00000  Uiso   1.00
H655   H     0.23458   0.36784   0.71255   0.00000  Uiso   1.00
H656   H     0.20920   0.12395   0.72812   0.00000  Uiso   1.00
H657   H     0.14229   0.08678   0.75801   0.00000  Uiso   1.00
H658   H     0.13450   0.14968   0.74516   0.00000  Uiso   1.00
H659   H     0.14251   0.12985   0.80777   0.00000  Uiso   1.00
H660   H     0.34134   0.37706   0.88744   0.00000  Uiso   1.00
H661   H     0.30762   0.41300   0.95852   0.00000  Uiso   1.00
H662   H     0.31978   0.35040   0.96829   0.00000  Uiso   1.00
H663   H     0.26402   0.36878   0.95374   0.00000  Uiso   1.00
H664   H     0.47033   0.32598   0.84429   0.00000  Uiso   1.00
H665   H     0.03144   0.18415   0.87625   0.00000  Uiso   1.00
H666   H     0.11032   0.31468   0.79037   0.00000  Uiso   1.00
H667   H     0.38908   0.17289   0.82319   0.00000  Uiso   1.00
H668   H     0.39007   0.32654   0.84288   0.00000  Uiso   1.00
H669   H     0.11208   0.18423   0.87560   0.00000  Uiso   1.00
H670   H     0.29474   0.03647   0.89589   0.00000  Uiso   1.00
N671   N     0.25000   0.12934   0.83333   0.00000  Uiso   1.00
N672   N     0.25000   0.37065   0.83333   0.00000  Uiso   1.00
N673   N     0.30145   0.13000   0.90214   0.00000  Uiso   1.00
N674   N     0.19096   0.37065   0.77253   0.00000  Uiso   1.00
N675   N     0.19942   0.12988   0.76378   0.00000  Uiso   1.00
N676   N     0.30864   0.37003   0.89465   0.00000  Uiso   1.00
O677   O     0.18573   0.29071   0.83334   0.00000  Uiso   1.00
O678   O     0.31427   0.20928   0.83333   0.00000  Uiso   1.00
O679   O     0.31427   0.29071   0.83333   0.00000  Uiso   1.00
O680   O     0.18573   0.20928   0.83334   0.00000  Uiso   1.00
O681   O     0.25000   0.29071   0.76280   0.00000  Uiso   1.00
O682   O     0.25000   0.20929   0.90387   0.00000  Uiso   1.00
O683   O     0.25000   0.29071   0.90387   0.00000  Uiso   1.00
O684   O     0.25000   0.20929   0.76280   0.00000  Uiso   1.00
C685   C     0.66508   0.24995   0.83326   0.00000  Uiso   1.00
C686   C     0.78164   0.44579   0.86077   0.00000  Uiso   1.00
C687   C     0.74993   0.25002   0.74025   0.00000  Uiso   1.00
C688   C     0.75005   0.24999   0.92641   0.00000  Uiso   1.00
C689   C     0.75141   0.02738   0.83217   0.00000  Uiso   1.00
C690   C     0.75122   0.47270   0.83231   0.00000  Uiso   1.00
C691   C     0.74995   0.25003   0.68853   0.00000  Uiso   1.00
C692   C     0.75000   0.25000   0.97813   0.00000  Uiso   1.00
C693   C     0.54743   0.28598   0.80911   0.00000  Uiso   1.00
C694   C     0.95241   0.20634   0.82751   0.00000  Uiso   1.00
C695   C     0.95290   0.29246   0.83903   0.00000  Uiso   1.00
C696   C     0.83505   0.24997   0.83334   0.00000  Uiso   1.00
C697   C     0.54832   0.21251   0.85688   0.00000  Uiso   1.00
C698   C     0.59334   0.28634   0.80948   0.00000  Uiso   1.00
C699   C     0.90648   0.20653   0.82775   0.00000  Uiso   1.00
C700   C     0.90699   0.29272   0.83868   0.00000  Uiso   1.00
C701   C     0.59426   0.21261   0.85668   0.00000  Uiso   1.00
C702   C     0.61694   0.24970   0.83322   0.00000  Uiso   1.00
C703   C     0.88343   0.24976   0.83326   0.00000  Uiso   1.00
C704   C     0.52454   0.24921   0.83306   0.00000  Uiso   1.00
C705   C     0.97598   0.24930   0.83327   0.00000  Uiso   1.00
C706   C     0.78980   0.12318   0.95317   0.00000  Uiso   1.00
C707   C     0.77479   0.10463   0.86751   0.00000  Uiso   1.00
C708   C     0.69944   0.37575   0.72049   0.00000  Uiso   1.00
C709   C     0.65228   0.12357   0.76910   0.00000  Uiso   1.00
C710   C     0.79941   0.37601   0.94641   0.00000  Uiso   1.00
C711   C     0.72108   0.39561   0.80367   0.00000  Uiso   1.00
C712   C     0.72574   0.10461   0.79878   0.00000  Uiso   1.00
C713   C     0.77947   0.39530   0.86257   0.00000  Uiso   1.00
C714   C     0.77541   0.05404   0.86757   0.00000  Uiso   1.00
C715   C     0.72012   0.44616   0.80446   0.00000  Uiso   1.00
C716   C     0.72732   0.05411   0.79684   0.00000  Uiso   1.00
Cu717  Cu    0.75000   0.29821   0.83333   0.00000  Uiso   1.00
Cu718  Cu    0.75000   0.20178   0.83333   0.00000  Uiso   1.00
H719   H     0.52987   0.31413   0.78959   0.00000  Uiso   1.00
H720   H     0.69471   0.46375   0.78286   0.00000  Uiso   1.00
H721   H     0.70951   0.03671   0.76719   0.00000  Uiso   1.00
H722   H     0.80731   0.46300   0.88228   0.00000  Uiso   1.00
H723   H     0.83477   0.12511   0.89657   0.00000  Uiso   1.00
H724   H     0.75381   0.12897   0.95819   0.00000  Uiso   1.00
H725   H     0.80808   0.14950   0.97635   0.00000  Uiso   1.00
H726   H     0.79881   0.08657   0.96581   0.00000  Uiso   1.00
H727   H     0.65861   0.37882   0.78030   0.00000  Uiso   1.00
H728   H     0.69158   0.41271   0.70791   0.00000  Uiso   1.00
H729   H     0.67835   0.35021   0.69944   0.00000  Uiso   1.00
H730   H     0.96945   0.17269   0.82220   0.00000  Uiso   1.00
H731   H     0.73458   0.36784   0.71255   0.00000  Uiso   1.00
H732   H     0.70920   0.12395   0.72812   0.00000  Uiso   1.00
H733   H     0.64229   0.08678   0.75801   0.00000  Uiso   1.00
H734   H     0.63450   0.14968   0.74516   0.00000  Uiso   1.00
H735   H     0.64251   0.12985   0.80777   0.00000  Uiso   1.00
H736   H     0.84134   0.37706   0.88744   0.00000  Uiso   1.00
H737   H     0.80762   0.41300   0.95852   0.00000  Uiso   1.00
H738   H     0.81978   0.35040   0.96829   0.00000  Uiso   1.00
H739   H     0.76402   0.36878   0.95374   0.00000  Uiso   1.00
H740   H     0.97033   0.32598   0.84429   0.00000  Uiso   1.00
H741   H     0.53144   0.18415   0.87625   0.00000  Uiso   1.00
H742   H     0.61032   0.31468   0.79037   0.00000  Uiso   1.00
H743   H     0.88908   0.17289   0.82319   0.00000  Uiso   1.00
H744   H     0.89007   0.32654   0.84288   0.00000  Uiso   1.00
H745   H     0.61208   0.18423   0.87560   0.00000  Uiso   1.00
H746   H     0.79474   0.03647   0.89589   0.00000  Uiso   1.00
N747   N     0.75000   0.12934   0.83333   0.00000  Uiso   1.00
N748   N     0.75000   0.37065   0.83333   0.00000  Uiso   1.00
N749   N     0.80145   0.13000   0.90214   0.00000  Uiso   1.00
N750   N     0.69096   0.37065   0.77253   0.00000  Uiso   1.00
N751   N     0.69942   0.12988   0.76378   0.00000  Uiso   1.00
N752   N     0.80864   0.37003   0.89465   0.00000  Uiso   1.00
O753   O     0.68573   0.29071   0.83334   0.00000  Uiso   1.00
O754   O     0.81427   0.20928   0.83333   0.00000  Uiso   1.00
O755   O     0.81427   0.29071   0.83333   0.00000  Uiso   1.00
O756   O     0.68573   0.20928   0.83334   0.00000  Uiso   1.00
O757   O     0.75000   0.29071   0.76280   0.00000  Uiso   1.00
O758   O     0.75000   0.20929   0.90387   0.00000  Uiso   1.00
O759   O     0.75000   0.29071   0.90387   0.00000  Uiso   1.00
O760   O     0.75000   0.20929   0.76280   0.00000  Uiso   1.00
C761   C     0.16508   0.74995   0.83326   0.00000  Uiso   1.00
C762   C     0.28164   0.94579   0.86077   0.00000  Uiso   1.00
C763   C     0.24993   0.75002   0.74025   0.00000  Uiso   1.00
C764   C     0.25005   0.74999   0.92641   0.00000  Uiso   1.00
C765   C     0.25141   0.52738   0.83217   0.00000  Uiso   1.00
C766   C     0.25122   0.97270   0.83231   0.00000  Uiso   1.00
C767   C     0.24995   0.75003   0.68853   0.00000  Uiso   1.00
C768   C     0.25000   0.75000   0.97813   0.00000  Uiso   1.00
C769   C     0.04743   0.78598   0.80911   0.00000  Uiso   1.00
C770   C     0.45241   0.70634   0.82751   0.00000  Uiso   1.00
C771   C     0.45290   0.79246   0.83903   0.00000  Uiso   1.00
C772   C     0.33505   0.74997   0.83334   0.00000  Uiso   1.00
C773   C     0.04832   0.71251   0.85688   0.00000  Uiso   1.00
C774   C     0.09334   0.78634   0.80948   0.00000  Uiso   1.00
C775   C     0.40648   0.70653   0.82775   0.00000  Uiso   1.00
C776   C     0.40699   0.79272   0.83868   0.00000  Uiso   1.00
C777   C     0.09426   0.71261   0.85668   0.00000  Uiso   1.00
C778   C     0.11694   0.74970   0.83322   0.00000  Uiso   1.00
C779   C     0.38343   0.74976   0.83326   0.00000  Uiso   1.00
C780   C     0.02454   0.74921   0.83306   0.00000  Uiso   1.00
C781   C     0.47598   0.74930   0.83327   0.00000  Uiso   1.00
C782   C     0.28980   0.62318   0.95317   0.00000  Uiso   1.00
C783   C     0.27479   0.60463   0.86751   0.00000  Uiso   1.00
C784   C     0.19944   0.87575   0.72049   0.00000  Uiso   1.00
C785   C     0.15228   0.62357   0.76910   0.00000  Uiso   1.00
C786   C     0.29941   0.87601   0.94641   0.00000  Uiso   1.00
C787   C     0.22108   0.89561   0.80367   0.00000  Uiso   1.00
C788   C     0.22574   0.60461   0.79878   0.00000  Uiso   1.00
C789   C     0.27947   0.89530   0.86257   0.00000  Uiso   1.00
C790   C     0.27541   0.55404   0.86757   0.00000  Uiso   1.00
C791   C     0.22012   0.94616   0.80446   0.00000  Uiso   1.00
C792   C     0.22732   0.55411   0.79684   0.00000  Uiso   1.00
Cu793  Cu    0.25000   0.79821   0.83333   0.00000  Uiso   1.00
Cu794  Cu    0.25000   0.70178   0.83333   0.00000  Uiso   1.00
H795   H     0.02987   0.81413   0.78959   0.00000  Uiso   1.00
H796   H     0.19471   0.96375   0.78286   0.00000  Uiso   1.00
H797   H     0.20951   0.53671   0.76719   0.00000  Uiso   1.00
H798   H     0.30731   0.96300   0.88228   0.00000  Uiso   1.00
H799   H     0.33477   0.62511   0.89657   0.00000  Uiso   1.00
H800   H     0.25381   0.62897   0.95819   0.00000  Uiso   1.00
H801   H     0.30808   0.64950   0.97635   0.00000  Uiso   1.00
H802   H     0.29881   0.58657   0.96581   0.00000  Uiso   1.00
H803   H     0.15861   0.87882   0.78030   0.00000  Uiso   1.00
H804   H     0.19158   0.91271   0.70791   0.00000  Uiso   1.00
H805   H     0.17835   0.85021   0.69944   0.00000  Uiso   1.00
H806   H     0.46945   0.67269   0.82220   0.00000  Uiso   1.00
H807   H     0.23458   0.86784   0.71255   0.00000  Uiso   1.00
H808   H     0.20920   0.62395   0.72812   0.00000  Uiso   1.00
H809   H     0.14229   0.58678   0.75801   0.00000  Uiso   1.00
H810   H     0.13450   0.64968   0.74516   0.00000  Uiso   1.00
H811   H     0.14251   0.62985   0.80777   0.00000  Uiso   1.00
H812   H     0.34134   0.87706   0.88744   0.00000  Uiso   1.00
H813   H     0.30762   0.91300   0.95852   0.00000  Uiso   1.00
H814   H     0.31978   0.85040   0.96829   0.00000  Uiso   1.00
H815   H     0.26402   0.86878   0.95374   0.00000  Uiso   1.00
H816   H     0.47033   0.82598   0.84429   0.00000  Uiso   1.00
H817   H     0.03144   0.68415   0.87625   0.00000  Uiso   1.00
H818   H     0.11032   0.81468   0.79037   0.00000  Uiso   1.00
H819   H     0.38908   0.67289   0.82319   0.00000  Uiso   1.00
H820   H     0.39007   0.82654   0.84288   0.00000  Uiso   1.00
H821   H     0.11208   0.68423   0.87560   0.00000  Uiso   1.00
H822   H     0.29474   0.53647   0.89589   0.00000  Uiso   1.00
N823   N     0.25000   0.62934   0.83333   0.00000  Uiso   1.00
N824   N     0.25000   0.87065   0.83333   0.00000  Uiso   1.00
N825   N     0.30145   0.63000   0.90214   0.00000  Uiso   1.00
N826   N     0.19096   0.87065   0.77253   0.00000  Uiso   1.00
N827   N     0.19942   0.62988   0.76378   0.00000  Uiso   1.00
N828   N     0.30864   0.87003   0.89465   0.00000  Uiso   1.00
O829   O     0.18573   0.79071   0.83334   0.00000  Uiso   1.00
O830   O     0.31427   0.70928   0.83333   0.00000  Uiso   1.00
O831   O     0.31427   0.79071   0.83333   0.00000  Uiso   1.00
O832   O     0.18573   0.70928   0.83334   0.00000  Uiso   1.00
O833   O     0.25000   0.79071   0.76280   0.00000  Uiso   1.00
O834   O     0.25000   0.70929   0.90387   0.00000  Uiso   1.00
O835   O     0.25000   0.79071   0.90387   0.00000  Uiso   1.00
O836   O     0.25000   0.70929   0.76280   0.00000  Uiso   1.00
C837   C     0.66508   0.74995   0.83326   0.00000  Uiso   1.00
C838   C     0.78164   0.94579   0.86077   0.00000  Uiso   1.00
C839   C     0.74993   0.75002   0.74025   0.00000  Uiso   1.00
C840   C     0.75005   0.74999   0.92641   0.00000  Uiso   1.00
C841   C     0.75141   0.52738   0.83217   0.00000  Uiso   1.00
C842   C     0.75122   0.97270   0.83231   0.00000  Uiso   1.00
C843   C     0.74995   0.75003   0.68853   0.00000  Uiso   1.00
C844   C     0.75000   0.75000   0.97813   0.00000  Uiso   1.00
C845   C     0.54743   0.78598   0.80911   0.00000  Uiso   1.00
C846   C     0.95241   0.70634   0.82751   0.00000  Uiso   1.00
C847   C     0.95290   0.79246   0.83903   0.00000  Uiso   1.00
C848   C     0.83505   0.74997   0.83334   0.00000  Uiso   1.00
C849   C     0.54832   0.71251   0.85688   0.00000  Uiso   1.00
C850   C     0.59334   0.78634   0.80948   0.00000  Uiso   1.00
C851   C     0.90648   0.70653   0.82775   0.00000  Uiso   1.00
C852   C     0.90699   0.79272   0.83868   0.00000  Uiso   1.00
C853   C     0.59426   0.71261   0.85668   0.00000  Uiso   1.00
C854   C     0.61694   0.74970   0.83322   0.00000  Uiso   1.00
C855   C     0.88343   0.74976   0.83326   0.00000  Uiso   1.00
C856   C     0.52454   0.74921   0.83306   0.00000  Uiso   1.00
C857   C     0.97598   0.74930   0.83327   0.00000  Uiso   1.00
C858   C     0.78980   0.62318   0.95317   0.00000  Uiso   1.00
C859   C     0.77479   0.60463   0.86751   0.00000  Uiso   1.00
C860   C     0.69944   0.87575   0.72049   0.00000  Uiso   1.00
C861   C     0.65228   0.62357   0.76910   0.00000  Uiso   1.00
C862   C     0.79941   0.87601   0.94641   0.00000  Uiso   1.00
C863   C     0.72108   0.89561   0.80367   0.00000  Uiso   1.00
C864   C     0.72574   0.60461   0.79878   0.00000  Uiso   1.00
C865   C     0.77947   0.89530   0.86257   0.00000  Uiso   1.00
C866   C     0.77541   0.55404   0.86757   0.00000  Uiso   1.00
C867   C     0.72012   0.94616   0.80446   0.00000  Uiso   1.00
C868   C     0.72732   0.55411   0.79684   0.00000  Uiso   1.00
Cu869  Cu    0.75000   0.79821   0.83333   0.00000  Uiso   1.00
Cu870  Cu    0.75000   0.70178   0.83333   0.00000  Uiso   1.00
H871   H     0.52987   0.81413   0.78959   0.00000  Uiso   1.00
H872   H     0.69471   0.96375   0.78286   0.00000  Uiso   1.00
H873   H     0.70951   0.53671   0.76719   0.00000  Uiso   1.00
H874   H     0.80731   0.96300   0.88228   0.00000  Uiso   1.00
H875   H     0.83477   0.62511   0.89657   0.00000  Uiso   1.00
H876   H     0.75381   0.62897   0.95819   0.00000  Uiso   1.00
H877   H     0.80808   0.64950   0.97635   0.00000  Uiso   1.00
H878   H     0.79881   0.58657   0.96581   0.00000  Uiso   1.00
H879   H     0.65861   0.87882   0.78030   0.00000  Uiso   1.00
H880   H     0.69158   0.91271   0.70791   0.00000  Uiso   1.00
H881   H     0.67835   0.85021   0.69944   0.00000  Uiso   1.00
H882   H     0.96945   0.67269   0.82220   0.00000  Uiso   1.00
H883   H     0.73458   0.86784   0.71255   0.00000  Uiso   1.00
H884   H     0.70920   0.62395   0.72812   0.00000  Uiso   1.00
H885   H     0.64229   0.58678   0.75801   0.00000  Uiso   1.00
H886   H     0.63450   0.64968   0.74516   0.00000  Uiso   1.00
H887   H     0.64251   0.62985   0.80777   0.00000  Uiso   1.00
H888   H     0.84134   0.87706   0.88744   0.00000  Uiso   1.00
H889   H     0.80762   0.91300   0.95852   0.00000  Uiso   1.00
H890   H     0.81978   0.85040   0.96829   0.00000  Uiso   1.00
H891   H     0.76402   0.86878   0.95374   0.00000  Uiso   1.00
H892   H     0.97033   0.82598   0.84429   0.00000  Uiso   1.00
H893   H     0.53144   0.68415   0.87625   0.00000  Uiso   1.00
H894   H     0.61032   0.81468   0.79037   0.00000  Uiso   1.00
H895   H     0.88908   0.67289   0.82319   0.00000  Uiso   1.00
H896   H     0.89007   0.82654   0.84288   0.00000  Uiso   1.00
H897   H     0.61208   0.68423   0.87560   0.00000  Uiso   1.00
H898   H     0.79474   0.53647   0.89589   0.00000  Uiso   1.00
N899   N     0.75000   0.62934   0.83333   0.00000  Uiso   1.00
N900   N     0.75000   0.87065   0.83333   0.00000  Uiso   1.00
N901   N     0.80145   0.63000   0.90214   0.00000  Uiso   1.00
N902   N     0.69096   0.87065   0.77253   0.00000  Uiso   1.00
N903   N     0.69942   0.62988   0.76378   0.00000  Uiso   1.00
N904   N     0.80864   0.87003   0.89465   0.00000  Uiso   1.00
O905   O     0.68573   0.79071   0.83334   0.00000  Uiso   1.00
O906   O     0.81427   0.70928   0.83333   0.00000  Uiso   1.00
O907   O     0.81427   0.79071   0.83333   0.00000  Uiso   1.00
O908   O     0.68573   0.70928   0.83334   0.00000  Uiso   1.00
O909   O     0.75000   0.79071   0.76280   0.00000  Uiso   1.00
O910   O     0.75000   0.70929   0.90387   0.00000  Uiso   1.00
O911   O     0.75000   0.79071   0.90387   0.00000  Uiso   1.00
O912   O     0.75000   0.70929   0.76280   0.00000  Uiso   1.00
loop_
_geom_bond_atom_site_label_1
_geom_bond_atom_site_label_2
_geom_bond_distance
_geom_bond_site_symmetry_2
_ccdc_geom_bond_type
C1     C18     1.457   .     S
C1     O72     1.296   .     A
C1     O69     1.298   .     A
C2     C29     1.412   .     A
C2     C6      1.410   .     A
C2     H38     1.078   .     S
C3     C7      1.406   .     S
C3     O76     1.291   .     A
C3     O73     1.291   .     A
C4     C8      1.406   .     S
C4     O75     1.291   .     A
C4     O74     1.292   .     A
C5     C32     1.410   .     A
C5     C30     1.410   .     A
C5     C158    1.527   1_545 S
C6     C31     1.409   .     A
C6     C157    1.527   .     S
C7     C616    1.189   1_554 S
C8     C311    1.189   .     S
C9     C14     1.389   .     A
C9     C20     1.404   .     A
C9     H35     1.083   .     S
C10    C15     1.391   .     A
C10    H46     1.083   .     S
C10    C21     1.403   .     A
C11    C21     1.403   .     A
C11    C16     1.390   .     A
C11    H56     1.083   .     S
C12    O71     1.300   .     A
C12    O70     1.298   .     A
C12    C19     1.464   .     S
C13    H57     1.083   .     S
C13    C20     1.404   .     A
C13    C17     1.391   .     A
C14    C18     1.399   .     A
C14    H58     1.080   .     S
C15    C19     1.404   .     A
C15    H59     1.083   .     S
C16    C19     1.402   .     A
C16    H60     1.081   .     S
C17    H61     1.083   .     S
C17    C18     1.401   .     A
C20    C97     1.470   1_455 S
C21    C96     1.470   .     S
C22    H41     1.110   .     S
C22    N65     1.449   .     S
C22    H40     1.112   .     S
C22    H42     1.111   .     S
C23    N63     1.371   .     A
C23    C30     1.412   .     A
C23    N65     1.420   .     S
C24    H45     1.110   .     S
C24    N66     1.448   .     S
C24    H44     1.111   .     S
C24    H47     1.111   .     S
C25    N67     1.447   .     S
C25    H50     1.110   .     S
C25    H51     1.111   .     S
C25    H49     1.111   .     S
C26    H55     1.111   .     S
C26    H54     1.110   .     S
C26    H53     1.111   .     S
C26    N68     1.448   .     S
C27    C31     1.412   .     A
C27    N66     1.418   .     S
C27    N64     1.371   .     A
C28    C32     1.412   .     A
C28    N67     1.419   .     S
C28    N63     1.370   .     A
C29    N64     1.371   .     A
C29    N68     1.419   .     S
C30    H62     1.077   .     S
C31    H36     1.079   .     S
C32    H37     1.079   .     S
Cu33   O75     1.929   .     S
Cu33   N64     2.023   .     S
Cu33   Cu34    2.692   .     S
Cu33   O73     1.929   .     S
Cu33   O69     1.957   .     S
Cu33   O71     1.957   .     S
Cu34   O70     1.957   .     S
Cu34   O74     1.929   .     S
Cu34   O72     1.957   .     S
Cu34   N63     2.023   .     S
Cu34   O76     1.929   .     S
H39    N65     1.031   .     S
H43    N66     1.031   .     S
H48    N67     1.032   .     S
H52    N68     1.031   .     S
C77    C94     1.457   .     S
C77    O148    1.296   .     A
C77    O145    1.298   .     A
C78    C105    1.412   .     A
C78    C82     1.410   .     A
C78    H114    1.078   .     S
C79    C83     1.406   .     S
C79    O152    1.291   .     A
C79    O149    1.291   .     A
C80    C84     1.406   .     S
C80    O151    1.291   .     A
C80    O150    1.292   .     A
C81    C108    1.410   .     A
C81    C106    1.410   .     A
C81    C234    1.527   1_545 S
C82    C107    1.409   .     A
C82    C233    1.527   .     S
C83    C692    1.189   1_554 S
C84    C387    1.189   .     S
C85    C90     1.389   .     A
C85    C96     1.404   .     A
C85    H111    1.083   .     S
C86    C91     1.391   .     A
C86    H122    1.083   .     S
C86    C97     1.403   .     A
C87    C97     1.403   .     A
C87    C92     1.390   .     A
C87    H132    1.083   .     S
C88    O147    1.300   .     A
C88    O146    1.298   .     A
C88    C95     1.464   .     S
C89    H133    1.083   .     S
C89    C96     1.404   .     A
C89    C93     1.391   .     A
C90    C94     1.399   .     A
C90    H134    1.080   .     S
C91    C95     1.404   .     A
C91    H135    1.083   .     S
C92    C95     1.402   .     A
C92    H136    1.081   .     S
C93    H137    1.083   .     S
C93    C94     1.401   .     A
C97    C20     1.470   1_655 S
C98    H117    1.110   .     S
C98    N141    1.449   .     S
C98    H116    1.112   .     S
C98    H118    1.111   .     S
C99    N139    1.371   .     A
C99    C106    1.412   .     A
C99    N141    1.420   .     S
C100   H121    1.110   .     S
C100   N142    1.448   .     S
C100   H120    1.111   .     S
C100   H123    1.111   .     S
C101   N143    1.447   .     S
C101   H126    1.110   .     S
C101   H127    1.111   .     S
C101   H125    1.111   .     S
C102   H131    1.111   .     S
C102   H130    1.110   .     S
C102   H129    1.111   .     S
C102   N144    1.448   .     S
C103   C107    1.412   .     A
C103   N142    1.418   .     S
C103   N140    1.371   .     A
C104   C108    1.412   .     A
C104   N143    1.419   .     S
C104   N139    1.370   .     A
C105   N140    1.371   .     A
C105   N144    1.419   .     S
C106   H138    1.077   .     S
C107   H112    1.079   .     S
C108   H113    1.079   .     S
Cu109  O151    1.929   .     S
Cu109  N140    2.023   .     S
Cu109  Cu110   2.692   .     S
Cu109  O149    1.929   .     S
Cu109  O145    1.957   .     S
Cu109  O147    1.957   .     S
Cu110  O146    1.957   .     S
Cu110  O150    1.929   .     S
Cu110  O148    1.957   .     S
Cu110  N139    2.023   .     S
Cu110  O152    1.929   .     S
H115   N141    1.031   .     S
H119   N142    1.031   .     S
H124   N143    1.032   .     S
H128   N144    1.031   .     S
C153   C170    1.457   .     S
C153   O224    1.296   .     A
C153   O221    1.298   .     A
C154   C181    1.412   .     A
C154   C158    1.410   .     A
C154   H190    1.078   .     S
C155   C159    1.406   .     S
C155   O228    1.291   .     A
C155   O225    1.291   .     A
C156   C160    1.406   .     S
C156   O227    1.291   .     A
C156   O226    1.292   .     A
C157   C184    1.410   .     A
C157   C182    1.410   .     A
C158   C183    1.409   .     A
C158   C5      1.527   1_565 S
C159   C768    1.189   1_554 S
C160   C463    1.189   .     S
C161   C166    1.389   .     A
C161   C172    1.404   .     A
C161   H187    1.083   .     S
C162   C167    1.391   .     A
C162   H198    1.083   .     S
C162   C173    1.403   .     A
C163   C173    1.403   .     A
C163   C168    1.390   .     A
C163   H208    1.083   .     S
C164   O223    1.300   .     A
C164   O222    1.298   .     A
C164   C171    1.464   .     S
C165   H209    1.083   .     S
C165   C172    1.404   .     A
C165   C169    1.391   .     A
C166   C170    1.399   .     A
C166   H210    1.080   .     S
C167   C171    1.404   .     A
C167   H211    1.083   .     S
C168   C171    1.402   .     A
C168   H212    1.081   .     S
C169   H213    1.083   .     S
C169   C170    1.401   .     A
C172   C249    1.470   1_455 S
C173   C248    1.470   .     S
C174   H193    1.110   .     S
C174   N217    1.449   .     S
C174   H192    1.112   .     S
C174   H194    1.111   .     S
C175   N215    1.371   .     A
C175   C182    1.412   .     A
C175   N217    1.420   .     S
C176   H197    1.110   .     S
C176   N218    1.448   .     S
C176   H196    1.111   .     S
C176   H199    1.111   .     S
C177   N219    1.447   .     S
C177   H202    1.110   .     S
C177   H203    1.111   .     S
C177   H201    1.111   .     S
C178   H207    1.111   .     S
C178   H206    1.110   .     S
C178   H205    1.111   .     S
C178   N220    1.448   .     S
C179   C183    1.412   .     A
C179   N218    1.418   .     S
C179   N216    1.371   .     A
C180   C184    1.412   .     A
C180   N219    1.419   .     S
C180   N215    1.370   .     A
C181   N216    1.371   .     A
C181   N220    1.419   .     S
C182   H214    1.077   .     S
C183   H188    1.079   .     S
C184   H189    1.079   .     S
Cu185  O227    1.929   .     S
Cu185  N216    2.023   .     S
Cu185  Cu186   2.692   .     S
Cu185  O225    1.929   .     S
Cu185  O221    1.957   .     S
Cu185  O223    1.957   .     S
Cu186  O222    1.957   .     S
Cu186  O226    1.929   .     S
Cu186  O224    1.957   .     S
Cu186  N215    2.023   .     S
Cu186  O228    1.929   .     S
H191   N217    1.031   .     S
H195   N218    1.031   .     S
H200   N219    1.032   .     S
H204   N220    1.031   .     S
C229   C246    1.457   .     S
C229   O300    1.296   .     A
C229   O297    1.298   .     A
C230   C257    1.412   .     A
C230   C234    1.410   .     A
C230   H266    1.078   .     S
C231   C235    1.406   .     S
C231   O304    1.291   .     A
C231   O301    1.291   .     A
C232   C236    1.406   .     S
C232   O303    1.291   .     A
C232   O302    1.292   .     A
C233   C260    1.410   .     A
C233   C258    1.410   .     A
C234   C259    1.409   .     A
C234   C81     1.527   1_565 S
C235   C844    1.189   1_554 S
C236   C539    1.189   .     S
C237   C242    1.389   .     A
C237   C248    1.404   .     A
C237   H263    1.083   .     S
C238   C243    1.391   .     A
C238   H274    1.083   .     S
C238   C249    1.403   .     A
C239   C249    1.403   .     A
C239   C244    1.390   .     A
C239   H284    1.083   .     S
C240   O299    1.300   .     A
C240   O298    1.298   .     A
C240   C247    1.464   .     S
C241   H285    1.083   .     S
C241   C248    1.404   .     A
C241   C245    1.391   .     A
C242   C246    1.399   .     A
C242   H286    1.080   .     S
C243   C247    1.404   .     A
C243   H287    1.083   .     S
C244   C247    1.402   .     A
C244   H288    1.081   .     S
C245   H289    1.083   .     S
C245   C246    1.401   .     A
C249   C172    1.470   1_655 S
C250   H269    1.110   .     S
C250   N293    1.449   .     S
C250   H268    1.112   .     S
C250   H270    1.111   .     S
C251   N291    1.371   .     A
C251   C258    1.412   .     A
C251   N293    1.420   .     S
C252   H273    1.110   .     S
C252   N294    1.448   .     S
C252   H272    1.111   .     S
C252   H275    1.111   .     S
C253   N295    1.447   .     S
C253   H278    1.110   .     S
C253   H279    1.111   .     S
C253   H277    1.111   .     S
C254   H283    1.111   .     S
C254   H282    1.110   .     S
C254   H281    1.111   .     S
C254   N296    1.448   .     S
C255   C259    1.412   .     A
C255   N294    1.418   .     S
C255   N292    1.371   .     A
C256   C260    1.412   .     A
C256   N295    1.419   .     S
C256   N291    1.370   .     A
C257   N292    1.371   .     A
C257   N296    1.419   .     S
C258   H290    1.077   .     S
C259   H264    1.079   .     S
C260   H265    1.079   .     S
Cu261  O303    1.929   .     S
Cu261  N292    2.023   .     S
Cu261  Cu262   2.692   .     S
Cu261  O301    1.929   .     S
Cu261  O297    1.957   .     S
Cu261  O299    1.957   .     S
Cu262  O298    1.957   .     S
Cu262  O302    1.929   .     S
Cu262  O300    1.957   .     S
Cu262  N291    2.023   .     S
Cu262  O304    1.929   .     S
H267   N293    1.031   .     S
H271   N294    1.031   .     S
H276   N295    1.032   .     S
H280   N296    1.031   .     S
C305   C322    1.457   .     S
C305   O376    1.296   .     A
C305   O373    1.298   .     A
C306   C333    1.412   .     A
C306   C310    1.410   .     A
C306   H342    1.078   .     S
C307   C311    1.406   .     S
C307   O380    1.291   .     A
C307   O377    1.291   .     A
C308   C312    1.406   .     S
C308   O379    1.291   .     A
C308   O378    1.292   .     A
C309   C336    1.410   .     A
C309   C334    1.410   .     A
C309   C462    1.527   1_545 S
C310   C335    1.409   .     A
C310   C461    1.527   .     S
C312   C615    1.189   .     S
C313   C318    1.389   .     A
C313   C324    1.404   .     A
C313   H339    1.083   .     S
C314   C319    1.391   .     A
C314   H350    1.083   .     S
C314   C325    1.403   .     A
C315   C325    1.403   .     A
C315   C320    1.390   .     A
C315   H360    1.083   .     S
C316   O375    1.300   .     A
C316   O374    1.298   .     A
C316   C323    1.464   .     S
C317   H361    1.083   .     S
C317   C324    1.404   .     A
C317   C321    1.391   .     A
C318   C322    1.399   .     A
C318   H362    1.080   .     S
C319   C323    1.404   .     A
C319   H363    1.083   .     S
C320   C323    1.402   .     A
C320   H364    1.081   .     S
C321   H365    1.083   .     S
C321   C322    1.401   .     A
C324   C401    1.470   1_455 S
C325   C400    1.470   .     S
C326   H345    1.110   .     S
C326   N369    1.449   .     S
C326   H344    1.112   .     S
C326   H346    1.111   .     S
C327   N367    1.371   .     A
C327   C334    1.412   .     A
C327   N369    1.420   .     S
C328   H349    1.110   .     S
C328   N370    1.448   .     S
C328   H348    1.111   .     S
C328   H351    1.111   .     S
C329   N371    1.447   .     S
C329   H354    1.110   .     S
C329   H355    1.111   .     S
C329   H353    1.111   .     S
C330   H359    1.111   .     S
C330   H358    1.110   .     S
C330   H357    1.111   .     S
C330   N372    1.448   .     S
C331   C335    1.412   .     A
C331   N370    1.418   .     S
C331   N368    1.371   .     A
C332   C336    1.412   .     A
C332   N371    1.419   .     S
C332   N367    1.370   .     A
C333   N368    1.371   .     A
C333   N372    1.419   .     S
C334   H366    1.077   .     S
C335   H340    1.079   .     S
C336   H341    1.079   .     S
Cu337  O379    1.929   .     S
Cu337  N368    2.023   .     S
Cu337  Cu338   2.692   .     S
Cu337  O377    1.929   .     S
Cu337  O373    1.957   .     S
Cu337  O375    1.957   .     S
Cu338  O374    1.957   .     S
Cu338  O378    1.929   .     S
Cu338  O376    1.957   .     S
Cu338  N367    2.023   .     S
Cu338  O380    1.929   .     S
H343   N369    1.031   .     S
H347   N370    1.031   .     S
H352   N371    1.032   .     S
H356   N372    1.031   .     S
C381   C398    1.457   .     S
C381   O452    1.296   .     A
C381   O449    1.298   .     A
C382   C409    1.412   .     A
C382   C386    1.410   .     A
C382   H418    1.078   .     S
C383   C387    1.406   .     S
C383   O456    1.291   .     A
C383   O453    1.291   .     A
C384   C388    1.406   .     S
C384   O455    1.291   .     A
C384   O454    1.292   .     A
C385   C412    1.410   .     A
C385   C410    1.410   .     A
C385   C538    1.527   1_545 S
C386   C411    1.409   .     A
C386   C537    1.527   .     S
C388   C691    1.189   .     S
C389   C394    1.389   .     A
C389   C400    1.404   .     A
C389   H415    1.083   .     S
C390   C395    1.391   .     A
C390   H426    1.083   .     S
C390   C401    1.403   .     A
C391   C401    1.403   .     A
C391   C396    1.390   .     A
C391   H436    1.083   .     S
C392   O451    1.300   .     A
C392   O450    1.298   .     A
C392   C399    1.464   .     S
C393   H437    1.083   .     S
C393   C400    1.404   .     A
C393   C397    1.391   .     A
C394   C398    1.399   .     A
C394   H438    1.080   .     S
C395   C399    1.404   .     A
C395   H439    1.083   .     S
C396   C399    1.402   .     A
C396   H440    1.081   .     S
C397   H441    1.083   .     S
C397   C398    1.401   .     A
C401   C324    1.470   1_655 S
C402   H421    1.110   .     S
C402   N445    1.449   .     S
C402   H420    1.112   .     S
C402   H422    1.111   .     S
C403   N443    1.371   .     A
C403   C410    1.412   .     A
C403   N445    1.420   .     S
C404   H425    1.110   .     S
C404   N446    1.448   .     S
C404   H424    1.111   .     S
C404   H427    1.111   .     S
C405   N447    1.447   .     S
C405   H430    1.110   .     S
C405   H431    1.111   .     S
C405   H429    1.111   .     S
C406   H435    1.111   .     S
C406   H434    1.110   .     S
C406   H433    1.111   .     S
C406   N448    1.448   .     S
C407   C411    1.412   .     A
C407   N446    1.418   .     S
C407   N444    1.371   .     A
C408   C412    1.412   .     A
C408   N447    1.419   .     S
C408   N443    1.370   .     A
C409   N444    1.371   .     A
C409   N448    1.419   .     S
C410   H442    1.077   .     S
C411   H416    1.079   .     S
C412   H417    1.079   .     S
Cu413  O455    1.929   .     S
Cu413  N444    2.023   .     S
Cu413  Cu414   2.692   .     S
Cu413  O453    1.929   .     S
Cu413  O449    1.957   .     S
Cu413  O451    1.957   .     S
Cu414  O450    1.957   .     S
Cu414  O454    1.929   .     S
Cu414  O452    1.957   .     S
Cu414  N443    2.023   .     S
Cu414  O456    1.929   .     S
H419   N445    1.031   .     S
H423   N446    1.031   .     S
H428   N447    1.032   .     S
H432   N448    1.031   .     S
C457   C474    1.457   .     S
C457   O528    1.296   .     A
C457   O525    1.298   .     A
C458   C485    1.412   .     A
C458   C462    1.410   .     A
C458   H494    1.078   .     S
C459   C463    1.406   .     S
C459   O532    1.291   .     A
C459   O529    1.291   .     A
C460   C464    1.406   .     S
C460   O531    1.291   .     A
C460   O530    1.292   .     A
C461   C488    1.410   .     A
C461   C486    1.410   .     A
C462   C487    1.409   .     A
C462   C309    1.527   1_565 S
C464   C767    1.189   .     S
C465   C470    1.389   .     A
C465   C476    1.404   .     A
C465   H491    1.083   .     S
C466   C471    1.391   .     A
C466   H502    1.083   .     S
C466   C477    1.403   .     A
C467   C477    1.403   .     A
C467   C472    1.390   .     A
C467   H512    1.083   .     S
C468   O527    1.300   .     A
C468   O526    1.298   .     A
C468   C475    1.464   .     S
C469   H513    1.083   .     S
C469   C476    1.404   .     A
C469   C473    1.391   .     A
C470   C474    1.399   .     A
C470   H514    1.080   .     S
C471   C475    1.404   .     A
C471   H515    1.083   .     S
C472   C475    1.402   .     A
C472   H516    1.081   .     S
C473   H517    1.083   .     S
C473   C474    1.401   .     A
C476   C553    1.470   1_455 S
C477   C552    1.470   .     S
C478   H497    1.110   .     S
C478   N521    1.449   .     S
C478   H496    1.112   .     S
C478   H498    1.111   .     S
C479   N519    1.371   .     A
C479   C486    1.412   .     A
C479   N521    1.420   .     S
C480   H501    1.110   .     S
C480   N522    1.448   .     S
C480   H500    1.111   .     S
C480   H503    1.111   .     S
C481   N523    1.447   .     S
C481   H506    1.110   .     S
C481   H507    1.111   .     S
C481   H505    1.111   .     S
C482   H511    1.111   .     S
C482   H510    1.110   .     S
C482   H509    1.111   .     S
C482   N524    1.448   .     S
C483   C487    1.412   .     A
C483   N522    1.418   .     S
C483   N520    1.371   .     A
C484   C488    1.412   .     A
C484   N523    1.419   .     S
C484   N519    1.370   .     A
C485   N520    1.371   .     A
C485   N524    1.419   .     S
C486   H518    1.077   .     S
C487   H492    1.079   .     S
C488   H493    1.079   .     S
Cu489  O531    1.929   .     S
Cu489  N520    2.023   .     S
Cu489  Cu490   2.692   .     S
Cu489  O529    1.929   .     S
Cu489  O525    1.957   .     S
Cu489  O527    1.957   .     S
Cu490  O526    1.957   .     S
Cu490  O530    1.929   .     S
Cu490  O528    1.957   .     S
Cu490  N519    2.023   .     S
Cu490  O532    1.929   .     S
H495   N521    1.031   .     S
H499   N522    1.031   .     S
H504   N523    1.032   .     S
H508   N524    1.031   .     S
C533   C550    1.457   .     S
C533   O604    1.296   .     A
C533   O601    1.298   .     A
C534   C561    1.412   .     A
C534   C538    1.410   .     A
C534   H570    1.078   .     S
C535   C539    1.406   .     S
C535   O608    1.291   .     A
C535   O605    1.291   .     A
C536   C540    1.406   .     S
C536   O607    1.291   .     A
C536   O606    1.292   .     A
C537   C564    1.410   .     A
C537   C562    1.410   .     A
C538   C563    1.409   .     A
C538   C385    1.527   1_565 S
C540   C843    1.189   .     S
C541   C546    1.389   .     A
C541   C552    1.404   .     A
C541   H567    1.083   .     S
C542   C547    1.391   .     A
C542   H578    1.083   .     S
C542   C553    1.403   .     A
C543   C553    1.403   .     A
C543   C548    1.390   .     A
C543   H588    1.083   .     S
C544   O603    1.300   .     A
C544   O602    1.298   .     A
C544   C551    1.464   .     S
C545   H589    1.083   .     S
C545   C552    1.404   .     A
C545   C549    1.391   .     A
C546   C550    1.399   .     A
C546   H590    1.080   .     S
C547   C551    1.404   .     A
C547   H591    1.083   .     S
C548   C551    1.402   .     A
C548   H592    1.081   .     S
C549   H593    1.083   .     S
C549   C550    1.401   .     A
C553   C476    1.470   1_655 S
C554   H573    1.110   .     S
C554   N597    1.449   .     S
C554   H572    1.112   .     S
C554   H574    1.111   .     S
C555   N595    1.371   .     A
C555   C562    1.412   .     A
C555   N597    1.420   .     S
C556   H577    1.110   .     S
C556   N598    1.448   .     S
C556   H576    1.111   .     S
C556   H579    1.111   .     S
C557   N599    1.447   .     S
C557   H582    1.110   .     S
C557   H583    1.111   .     S
C557   H581    1.111   .     S
C558   H587    1.111   .     S
C558   H586    1.110   .     S
C558   H585    1.111   .     S
C558   N600    1.448   .     S
C559   C563    1.412   .     A
C559   N598    1.418   .     S
C559   N596    1.371   .     A
C560   C564    1.412   .     A
C560   N599    1.419   .     S
C560   N595    1.370   .     A
C561   N596    1.371   .     A
C561   N600    1.419   .     S
C562   H594    1.077   .     S
C563   H568    1.079   .     S
C564   H569    1.079   .     S
Cu565  O607    1.929   .     S
Cu565  N596    2.023   .     S
Cu565  Cu566   2.692   .     S
Cu565  O605    1.929   .     S
Cu565  O601    1.957   .     S
Cu565  O603    1.957   .     S
Cu566  O602    1.957   .     S
Cu566  O606    1.929   .     S
Cu566  O604    1.957   .     S
Cu566  N595    2.023   .     S
Cu566  O608    1.929   .     S
H571   N597    1.031   .     S
H575   N598    1.031   .     S
H580   N599    1.032   .     S
H584   N600    1.031   .     S
C609   C626    1.457   .     S
C609   O680    1.296   .     A
C609   O677    1.298   .     A
C610   C637    1.412   .     A
C610   C614    1.410   .     A
C610   H646    1.078   .     S
C611   C615    1.406   .     S
C611   O684    1.291   .     A
C611   O681    1.291   .     A
C612   C616    1.406   .     S
C612   O683    1.291   .     A
C612   O682    1.292   .     A
C613   C640    1.410   .     A
C613   C638    1.410   .     A
C613   C766    1.527   1_545 S
C614   C639    1.409   .     A
C614   C765    1.527   .     S
C616   C7      1.189   1_556 S
C617   C622    1.389   .     A
C617   C628    1.404   .     A
C617   H643    1.083   .     S
C618   C623    1.391   .     A
C618   H654    1.083   .     S
C618   C629    1.403   .     A
C619   C629    1.403   .     A
C619   C624    1.390   .     A
C619   H664    1.083   .     S
C620   O679    1.300   .     A
C620   O678    1.298   .     A
C620   C627    1.464   .     S
C621   H665    1.083   .     S
C621   C628    1.404   .     A
C621   C625    1.391   .     A
C622   C626    1.399   .     A
C622   H666    1.080   .     S
C623   C627    1.404   .     A
C623   H667    1.083   .     S
C624   C627    1.402   .     A
C624   H668    1.081   .     S
C625   H669    1.083   .     S
C625   C626    1.401   .     A
C628   C705    1.470   1_455 S
C629   C704    1.470   .     S
C630   H649    1.110   .     S
C630   N673    1.449   .     S
C630   H648    1.112   .     S
C630   H650    1.111   .     S
C631   N671    1.371   .     A
C631   C638    1.412   .     A
C631   N673    1.420   .     S
C632   H653    1.110   .     S
C632   N674    1.448   .     S
C632   H652    1.111   .     S
C632   H655    1.111   .     S
C633   N675    1.447   .     S
C633   H658    1.110   .     S
C633   H659    1.111   .     S
C633   H657    1.111   .     S
C634   H663    1.111   .     S
C634   H662    1.110   .     S
C634   H661    1.111   .     S
C634   N676    1.448   .     S
C635   C639    1.412   .     A
C635   N674    1.418   .     S
C635   N672    1.371   .     A
C636   C640    1.412   .     A
C636   N675    1.419   .     S
C636   N671    1.370   .     A
C637   N672    1.371   .     A
C637   N676    1.419   .     S
C638   H670    1.077   .     S
C639   H644    1.079   .     S
C640   H645    1.079   .     S
Cu641  O683    1.929   .     S
Cu641  N672    2.023   .     S
Cu641  Cu642   2.692   .     S
Cu641  O681    1.929   .     S
Cu641  O677    1.957   .     S
Cu641  O679    1.957   .     S
Cu642  O678    1.957   .     S
Cu642  O682    1.929   .     S
Cu642  O680    1.957   .     S
Cu642  N671    2.023   .     S
Cu642  O684    1.929   .     S
H647   N673    1.031   .     S
H651   N674    1.031   .     S
H656   N675    1.032   .     S
H660   N676    1.031   .     S
C685   C702    1.457   .     S
C685   O756    1.296   .     A
C685   O753    1.298   .     A
C686   C713    1.412   .     A
C686   C690    1.410   .     A
C686   H722    1.078   .     S
C687   C691    1.406   .     S
C687   O760    1.291   .     A
C687   O757    1.291   .     A
C688   C692    1.406   .     S
C688   O759    1.291   .     A
C688   O758    1.292   .     A
C689   C716    1.410   .     A
C689   C714    1.410   .     A
C689   C842    1.527   1_545 S
C690   C715    1.409   .     A
C690   C841    1.527   .     S
C692   C83     1.189   1_556 S
C693   C698    1.389   .     A
C693   C704    1.404   .     A
C693   H719    1.083   .     S
C694   C699    1.391   .     A
C694   H730    1.083   .     S
C694   C705    1.403   .     A
C695   C705    1.403   .     A
C695   C700    1.390   .     A
C695   H740    1.083   .     S
C696   O755    1.300   .     A
C696   O754    1.298   .     A
C696   C703    1.464   .     S
C697   H741    1.083   .     S
C697   C704    1.404   .     A
C697   C701    1.391   .     A
C698   C702    1.399   .     A
C698   H742    1.080   .     S
C699   C703    1.404   .     A
C699   H743    1.083   .     S
C700   C703    1.402   .     A
C700   H744    1.081   .     S
C701   H745    1.083   .     S
C701   C702    1.401   .     A
C705   C628    1.470   1_655 S
C706   H725    1.110   .     S
C706   N749    1.449   .     S
C706   H724    1.112   .     S
C706   H726    1.111   .     S
C707   N747    1.371   .     A
C707   C714    1.412   .     A
C707   N749    1.420   .     S
C708   H729    1.110   .     S
C708   N750    1.448   .     S
C708   H728    1.111   .     S
C708   H731    1.111   .     S
C709   N751    1.447   .     S
C709   H734    1.110   .     S
C709   H735    1.111   .     S
C709   H733    1.111   .     S
C710   H739    1.111   .     S
C710   H738    1.110   .     S
C710   H737    1.111   .     S
C710   N752    1.448   .     S
C711   C715    1.412   .     A
C711   N750    1.418   .     S
C711   N748    1.371   .     A
C712   C716    1.412   .     A
C712   N751    1.419   .     S
C712   N747    1.370   .     A
C713   N748    1.371   .     A
C713   N752    1.419   .     S
C714   H746    1.077   .     S
C715   H720    1.079   .     S
C716   H721    1.079   .     S
Cu717  O759    1.929   .     S
Cu717  N748    2.023   .     S
Cu717  Cu718   2.692   .     S
Cu717  O757    1.929   .     S
Cu717  O753    1.957   .     S
Cu717  O755    1.957   .     S
Cu718  O754    1.957   .     S
Cu718  O758    1.929   .     S
Cu718  O756    1.957   .     S
Cu718  N747    2.023   .     S
Cu718  O760    1.929   .     S
H723   N749    1.031   .     S
H727   N750    1.031   .     S
H732   N751    1.032   .     S
H736   N752    1.031   .     S
C761   C778    1.457   .     S
C761   O832    1.296   .     A
C761   O829    1.298   .     A
C762   C789    1.412   .     A
C762   C766    1.410   .     A
C762   H798    1.078   .     S
C763   C767    1.406   .     S
C763   O836    1.291   .     A
C763   O833    1.291   .     A
C764   C768    1.406   .     S
C764   O835    1.291   .     A
C764   O834    1.292   .     A
C765   C792    1.410   .     A
C765   C790    1.410   .     A
C766   C791    1.409   .     A
C766   C613    1.527   1_565 S
C768   C159    1.189   1_556 S
C769   C774    1.389   .     A
C769   C780    1.404   .     A
C769   H795    1.083   .     S
C770   C775    1.391   .     A
C770   H806    1.083   .     S
C770   C781    1.403   .     A
C771   C781    1.403   .     A
C771   C776    1.390   .     A
C771   H816    1.083   .     S
C772   O831    1.300   .     A
C772   O830    1.298   .     A
C772   C779    1.464   .     S
C773   H817    1.083   .     S
C773   C780    1.404   .     A
C773   C777    1.391   .     A
C774   C778    1.399   .     A
C774   H818    1.080   .     S
C775   C779    1.404   .     A
C775   H819    1.083   .     S
C776   C779    1.402   .     A
C776   H820    1.081   .     S
C777   H821    1.083   .     S
C777   C778    1.401   .     A
C780   C857    1.470   1_455 S
C781   C856    1.470   .     S
C782   H801    1.110   .     S
C782   N825    1.449   .     S
C782   H800    1.112   .     S
C782   H802    1.111   .     S
C783   N823    1.371   .     A
C783   C790    1.412   .     A
C783   N825    1.420   .     S
C784   H805    1.110   .     S
C784   N826    1.448   .     S
C784   H804    1.111   .     S
C784   H807    1.111   .     S
C785   N827    1.447   .     S
C785   H810    1.110   .     S
C785   H811    1.111   .     S
C785   H809    1.111   .     S
C786   H815    1.111   .     S
C786   H814    1.110   .     S
C786   H813    1.111   .     S
C786   N828    1.448   .     S
C787   C791    1.412   .     A
C787   N826    1.418   .     S
C787   N824    1.371   .     A
C788   C792    1.412   .     A
C788   N827    1.419   .     S
C788   N823    1.370   .     A
C789   N824    1.371   .     A
C789   N828    1.419   .     S
C790   H822    1.077   .     S
C791   H796    1.079   .     S
C792   H797    1.079   .     S
Cu793  O835    1.929   .     S
Cu793  N824    2.023   .     S
Cu793  Cu794   2.692   .     S
Cu793  O833    1.929   .     S
Cu793  O829    1.957   .     S
Cu793  O831    1.957   .     S
Cu794  O830    1.957   .     S
Cu794  O834    1.929   .     S
Cu794  O832    1.957   .     S
Cu794  N823    2.023   .     S
Cu794  O836    1.929   .     S
H799   N825    1.031   .     S
H803   N826    1.031   .     S
H808   N827    1.032   .     S
H812   N828    1.031   .     S
C837   C854    1.457   .     S
C837   O908    1.296   .     A
C837   O905    1.298   .     A
C838   C865    1.412   .     A
C838   C842    1.410   .     A
C838   H874    1.078   .     S
C839   C843    1.406   .     S
C839   O912    1.291   .     A
C839   O909    1.291   .     A
C840   C844    1.406   .     S
C840   O911    1.291   .     A
C840   O910    1.292   .     A
C841   C868    1.410   .     A
C841   C866    1.410   .     A
C842   C867    1.409   .     A
C842   C689    1.527   1_565 S
C844   C235    1.189   1_556 S
C845   C850    1.389   .     A
C845   C856    1.404   .     A
C845   H871    1.083   .     S
C846   C851    1.391   .     A
C846   H882    1.083   .     S
C846   C857    1.403   .     A
C847   C857    1.403   .     A
C847   C852    1.390   .     A
C847   H892    1.083   .     S
C848   O907    1.300   .     A
C848   O906    1.298   .     A
C848   C855    1.464   .     S
C849   H893    1.083   .     S
C849   C856    1.404   .     A
C849   C853    1.391   .     A
C850   C854    1.399   .     A
C850   H894    1.080   .     S
C851   C855    1.404   .     A
C851   H895    1.083   .     S
C852   C855    1.402   .     A
C852   H896    1.081   .     S
C853   H897    1.083   .     S
C853   C854    1.401   .     A
C857   C780    1.470   1_655 S
C858   H877    1.110   .     S
C858   N901    1.449   .     S
C858   H876    1.112   .     S
C858   H878    1.111   .     S
C859   N899    1.371   .     A
C859   C866    1.412   .     A
C859   N901    1.420   .     S
C860   H881    1.110   .     S
C860   N902    1.448   .     S
C860   H880    1.111   .     S
C860   H883    1.111   .     S
C861   N903    1.447   .     S
C861   H886    1.110   .     S
C861   H887    1.111   .     S
C861   H885    1.111   .     S
C862   H891    1.111   .     S
C862   H890    1.110   .     S
C862   H889    1.111   .     S
C862   N904    1.448   .     S
C863   C867    1.412   .     A
C863   N902    1.418   .     S
C863   N900    1.371   .     A
C864   C868    1.412   .     A
C864   N903    1.419   .     S
C864   N899    1.370   .     A
C865   N900    1.371   .     A
C865   N904    1.419   .     S
C866   H898    1.077   .     S
C867   H872    1.079   .     S
C868   H873    1.079   .     S
Cu869  O911    1.929   .     S
Cu869  N900    2.023   .     S
Cu869  Cu870   2.692   .     S
Cu869  O909    1.929   .     S
Cu869  O905    1.957   .     S
Cu869  O907    1.957   .     S
Cu870  O906    1.957   .     S
Cu870  O910    1.929   .     S
Cu870  O908    1.957   .     S
Cu870  N899    2.023   .     S
Cu870  O912    1.929   .     S
H875   N901    1.031   .     S
H879   N902    1.031   .     S
H884   N903    1.032   .     S
H888   N904    1.031   .     S
