data_str_m2_o2_o10_pcu_sym.24
_audit_creation_date              2020-01-03
_audit_creation_method            'Materials Studio'
_symmetry_space_group_name_H-M    'P1'
_symmetry_Int_Tables_number       1
_symmetry_cell_setting            triclinic
loop_
_symmetry_equiv_pos_as_xyz
  x,y,z
_cell_length_a                    26.1792
_cell_length_b                    30.3314
_cell_length_c                    27.6749
_cell_angle_alpha                 89.2958
_cell_angle_beta                  98.0088
_cell_angle_gamma                 90.0755
loop_
_atom_site_label
_atom_site_type_symbol
_atom_site_fract_x
_atom_site_fract_y
_atom_site_fract_z
_atom_site_U_iso_or_equiv
_atom_site_adp_type
_atom_site_occupancy
C1     C     0.16619   0.16493   0.25032   0.00000  Uiso   1.00
C2     C     0.20865   0.26909   0.45138   0.00000  Uiso   1.00
C3     C     0.16616   0.25109   0.02720   0.00000  Uiso   1.00
C4     C     0.16698   0.25112   0.47277   0.00000  Uiso   1.00
C5     C     0.06786   0.25000   0.23752   0.00000  Uiso   1.00
C6     C     0.26547   0.25000   0.26248   0.00000  Uiso   1.00
C7     C     0.01259   0.25001   0.23062   0.00000  Uiso   1.00
C8     C     0.32074   0.24997   0.26938   0.00000  Uiso   1.00
C9     C     0.14444   0.04653   0.28620   0.00000  Uiso   1.00
C10    C     0.15506   0.45394   0.20540   0.00000  Uiso   1.00
C11    C     0.14459   0.09253   0.28755   0.00000  Uiso   1.00
C12    C     0.16662   0.33517   0.24955   0.00000  Uiso   1.00
C13    C     0.15570   0.40796   0.20416   0.00000  Uiso   1.00
C14    C     0.16608   0.11668   0.25125   0.00000  Uiso   1.00
C15    C     0.16692   0.38362   0.24844   0.00000  Uiso   1.00
C16    C     0.18766   0.09426   0.21496   0.00000  Uiso   1.00
C17    C     0.17834   0.40615   0.29264   0.00000  Uiso   1.00
C18    C     0.18833   0.04851   0.21467   0.00000  Uiso   1.00
C19    C     0.17861   0.45191   0.29320   0.00000  Uiso   1.00
C20    C     0.16664   0.02438   0.25022   0.00000  Uiso   1.00
C21    C     0.16683   0.47605   0.24963   0.00000  Uiso   1.00
C22    C     0.15312   0.11558   0.37114   0.00000  Uiso   1.00
C23    C     0.20713   0.23215   0.05896   0.00000  Uiso   1.00
C24    C     0.18732   0.38217   0.13194   0.00000  Uiso   1.00
C25    C     0.08966   0.33262   0.00076   0.00000  Uiso   1.00
C26    C     0.24417   0.33169   0.49781   0.00000  Uiso   1.00
C27    C     0.12579   0.23264   0.44143   0.00000  Uiso   1.00
C28    C     0.20653   0.23170   0.10969   0.00000  Uiso   1.00
C29    C     0.12646   0.23221   0.39071   0.00000  Uiso   1.00
C30    C     0.12635   0.26866   0.09950   0.00000  Uiso   1.00
C31    C     0.20723   0.26814   0.40011   0.00000  Uiso   1.00
C32    C     0.12481   0.26953   0.04821   0.00000  Uiso   1.00
Cu33   Cu    0.16667   0.25000   0.29821   0.00000  Uiso   1.00
Cu34   Cu    0.16667   0.25001   0.20178   0.00000  Uiso   1.00
H35    H     0.32589   0.25006   0.19346   0.00000  Uiso   1.00
H36    H     0.09342   0.21803   0.45619   0.00000  Uiso   1.00
H37    H     0.23817   0.21648   0.13329   0.00000  Uiso   1.00
H38    H     0.09463   0.21733   0.36747   0.00000  Uiso   1.00
H39    H     0.09518   0.28347   0.11547   0.00000  Uiso   1.00
H40    H     0.23870   0.28252   0.38386   0.00000  Uiso   1.00
H41    H     0.08474   0.10212   0.32709   0.00000  Uiso   1.00
H42    H     0.16049   0.08171   0.38627   0.00000  Uiso   1.00
H43    H     0.13316   0.13467   0.39692   0.00000  Uiso   1.00
H44    H     0.19049   0.13195   0.36783   0.00000  Uiso   1.00
H45    H     0.11219   0.40026   0.13677   0.00000  Uiso   1.00
H46    H     0.00744   0.24993   0.30653   0.00000  Uiso   1.00
H47    H     0.20044   0.41511   0.12063   0.00000  Uiso   1.00
H48    H     0.17588   0.36224   0.09882   0.00000  Uiso   1.00
H49    H     0.21976   0.36509   0.15486   0.00000  Uiso   1.00
H50    H     0.04759   0.28607   0.03349   0.00000  Uiso   1.00
H51    H     0.05430   0.34414   0.47712   0.00000  Uiso   1.00
H52    H     0.12192   0.33322   0.47868   0.00000  Uiso   1.00
H53    H     0.09812   0.35555   0.03187   0.00000  Uiso   1.00
H54    H     0.28596   0.28537   0.46561   0.00000  Uiso   1.00
H55    H     0.27985   0.34316   0.02066   0.00000  Uiso   1.00
H56    H     0.21248   0.33200   0.02055   0.00000  Uiso   1.00
H57    H     0.12662   0.02813   0.31322   0.00000  Uiso   1.00
H58    H     0.23490   0.35483   0.46636   0.00000  Uiso   1.00
H59    H     0.14517   0.47237   0.17161   0.00000  Uiso   1.00
H60    H     0.20475   0.11218   0.18712   0.00000  Uiso   1.00
H61    H     0.18758   0.38840   0.32695   0.00000  Uiso   1.00
H62    H     0.20623   0.03196   0.18689   0.00000  Uiso   1.00
H63    H     0.18846   0.46846   0.32771   0.00000  Uiso   1.00
H64    H     0.23928   0.21721   0.04451   0.00000  Uiso   1.00
N65    N     0.16667   0.25001   0.12934   0.00000  Uiso   1.00
N66    N     0.16667   0.24999   0.37065   0.00000  Uiso   1.00
N67    N     0.12109   0.11410   0.32414   0.00000  Uiso   1.00
N68    N     0.14371   0.38673   0.15840   0.00000  Uiso   1.00
N69    N     0.08143   0.28848   0.01845   0.00000  Uiso   1.00
N70    N     0.25220   0.28770   0.48071   0.00000  Uiso   1.00
O71    O     0.16667   0.18573   0.29071   0.00000  Uiso   1.00
O72    O     0.16666   0.31428   0.20928   0.00000  Uiso   1.00
O73    O     0.16667   0.18573   0.20928   0.00000  Uiso   1.00
O74    O     0.16666   0.31427   0.29072   0.00000  Uiso   1.00
O75    O     0.09161   0.25000   0.28132   0.00000  Uiso   1.00
O76    O     0.24172   0.25001   0.21868   0.00000  Uiso   1.00
O77    O     0.09161   0.25000   0.19988   0.00000  Uiso   1.00
O78    O     0.24172   0.25000   0.30011   0.00000  Uiso   1.00
C79    C     0.49953   0.16493   0.25032   0.00000  Uiso   1.00
C80    C     0.54199   0.26909   0.45138   0.00000  Uiso   1.00
C81    C     0.49950   0.25109   0.02720   0.00000  Uiso   1.00
C82    C     0.50031   0.25112   0.47277   0.00000  Uiso   1.00
C83    C     0.40120   0.25000   0.23752   0.00000  Uiso   1.00
C84    C     0.59880   0.25000   0.26248   0.00000  Uiso   1.00
C85    C     0.34592   0.25001   0.23062   0.00000  Uiso   1.00
C86    C     0.65407   0.24997   0.26938   0.00000  Uiso   1.00
C87    C     0.47777   0.04653   0.28620   0.00000  Uiso   1.00
C88    C     0.48839   0.45394   0.20540   0.00000  Uiso   1.00
C89    C     0.47793   0.09253   0.28755   0.00000  Uiso   1.00
C90    C     0.49995   0.33517   0.24955   0.00000  Uiso   1.00
C91    C     0.48903   0.40796   0.20416   0.00000  Uiso   1.00
C92    C     0.49941   0.11668   0.25125   0.00000  Uiso   1.00
C93    C     0.50026   0.38362   0.24844   0.00000  Uiso   1.00
C94    C     0.52099   0.09426   0.21496   0.00000  Uiso   1.00
C95    C     0.51168   0.40615   0.29264   0.00000  Uiso   1.00
C96    C     0.52166   0.04851   0.21467   0.00000  Uiso   1.00
C97    C     0.51194   0.45191   0.29320   0.00000  Uiso   1.00
C98    C     0.49998   0.02438   0.25022   0.00000  Uiso   1.00
C99    C     0.50016   0.47605   0.24963   0.00000  Uiso   1.00
C100   C     0.48645   0.11558   0.37114   0.00000  Uiso   1.00
C101   C     0.54046   0.23215   0.05896   0.00000  Uiso   1.00
C102   C     0.52065   0.38217   0.13194   0.00000  Uiso   1.00
C103   C     0.42299   0.33262   0.00076   0.00000  Uiso   1.00
C104   C     0.57750   0.33169   0.49781   0.00000  Uiso   1.00
C105   C     0.45913   0.23264   0.44143   0.00000  Uiso   1.00
C106   C     0.53986   0.23170   0.10969   0.00000  Uiso   1.00
C107   C     0.45979   0.23221   0.39071   0.00000  Uiso   1.00
C108   C     0.45969   0.26866   0.09950   0.00000  Uiso   1.00
C109   C     0.54056   0.26814   0.40011   0.00000  Uiso   1.00
C110   C     0.45814   0.26953   0.04821   0.00000  Uiso   1.00
Cu111  Cu    0.50000   0.25000   0.29821   0.00000  Uiso   1.00
Cu112  Cu    0.50000   0.25001   0.20178   0.00000  Uiso   1.00
H113   H     0.65922   0.25006   0.19346   0.00000  Uiso   1.00
H114   H     0.42675   0.21803   0.45619   0.00000  Uiso   1.00
H115   H     0.57150   0.21648   0.13329   0.00000  Uiso   1.00
H116   H     0.42796   0.21733   0.36747   0.00000  Uiso   1.00
H117   H     0.42851   0.28347   0.11547   0.00000  Uiso   1.00
H118   H     0.57204   0.28252   0.38386   0.00000  Uiso   1.00
H119   H     0.41807   0.10212   0.32709   0.00000  Uiso   1.00
H120   H     0.49382   0.08171   0.38627   0.00000  Uiso   1.00
H121   H     0.46650   0.13467   0.39692   0.00000  Uiso   1.00
H122   H     0.52382   0.13195   0.36783   0.00000  Uiso   1.00
H123   H     0.44553   0.40026   0.13677   0.00000  Uiso   1.00
H124   H     0.34078   0.24993   0.30653   0.00000  Uiso   1.00
H125   H     0.53377   0.41511   0.12063   0.00000  Uiso   1.00
H126   H     0.50922   0.36224   0.09882   0.00000  Uiso   1.00
H127   H     0.55309   0.36509   0.15486   0.00000  Uiso   1.00
H128   H     0.38093   0.28607   0.03349   0.00000  Uiso   1.00
H129   H     0.38763   0.34414   0.47712   0.00000  Uiso   1.00
H130   H     0.45526   0.33322   0.47868   0.00000  Uiso   1.00
H131   H     0.43145   0.35555   0.03187   0.00000  Uiso   1.00
H132   H     0.61929   0.28537   0.46561   0.00000  Uiso   1.00
H133   H     0.61318   0.34316   0.02066   0.00000  Uiso   1.00
H134   H     0.54581   0.33200   0.02055   0.00000  Uiso   1.00
H135   H     0.45996   0.02813   0.31322   0.00000  Uiso   1.00
H136   H     0.56823   0.35483   0.46636   0.00000  Uiso   1.00
H137   H     0.47850   0.47237   0.17161   0.00000  Uiso   1.00
H138   H     0.53808   0.11218   0.18712   0.00000  Uiso   1.00
H139   H     0.52091   0.38840   0.32695   0.00000  Uiso   1.00
H140   H     0.53957   0.03196   0.18689   0.00000  Uiso   1.00
H141   H     0.52180   0.46846   0.32771   0.00000  Uiso   1.00
H142   H     0.57261   0.21721   0.04451   0.00000  Uiso   1.00
N143   N     0.50000   0.25001   0.12934   0.00000  Uiso   1.00
N144   N     0.50000   0.24999   0.37065   0.00000  Uiso   1.00
N145   N     0.45443   0.11410   0.32414   0.00000  Uiso   1.00
N146   N     0.47704   0.38673   0.15840   0.00000  Uiso   1.00
N147   N     0.41476   0.28848   0.01845   0.00000  Uiso   1.00
N148   N     0.58553   0.28770   0.48071   0.00000  Uiso   1.00
O149   O     0.50000   0.18573   0.29071   0.00000  Uiso   1.00
O150   O     0.50000   0.31428   0.20928   0.00000  Uiso   1.00
O151   O     0.50000   0.18573   0.20928   0.00000  Uiso   1.00
O152   O     0.50000   0.31427   0.29072   0.00000  Uiso   1.00
O153   O     0.42495   0.25000   0.28132   0.00000  Uiso   1.00
O154   O     0.57505   0.25001   0.21868   0.00000  Uiso   1.00
O155   O     0.42495   0.25000   0.19988   0.00000  Uiso   1.00
O156   O     0.57505   0.25000   0.30011   0.00000  Uiso   1.00
C157   C     0.83286   0.16493   0.25032   0.00000  Uiso   1.00
C158   C     0.87532   0.26909   0.45138   0.00000  Uiso   1.00
C159   C     0.83283   0.25109   0.02720   0.00000  Uiso   1.00
C160   C     0.83365   0.25112   0.47277   0.00000  Uiso   1.00
C161   C     0.73453   0.25000   0.23752   0.00000  Uiso   1.00
C162   C     0.93214   0.25000   0.26248   0.00000  Uiso   1.00
C163   C     0.67926   0.25001   0.23062   0.00000  Uiso   1.00
C164   C     0.98741   0.24997   0.26938   0.00000  Uiso   1.00
C165   C     0.81111   0.04653   0.28620   0.00000  Uiso   1.00
C166   C     0.82173   0.45394   0.20540   0.00000  Uiso   1.00
C167   C     0.81126   0.09253   0.28755   0.00000  Uiso   1.00
C168   C     0.83329   0.33517   0.24955   0.00000  Uiso   1.00
C169   C     0.82236   0.40796   0.20416   0.00000  Uiso   1.00
C170   C     0.83274   0.11668   0.25125   0.00000  Uiso   1.00
C171   C     0.83359   0.38362   0.24844   0.00000  Uiso   1.00
C172   C     0.85432   0.09426   0.21496   0.00000  Uiso   1.00
C173   C     0.84501   0.40615   0.29264   0.00000  Uiso   1.00
C174   C     0.85500   0.04851   0.21467   0.00000  Uiso   1.00
C175   C     0.84527   0.45191   0.29320   0.00000  Uiso   1.00
C176   C     0.83331   0.02438   0.25022   0.00000  Uiso   1.00
C177   C     0.83349   0.47605   0.24963   0.00000  Uiso   1.00
C178   C     0.81979   0.11558   0.37114   0.00000  Uiso   1.00
C179   C     0.87380   0.23215   0.05896   0.00000  Uiso   1.00
C180   C     0.85399   0.38217   0.13194   0.00000  Uiso   1.00
C181   C     0.75632   0.33262   0.00076   0.00000  Uiso   1.00
C182   C     0.91083   0.33169   0.49781   0.00000  Uiso   1.00
C183   C     0.79246   0.23264   0.44143   0.00000  Uiso   1.00
C184   C     0.87319   0.23170   0.10969   0.00000  Uiso   1.00
C185   C     0.79313   0.23221   0.39071   0.00000  Uiso   1.00
C186   C     0.79302   0.26866   0.09950   0.00000  Uiso   1.00
C187   C     0.87390   0.26814   0.40011   0.00000  Uiso   1.00
C188   C     0.79147   0.26953   0.04821   0.00000  Uiso   1.00
Cu189  Cu    0.83333   0.25000   0.29821   0.00000  Uiso   1.00
Cu190  Cu    0.83333   0.25001   0.20178   0.00000  Uiso   1.00
H191   H     0.99255   0.25006   0.19346   0.00000  Uiso   1.00
H192   H     0.76008   0.21803   0.45619   0.00000  Uiso   1.00
H193   H     0.90484   0.21648   0.13329   0.00000  Uiso   1.00
H194   H     0.76130   0.21733   0.36747   0.00000  Uiso   1.00
H195   H     0.76185   0.28347   0.11547   0.00000  Uiso   1.00
H196   H     0.90537   0.28252   0.38386   0.00000  Uiso   1.00
H197   H     0.75141   0.10212   0.32709   0.00000  Uiso   1.00
H198   H     0.82716   0.08171   0.38627   0.00000  Uiso   1.00
H199   H     0.79983   0.13467   0.39692   0.00000  Uiso   1.00
H200   H     0.85715   0.13195   0.36783   0.00000  Uiso   1.00
H201   H     0.77886   0.40026   0.13677   0.00000  Uiso   1.00
H202   H     0.67411   0.24993   0.30653   0.00000  Uiso   1.00
H203   H     0.86711   0.41511   0.12063   0.00000  Uiso   1.00
H204   H     0.84255   0.36224   0.09882   0.00000  Uiso   1.00
H205   H     0.88643   0.36509   0.15486   0.00000  Uiso   1.00
H206   H     0.71426   0.28607   0.03349   0.00000  Uiso   1.00
H207   H     0.72097   0.34414   0.47712   0.00000  Uiso   1.00
H208   H     0.78859   0.33322   0.47868   0.00000  Uiso   1.00
H209   H     0.76479   0.35555   0.03187   0.00000  Uiso   1.00
H210   H     0.95263   0.28537   0.46561   0.00000  Uiso   1.00
H211   H     0.94651   0.34316   0.02066   0.00000  Uiso   1.00
H212   H     0.87915   0.33200   0.02055   0.00000  Uiso   1.00
H213   H     0.79329   0.02813   0.31322   0.00000  Uiso   1.00
H214   H     0.90156   0.35483   0.46636   0.00000  Uiso   1.00
H215   H     0.81183   0.47237   0.17161   0.00000  Uiso   1.00
H216   H     0.87141   0.11218   0.18712   0.00000  Uiso   1.00
H217   H     0.85424   0.38840   0.32695   0.00000  Uiso   1.00
H218   H     0.87290   0.03196   0.18689   0.00000  Uiso   1.00
H219   H     0.85513   0.46846   0.32771   0.00000  Uiso   1.00
H220   H     0.90595   0.21721   0.04451   0.00000  Uiso   1.00
N221   N     0.83333   0.25001   0.12934   0.00000  Uiso   1.00
N222   N     0.83333   0.24999   0.37065   0.00000  Uiso   1.00
N223   N     0.78776   0.11410   0.32414   0.00000  Uiso   1.00
N224   N     0.81037   0.38673   0.15840   0.00000  Uiso   1.00
N225   N     0.74809   0.28848   0.01845   0.00000  Uiso   1.00
N226   N     0.91886   0.28770   0.48071   0.00000  Uiso   1.00
O227   O     0.83334   0.18573   0.29071   0.00000  Uiso   1.00
O228   O     0.83333   0.31428   0.20928   0.00000  Uiso   1.00
O229   O     0.83334   0.18573   0.20928   0.00000  Uiso   1.00
O230   O     0.83333   0.31427   0.29072   0.00000  Uiso   1.00
O231   O     0.75828   0.25000   0.28132   0.00000  Uiso   1.00
O232   O     0.90839   0.25001   0.21868   0.00000  Uiso   1.00
O233   O     0.75828   0.25000   0.19988   0.00000  Uiso   1.00
O234   O     0.90839   0.25000   0.30011   0.00000  Uiso   1.00
C235   C     0.16619   0.66493   0.25032   0.00000  Uiso   1.00
C236   C     0.20865   0.76909   0.45138   0.00000  Uiso   1.00
C237   C     0.16616   0.75109   0.02720   0.00000  Uiso   1.00
C238   C     0.16698   0.75112   0.47277   0.00000  Uiso   1.00
C239   C     0.06786   0.75000   0.23752   0.00000  Uiso   1.00
C240   C     0.26547   0.75000   0.26248   0.00000  Uiso   1.00
C241   C     0.01259   0.75001   0.23062   0.00000  Uiso   1.00
C242   C     0.32074   0.74997   0.26938   0.00000  Uiso   1.00
C243   C     0.14444   0.54653   0.28620   0.00000  Uiso   1.00
C244   C     0.15506   0.95394   0.20540   0.00000  Uiso   1.00
C245   C     0.14459   0.59253   0.28755   0.00000  Uiso   1.00
C246   C     0.16662   0.83517   0.24955   0.00000  Uiso   1.00
C247   C     0.15570   0.90796   0.20416   0.00000  Uiso   1.00
C248   C     0.16608   0.61668   0.25125   0.00000  Uiso   1.00
C249   C     0.16692   0.88362   0.24844   0.00000  Uiso   1.00
C250   C     0.18766   0.59426   0.21496   0.00000  Uiso   1.00
C251   C     0.17834   0.90615   0.29264   0.00000  Uiso   1.00
C252   C     0.18833   0.54851   0.21467   0.00000  Uiso   1.00
C253   C     0.17861   0.95191   0.29320   0.00000  Uiso   1.00
C254   C     0.16664   0.52438   0.25022   0.00000  Uiso   1.00
C255   C     0.16683   0.97605   0.24963   0.00000  Uiso   1.00
C256   C     0.15312   0.61558   0.37114   0.00000  Uiso   1.00
C257   C     0.20713   0.73215   0.05896   0.00000  Uiso   1.00
C258   C     0.18732   0.88217   0.13194   0.00000  Uiso   1.00
C259   C     0.08966   0.83262   0.00076   0.00000  Uiso   1.00
C260   C     0.24417   0.83169   0.49781   0.00000  Uiso   1.00
C261   C     0.12579   0.73264   0.44143   0.00000  Uiso   1.00
C262   C     0.20653   0.73170   0.10969   0.00000  Uiso   1.00
C263   C     0.12646   0.73221   0.39071   0.00000  Uiso   1.00
C264   C     0.12635   0.76866   0.09950   0.00000  Uiso   1.00
C265   C     0.20723   0.76814   0.40011   0.00000  Uiso   1.00
C266   C     0.12481   0.76953   0.04821   0.00000  Uiso   1.00
Cu267  Cu    0.16667   0.75000   0.29821   0.00000  Uiso   1.00
Cu268  Cu    0.16667   0.75001   0.20178   0.00000  Uiso   1.00
H269   H     0.32589   0.75006   0.19346   0.00000  Uiso   1.00
H270   H     0.09342   0.71803   0.45619   0.00000  Uiso   1.00
H271   H     0.23817   0.71648   0.13329   0.00000  Uiso   1.00
H272   H     0.09463   0.71733   0.36747   0.00000  Uiso   1.00
H273   H     0.09518   0.78347   0.11547   0.00000  Uiso   1.00
H274   H     0.23870   0.78252   0.38386   0.00000  Uiso   1.00
H275   H     0.08474   0.60212   0.32709   0.00000  Uiso   1.00
H276   H     0.16049   0.58171   0.38627   0.00000  Uiso   1.00
H277   H     0.13316   0.63467   0.39692   0.00000  Uiso   1.00
H278   H     0.19049   0.63195   0.36783   0.00000  Uiso   1.00
H279   H     0.11219   0.90026   0.13677   0.00000  Uiso   1.00
H280   H     0.00744   0.74993   0.30653   0.00000  Uiso   1.00
H281   H     0.20044   0.91511   0.12063   0.00000  Uiso   1.00
H282   H     0.17588   0.86224   0.09882   0.00000  Uiso   1.00
H283   H     0.21976   0.86509   0.15486   0.00000  Uiso   1.00
H284   H     0.04759   0.78607   0.03349   0.00000  Uiso   1.00
H285   H     0.05430   0.84414   0.47712   0.00000  Uiso   1.00
H286   H     0.12192   0.83322   0.47868   0.00000  Uiso   1.00
H287   H     0.09812   0.85555   0.03187   0.00000  Uiso   1.00
H288   H     0.28596   0.78537   0.46561   0.00000  Uiso   1.00
H289   H     0.27985   0.84316   0.02066   0.00000  Uiso   1.00
H290   H     0.21248   0.83200   0.02055   0.00000  Uiso   1.00
H291   H     0.12662   0.52813   0.31322   0.00000  Uiso   1.00
H292   H     0.23490   0.85483   0.46636   0.00000  Uiso   1.00
H293   H     0.14517   0.97237   0.17161   0.00000  Uiso   1.00
H294   H     0.20475   0.61218   0.18712   0.00000  Uiso   1.00
H295   H     0.18758   0.88840   0.32695   0.00000  Uiso   1.00
H296   H     0.20623   0.53196   0.18689   0.00000  Uiso   1.00
H297   H     0.18846   0.96846   0.32771   0.00000  Uiso   1.00
H298   H     0.23928   0.71721   0.04451   0.00000  Uiso   1.00
N299   N     0.16667   0.75001   0.12934   0.00000  Uiso   1.00
N300   N     0.16667   0.74999   0.37065   0.00000  Uiso   1.00
N301   N     0.12109   0.61410   0.32414   0.00000  Uiso   1.00
N302   N     0.14371   0.88673   0.15840   0.00000  Uiso   1.00
N303   N     0.08143   0.78848   0.01845   0.00000  Uiso   1.00
N304   N     0.25220   0.78770   0.48071   0.00000  Uiso   1.00
O305   O     0.16667   0.68573   0.29071   0.00000  Uiso   1.00
O306   O     0.16666   0.81428   0.20928   0.00000  Uiso   1.00
O307   O     0.16667   0.68573   0.20928   0.00000  Uiso   1.00
O308   O     0.16666   0.81427   0.29072   0.00000  Uiso   1.00
O309   O     0.09161   0.75000   0.28132   0.00000  Uiso   1.00
O310   O     0.24172   0.75001   0.21868   0.00000  Uiso   1.00
O311   O     0.09161   0.75000   0.19988   0.00000  Uiso   1.00
O312   O     0.24172   0.75000   0.30011   0.00000  Uiso   1.00
C313   C     0.49953   0.66493   0.25032   0.00000  Uiso   1.00
C314   C     0.54199   0.76909   0.45138   0.00000  Uiso   1.00
C315   C     0.49950   0.75109   0.02720   0.00000  Uiso   1.00
C316   C     0.50031   0.75112   0.47277   0.00000  Uiso   1.00
C317   C     0.40120   0.75000   0.23752   0.00000  Uiso   1.00
C318   C     0.59880   0.75000   0.26248   0.00000  Uiso   1.00
C319   C     0.34592   0.75001   0.23062   0.00000  Uiso   1.00
C320   C     0.65407   0.74997   0.26938   0.00000  Uiso   1.00
C321   C     0.47777   0.54653   0.28620   0.00000  Uiso   1.00
C322   C     0.48839   0.95394   0.20540   0.00000  Uiso   1.00
C323   C     0.47793   0.59253   0.28755   0.00000  Uiso   1.00
C324   C     0.49995   0.83517   0.24955   0.00000  Uiso   1.00
C325   C     0.48903   0.90796   0.20416   0.00000  Uiso   1.00
C326   C     0.49941   0.61668   0.25125   0.00000  Uiso   1.00
C327   C     0.50026   0.88362   0.24844   0.00000  Uiso   1.00
C328   C     0.52099   0.59426   0.21496   0.00000  Uiso   1.00
C329   C     0.51168   0.90615   0.29264   0.00000  Uiso   1.00
C330   C     0.52166   0.54851   0.21467   0.00000  Uiso   1.00
C331   C     0.51194   0.95191   0.29320   0.00000  Uiso   1.00
C332   C     0.49998   0.52438   0.25022   0.00000  Uiso   1.00
C333   C     0.50016   0.97605   0.24963   0.00000  Uiso   1.00
C334   C     0.48645   0.61558   0.37114   0.00000  Uiso   1.00
C335   C     0.54046   0.73215   0.05896   0.00000  Uiso   1.00
C336   C     0.52065   0.88217   0.13194   0.00000  Uiso   1.00
C337   C     0.42299   0.83262   0.00076   0.00000  Uiso   1.00
C338   C     0.57750   0.83169   0.49781   0.00000  Uiso   1.00
C339   C     0.45913   0.73264   0.44143   0.00000  Uiso   1.00
C340   C     0.53986   0.73170   0.10969   0.00000  Uiso   1.00
C341   C     0.45979   0.73221   0.39071   0.00000  Uiso   1.00
C342   C     0.45969   0.76866   0.09950   0.00000  Uiso   1.00
C343   C     0.54056   0.76814   0.40011   0.00000  Uiso   1.00
C344   C     0.45814   0.76953   0.04821   0.00000  Uiso   1.00
Cu345  Cu    0.50000   0.75000   0.29821   0.00000  Uiso   1.00
Cu346  Cu    0.50000   0.75001   0.20178   0.00000  Uiso   1.00
H347   H     0.65922   0.75006   0.19346   0.00000  Uiso   1.00
H348   H     0.42675   0.71803   0.45619   0.00000  Uiso   1.00
H349   H     0.57150   0.71648   0.13329   0.00000  Uiso   1.00
H350   H     0.42796   0.71733   0.36747   0.00000  Uiso   1.00
H351   H     0.42851   0.78347   0.11547   0.00000  Uiso   1.00
H352   H     0.57204   0.78252   0.38386   0.00000  Uiso   1.00
H353   H     0.41807   0.60212   0.32709   0.00000  Uiso   1.00
H354   H     0.49382   0.58171   0.38627   0.00000  Uiso   1.00
H355   H     0.46650   0.63467   0.39692   0.00000  Uiso   1.00
H356   H     0.52382   0.63195   0.36783   0.00000  Uiso   1.00
H357   H     0.44553   0.90026   0.13677   0.00000  Uiso   1.00
H358   H     0.34078   0.74993   0.30653   0.00000  Uiso   1.00
H359   H     0.53377   0.91511   0.12063   0.00000  Uiso   1.00
H360   H     0.50922   0.86224   0.09882   0.00000  Uiso   1.00
H361   H     0.55309   0.86509   0.15486   0.00000  Uiso   1.00
H362   H     0.38093   0.78607   0.03349   0.00000  Uiso   1.00
H363   H     0.38763   0.84414   0.47712   0.00000  Uiso   1.00
H364   H     0.45526   0.83322   0.47868   0.00000  Uiso   1.00
H365   H     0.43145   0.85555   0.03187   0.00000  Uiso   1.00
H366   H     0.61929   0.78537   0.46561   0.00000  Uiso   1.00
H367   H     0.61318   0.84316   0.02066   0.00000  Uiso   1.00
H368   H     0.54581   0.83200   0.02055   0.00000  Uiso   1.00
H369   H     0.45996   0.52813   0.31322   0.00000  Uiso   1.00
H370   H     0.56823   0.85483   0.46636   0.00000  Uiso   1.00
H371   H     0.47850   0.97237   0.17161   0.00000  Uiso   1.00
H372   H     0.53808   0.61218   0.18712   0.00000  Uiso   1.00
H373   H     0.52091   0.88840   0.32695   0.00000  Uiso   1.00
H374   H     0.53957   0.53196   0.18689   0.00000  Uiso   1.00
H375   H     0.52180   0.96846   0.32771   0.00000  Uiso   1.00
H376   H     0.57261   0.71721   0.04451   0.00000  Uiso   1.00
N377   N     0.50000   0.75001   0.12934   0.00000  Uiso   1.00
N378   N     0.50000   0.74999   0.37065   0.00000  Uiso   1.00
N379   N     0.45443   0.61410   0.32414   0.00000  Uiso   1.00
N380   N     0.47704   0.88673   0.15840   0.00000  Uiso   1.00
N381   N     0.41476   0.78848   0.01845   0.00000  Uiso   1.00
N382   N     0.58553   0.78770   0.48071   0.00000  Uiso   1.00
O383   O     0.50000   0.68573   0.29071   0.00000  Uiso   1.00
O384   O     0.50000   0.81428   0.20928   0.00000  Uiso   1.00
O385   O     0.50000   0.68573   0.20928   0.00000  Uiso   1.00
O386   O     0.50000   0.81427   0.29072   0.00000  Uiso   1.00
O387   O     0.42495   0.75000   0.28132   0.00000  Uiso   1.00
O388   O     0.57505   0.75001   0.21868   0.00000  Uiso   1.00
O389   O     0.42495   0.75000   0.19988   0.00000  Uiso   1.00
O390   O     0.57505   0.75000   0.30011   0.00000  Uiso   1.00
C391   C     0.83286   0.66493   0.25032   0.00000  Uiso   1.00
C392   C     0.87532   0.76909   0.45138   0.00000  Uiso   1.00
C393   C     0.83283   0.75109   0.02720   0.00000  Uiso   1.00
C394   C     0.83365   0.75112   0.47277   0.00000  Uiso   1.00
C395   C     0.73453   0.75000   0.23752   0.00000  Uiso   1.00
C396   C     0.93214   0.75000   0.26248   0.00000  Uiso   1.00
C397   C     0.67926   0.75001   0.23062   0.00000  Uiso   1.00
C398   C     0.98741   0.74997   0.26938   0.00000  Uiso   1.00
C399   C     0.81111   0.54653   0.28620   0.00000  Uiso   1.00
C400   C     0.82173   0.95394   0.20540   0.00000  Uiso   1.00
C401   C     0.81126   0.59253   0.28755   0.00000  Uiso   1.00
C402   C     0.83329   0.83517   0.24955   0.00000  Uiso   1.00
C403   C     0.82236   0.90796   0.20416   0.00000  Uiso   1.00
C404   C     0.83274   0.61668   0.25125   0.00000  Uiso   1.00
C405   C     0.83359   0.88362   0.24844   0.00000  Uiso   1.00
C406   C     0.85432   0.59426   0.21496   0.00000  Uiso   1.00
C407   C     0.84501   0.90615   0.29264   0.00000  Uiso   1.00
C408   C     0.85500   0.54851   0.21467   0.00000  Uiso   1.00
C409   C     0.84527   0.95191   0.29320   0.00000  Uiso   1.00
C410   C     0.83331   0.52438   0.25022   0.00000  Uiso   1.00
C411   C     0.83349   0.97605   0.24963   0.00000  Uiso   1.00
C412   C     0.81979   0.61558   0.37114   0.00000  Uiso   1.00
C413   C     0.87380   0.73215   0.05896   0.00000  Uiso   1.00
C414   C     0.85399   0.88217   0.13194   0.00000  Uiso   1.00
C415   C     0.75632   0.83262   0.00076   0.00000  Uiso   1.00
C416   C     0.91083   0.83169   0.49781   0.00000  Uiso   1.00
C417   C     0.79246   0.73264   0.44143   0.00000  Uiso   1.00
C418   C     0.87319   0.73170   0.10969   0.00000  Uiso   1.00
C419   C     0.79313   0.73221   0.39071   0.00000  Uiso   1.00
C420   C     0.79302   0.76866   0.09950   0.00000  Uiso   1.00
C421   C     0.87390   0.76814   0.40011   0.00000  Uiso   1.00
C422   C     0.79147   0.76953   0.04821   0.00000  Uiso   1.00
Cu423  Cu    0.83333   0.75000   0.29821   0.00000  Uiso   1.00
Cu424  Cu    0.83333   0.75001   0.20178   0.00000  Uiso   1.00
H425   H     0.99255   0.75006   0.19346   0.00000  Uiso   1.00
H426   H     0.76008   0.71803   0.45619   0.00000  Uiso   1.00
H427   H     0.90484   0.71648   0.13329   0.00000  Uiso   1.00
H428   H     0.76130   0.71733   0.36747   0.00000  Uiso   1.00
H429   H     0.76185   0.78347   0.11547   0.00000  Uiso   1.00
H430   H     0.90537   0.78252   0.38386   0.00000  Uiso   1.00
H431   H     0.75141   0.60212   0.32709   0.00000  Uiso   1.00
H432   H     0.82716   0.58171   0.38627   0.00000  Uiso   1.00
H433   H     0.79983   0.63467   0.39692   0.00000  Uiso   1.00
H434   H     0.85715   0.63195   0.36783   0.00000  Uiso   1.00
H435   H     0.77886   0.90026   0.13677   0.00000  Uiso   1.00
H436   H     0.67411   0.74993   0.30653   0.00000  Uiso   1.00
H437   H     0.86711   0.91511   0.12063   0.00000  Uiso   1.00
H438   H     0.84255   0.86224   0.09882   0.00000  Uiso   1.00
H439   H     0.88643   0.86509   0.15486   0.00000  Uiso   1.00
H440   H     0.71426   0.78607   0.03349   0.00000  Uiso   1.00
H441   H     0.72097   0.84414   0.47712   0.00000  Uiso   1.00
H442   H     0.78859   0.83322   0.47868   0.00000  Uiso   1.00
H443   H     0.76479   0.85555   0.03187   0.00000  Uiso   1.00
H444   H     0.95263   0.78537   0.46561   0.00000  Uiso   1.00
H445   H     0.94651   0.84316   0.02066   0.00000  Uiso   1.00
H446   H     0.87915   0.83200   0.02055   0.00000  Uiso   1.00
H447   H     0.79329   0.52813   0.31322   0.00000  Uiso   1.00
H448   H     0.90156   0.85483   0.46636   0.00000  Uiso   1.00
H449   H     0.81183   0.97237   0.17161   0.00000  Uiso   1.00
H450   H     0.87141   0.61218   0.18712   0.00000  Uiso   1.00
H451   H     0.85424   0.88840   0.32695   0.00000  Uiso   1.00
H452   H     0.87290   0.53196   0.18689   0.00000  Uiso   1.00
H453   H     0.85513   0.96846   0.32771   0.00000  Uiso   1.00
H454   H     0.90595   0.71721   0.04451   0.00000  Uiso   1.00
N455   N     0.83333   0.75001   0.12934   0.00000  Uiso   1.00
N456   N     0.83333   0.74999   0.37065   0.00000  Uiso   1.00
N457   N     0.78776   0.61410   0.32414   0.00000  Uiso   1.00
N458   N     0.81037   0.88673   0.15840   0.00000  Uiso   1.00
N459   N     0.74809   0.78848   0.01845   0.00000  Uiso   1.00
N460   N     0.91886   0.78770   0.48071   0.00000  Uiso   1.00
O461   O     0.83334   0.68573   0.29071   0.00000  Uiso   1.00
O462   O     0.83333   0.81428   0.20928   0.00000  Uiso   1.00
O463   O     0.83334   0.68573   0.20928   0.00000  Uiso   1.00
O464   O     0.83333   0.81427   0.29072   0.00000  Uiso   1.00
O465   O     0.75828   0.75000   0.28132   0.00000  Uiso   1.00
O466   O     0.90839   0.75001   0.21868   0.00000  Uiso   1.00
O467   O     0.75828   0.75000   0.19988   0.00000  Uiso   1.00
O468   O     0.90839   0.75000   0.30011   0.00000  Uiso   1.00
C469   C     0.16619   0.16493   0.75032   0.00000  Uiso   1.00
C470   C     0.20865   0.26909   0.95138   0.00000  Uiso   1.00
C471   C     0.16616   0.25109   0.52720   0.00000  Uiso   1.00
C472   C     0.16698   0.25112   0.97277   0.00000  Uiso   1.00
C473   C     0.06786   0.25000   0.73752   0.00000  Uiso   1.00
C474   C     0.26547   0.25000   0.76248   0.00000  Uiso   1.00
C475   C     0.01259   0.25001   0.73062   0.00000  Uiso   1.00
C476   C     0.32074   0.24997   0.76938   0.00000  Uiso   1.00
C477   C     0.14444   0.04653   0.78620   0.00000  Uiso   1.00
C478   C     0.15506   0.45394   0.70540   0.00000  Uiso   1.00
C479   C     0.14459   0.09253   0.78755   0.00000  Uiso   1.00
C480   C     0.16662   0.33517   0.74955   0.00000  Uiso   1.00
C481   C     0.15570   0.40796   0.70416   0.00000  Uiso   1.00
C482   C     0.16608   0.11668   0.75125   0.00000  Uiso   1.00
C483   C     0.16692   0.38362   0.74844   0.00000  Uiso   1.00
C484   C     0.18766   0.09426   0.71496   0.00000  Uiso   1.00
C485   C     0.17834   0.40615   0.79264   0.00000  Uiso   1.00
C486   C     0.18833   0.04851   0.71467   0.00000  Uiso   1.00
C487   C     0.17861   0.45191   0.79320   0.00000  Uiso   1.00
C488   C     0.16664   0.02438   0.75022   0.00000  Uiso   1.00
C489   C     0.16683   0.47605   0.74963   0.00000  Uiso   1.00
C490   C     0.15312   0.11558   0.87114   0.00000  Uiso   1.00
C491   C     0.20713   0.23215   0.55896   0.00000  Uiso   1.00
C492   C     0.18732   0.38217   0.63194   0.00000  Uiso   1.00
C493   C     0.08966   0.33262   0.50076   0.00000  Uiso   1.00
C494   C     0.24417   0.33169   0.99781   0.00000  Uiso   1.00
C495   C     0.12579   0.23264   0.94143   0.00000  Uiso   1.00
C496   C     0.20653   0.23170   0.60969   0.00000  Uiso   1.00
C497   C     0.12646   0.23221   0.89071   0.00000  Uiso   1.00
C498   C     0.12635   0.26866   0.59950   0.00000  Uiso   1.00
C499   C     0.20723   0.26814   0.90011   0.00000  Uiso   1.00
C500   C     0.12481   0.26953   0.54821   0.00000  Uiso   1.00
Cu501  Cu    0.16667   0.25000   0.79821   0.00000  Uiso   1.00
Cu502  Cu    0.16667   0.25001   0.70178   0.00000  Uiso   1.00
H503   H     0.32589   0.25006   0.69346   0.00000  Uiso   1.00
H504   H     0.09342   0.21803   0.95619   0.00000  Uiso   1.00
H505   H     0.23817   0.21648   0.63329   0.00000  Uiso   1.00
H506   H     0.09463   0.21733   0.86747   0.00000  Uiso   1.00
H507   H     0.09518   0.28347   0.61547   0.00000  Uiso   1.00
H508   H     0.23870   0.28252   0.88386   0.00000  Uiso   1.00
H509   H     0.08474   0.10212   0.82709   0.00000  Uiso   1.00
H510   H     0.16049   0.08171   0.88627   0.00000  Uiso   1.00
H511   H     0.13316   0.13467   0.89692   0.00000  Uiso   1.00
H512   H     0.19049   0.13195   0.86783   0.00000  Uiso   1.00
H513   H     0.11219   0.40026   0.63677   0.00000  Uiso   1.00
H514   H     0.00744   0.24993   0.80653   0.00000  Uiso   1.00
H515   H     0.20044   0.41511   0.62063   0.00000  Uiso   1.00
H516   H     0.17588   0.36224   0.59882   0.00000  Uiso   1.00
H517   H     0.21976   0.36509   0.65486   0.00000  Uiso   1.00
H518   H     0.04759   0.28607   0.53349   0.00000  Uiso   1.00
H519   H     0.05430   0.34414   0.97712   0.00000  Uiso   1.00
H520   H     0.12192   0.33322   0.97868   0.00000  Uiso   1.00
H521   H     0.09812   0.35555   0.53187   0.00000  Uiso   1.00
H522   H     0.28596   0.28537   0.96561   0.00000  Uiso   1.00
H523   H     0.27985   0.34316   0.52066   0.00000  Uiso   1.00
H524   H     0.21248   0.33200   0.52055   0.00000  Uiso   1.00
H525   H     0.12662   0.02813   0.81322   0.00000  Uiso   1.00
H526   H     0.23490   0.35483   0.96636   0.00000  Uiso   1.00
H527   H     0.14517   0.47237   0.67161   0.00000  Uiso   1.00
H528   H     0.20475   0.11218   0.68712   0.00000  Uiso   1.00
H529   H     0.18758   0.38840   0.82695   0.00000  Uiso   1.00
H530   H     0.20623   0.03196   0.68689   0.00000  Uiso   1.00
H531   H     0.18846   0.46846   0.82771   0.00000  Uiso   1.00
H532   H     0.23928   0.21721   0.54451   0.00000  Uiso   1.00
N533   N     0.16667   0.25001   0.62934   0.00000  Uiso   1.00
N534   N     0.16667   0.24999   0.87065   0.00000  Uiso   1.00
N535   N     0.12109   0.11410   0.82414   0.00000  Uiso   1.00
N536   N     0.14371   0.38673   0.65840   0.00000  Uiso   1.00
N537   N     0.08143   0.28848   0.51845   0.00000  Uiso   1.00
N538   N     0.25220   0.28770   0.98071   0.00000  Uiso   1.00
O539   O     0.16667   0.18573   0.79071   0.00000  Uiso   1.00
O540   O     0.16666   0.31428   0.70928   0.00000  Uiso   1.00
O541   O     0.16667   0.18573   0.70928   0.00000  Uiso   1.00
O542   O     0.16666   0.31427   0.79072   0.00000  Uiso   1.00
O543   O     0.09161   0.25000   0.78132   0.00000  Uiso   1.00
O544   O     0.24172   0.25001   0.71868   0.00000  Uiso   1.00
O545   O     0.09161   0.25000   0.69988   0.00000  Uiso   1.00
O546   O     0.24172   0.25000   0.80011   0.00000  Uiso   1.00
C547   C     0.49953   0.16493   0.75032   0.00000  Uiso   1.00
C548   C     0.54199   0.26909   0.95138   0.00000  Uiso   1.00
C549   C     0.49950   0.25109   0.52720   0.00000  Uiso   1.00
C550   C     0.50031   0.25112   0.97277   0.00000  Uiso   1.00
C551   C     0.40120   0.25000   0.73752   0.00000  Uiso   1.00
C552   C     0.59880   0.25000   0.76248   0.00000  Uiso   1.00
C553   C     0.34592   0.25001   0.73062   0.00000  Uiso   1.00
C554   C     0.65407   0.24997   0.76938   0.00000  Uiso   1.00
C555   C     0.47777   0.04653   0.78620   0.00000  Uiso   1.00
C556   C     0.48839   0.45394   0.70540   0.00000  Uiso   1.00
C557   C     0.47793   0.09253   0.78755   0.00000  Uiso   1.00
C558   C     0.49995   0.33517   0.74955   0.00000  Uiso   1.00
C559   C     0.48903   0.40796   0.70416   0.00000  Uiso   1.00
C560   C     0.49941   0.11668   0.75125   0.00000  Uiso   1.00
C561   C     0.50026   0.38362   0.74844   0.00000  Uiso   1.00
C562   C     0.52099   0.09426   0.71496   0.00000  Uiso   1.00
C563   C     0.51168   0.40615   0.79264   0.00000  Uiso   1.00
C564   C     0.52166   0.04851   0.71467   0.00000  Uiso   1.00
C565   C     0.51194   0.45191   0.79320   0.00000  Uiso   1.00
C566   C     0.49998   0.02438   0.75022   0.00000  Uiso   1.00
C567   C     0.50016   0.47605   0.74963   0.00000  Uiso   1.00
C568   C     0.48645   0.11558   0.87114   0.00000  Uiso   1.00
C569   C     0.54046   0.23215   0.55896   0.00000  Uiso   1.00
C570   C     0.52065   0.38217   0.63194   0.00000  Uiso   1.00
C571   C     0.42299   0.33262   0.50076   0.00000  Uiso   1.00
C572   C     0.57750   0.33169   0.99781   0.00000  Uiso   1.00
C573   C     0.45913   0.23264   0.94143   0.00000  Uiso   1.00
C574   C     0.53986   0.23170   0.60969   0.00000  Uiso   1.00
C575   C     0.45979   0.23221   0.89071   0.00000  Uiso   1.00
C576   C     0.45969   0.26866   0.59950   0.00000  Uiso   1.00
C577   C     0.54056   0.26814   0.90011   0.00000  Uiso   1.00
C578   C     0.45814   0.26953   0.54821   0.00000  Uiso   1.00
Cu579  Cu    0.50000   0.25000   0.79821   0.00000  Uiso   1.00
Cu580  Cu    0.50000   0.25001   0.70178   0.00000  Uiso   1.00
H581   H     0.65922   0.25006   0.69346   0.00000  Uiso   1.00
H582   H     0.42675   0.21803   0.95619   0.00000  Uiso   1.00
H583   H     0.57150   0.21648   0.63329   0.00000  Uiso   1.00
H584   H     0.42796   0.21733   0.86747   0.00000  Uiso   1.00
H585   H     0.42851   0.28347   0.61547   0.00000  Uiso   1.00
H586   H     0.57204   0.28252   0.88386   0.00000  Uiso   1.00
H587   H     0.41807   0.10212   0.82709   0.00000  Uiso   1.00
H588   H     0.49382   0.08171   0.88627   0.00000  Uiso   1.00
H589   H     0.46650   0.13467   0.89692   0.00000  Uiso   1.00
H590   H     0.52382   0.13195   0.86783   0.00000  Uiso   1.00
H591   H     0.44553   0.40026   0.63677   0.00000  Uiso   1.00
H592   H     0.34078   0.24993   0.80653   0.00000  Uiso   1.00
H593   H     0.53377   0.41511   0.62063   0.00000  Uiso   1.00
H594   H     0.50922   0.36224   0.59882   0.00000  Uiso   1.00
H595   H     0.55309   0.36509   0.65486   0.00000  Uiso   1.00
H596   H     0.38093   0.28607   0.53349   0.00000  Uiso   1.00
H597   H     0.38763   0.34414   0.97712   0.00000  Uiso   1.00
H598   H     0.45526   0.33322   0.97868   0.00000  Uiso   1.00
H599   H     0.43145   0.35555   0.53187   0.00000  Uiso   1.00
H600   H     0.61929   0.28537   0.96561   0.00000  Uiso   1.00
H601   H     0.61318   0.34316   0.52066   0.00000  Uiso   1.00
H602   H     0.54581   0.33200   0.52055   0.00000  Uiso   1.00
H603   H     0.45996   0.02813   0.81322   0.00000  Uiso   1.00
H604   H     0.56823   0.35483   0.96636   0.00000  Uiso   1.00
H605   H     0.47850   0.47237   0.67161   0.00000  Uiso   1.00
H606   H     0.53808   0.11218   0.68712   0.00000  Uiso   1.00
H607   H     0.52091   0.38840   0.82695   0.00000  Uiso   1.00
H608   H     0.53957   0.03196   0.68689   0.00000  Uiso   1.00
H609   H     0.52180   0.46846   0.82771   0.00000  Uiso   1.00
H610   H     0.57261   0.21721   0.54451   0.00000  Uiso   1.00
N611   N     0.50000   0.25001   0.62934   0.00000  Uiso   1.00
N612   N     0.50000   0.24999   0.87065   0.00000  Uiso   1.00
N613   N     0.45443   0.11410   0.82414   0.00000  Uiso   1.00
N614   N     0.47704   0.38673   0.65840   0.00000  Uiso   1.00
N615   N     0.41476   0.28848   0.51845   0.00000  Uiso   1.00
N616   N     0.58553   0.28770   0.98071   0.00000  Uiso   1.00
O617   O     0.50000   0.18573   0.79071   0.00000  Uiso   1.00
O618   O     0.50000   0.31428   0.70928   0.00000  Uiso   1.00
O619   O     0.50000   0.18573   0.70928   0.00000  Uiso   1.00
O620   O     0.50000   0.31427   0.79072   0.00000  Uiso   1.00
O621   O     0.42495   0.25000   0.78132   0.00000  Uiso   1.00
O622   O     0.57505   0.25001   0.71868   0.00000  Uiso   1.00
O623   O     0.42495   0.25000   0.69988   0.00000  Uiso   1.00
O624   O     0.57505   0.25000   0.80011   0.00000  Uiso   1.00
C625   C     0.83286   0.16493   0.75032   0.00000  Uiso   1.00
C626   C     0.87532   0.26909   0.95138   0.00000  Uiso   1.00
C627   C     0.83283   0.25109   0.52720   0.00000  Uiso   1.00
C628   C     0.83365   0.25112   0.97277   0.00000  Uiso   1.00
C629   C     0.73453   0.25000   0.73752   0.00000  Uiso   1.00
C630   C     0.93214   0.25000   0.76248   0.00000  Uiso   1.00
C631   C     0.67926   0.25001   0.73062   0.00000  Uiso   1.00
C632   C     0.98741   0.24997   0.76938   0.00000  Uiso   1.00
C633   C     0.81111   0.04653   0.78620   0.00000  Uiso   1.00
C634   C     0.82173   0.45394   0.70540   0.00000  Uiso   1.00
C635   C     0.81126   0.09253   0.78755   0.00000  Uiso   1.00
C636   C     0.83329   0.33517   0.74955   0.00000  Uiso   1.00
C637   C     0.82236   0.40796   0.70416   0.00000  Uiso   1.00
C638   C     0.83274   0.11668   0.75125   0.00000  Uiso   1.00
C639   C     0.83359   0.38362   0.74844   0.00000  Uiso   1.00
C640   C     0.85432   0.09426   0.71496   0.00000  Uiso   1.00
C641   C     0.84501   0.40615   0.79264   0.00000  Uiso   1.00
C642   C     0.85500   0.04851   0.71467   0.00000  Uiso   1.00
C643   C     0.84527   0.45191   0.79320   0.00000  Uiso   1.00
C644   C     0.83331   0.02438   0.75022   0.00000  Uiso   1.00
C645   C     0.83349   0.47605   0.74963   0.00000  Uiso   1.00
C646   C     0.81979   0.11558   0.87114   0.00000  Uiso   1.00
C647   C     0.87380   0.23215   0.55896   0.00000  Uiso   1.00
C648   C     0.85399   0.38217   0.63194   0.00000  Uiso   1.00
C649   C     0.75632   0.33262   0.50076   0.00000  Uiso   1.00
C650   C     0.91083   0.33169   0.99781   0.00000  Uiso   1.00
C651   C     0.79246   0.23264   0.94143   0.00000  Uiso   1.00
C652   C     0.87319   0.23170   0.60969   0.00000  Uiso   1.00
C653   C     0.79313   0.23221   0.89071   0.00000  Uiso   1.00
C654   C     0.79302   0.26866   0.59950   0.00000  Uiso   1.00
C655   C     0.87390   0.26814   0.90011   0.00000  Uiso   1.00
C656   C     0.79147   0.26953   0.54821   0.00000  Uiso   1.00
Cu657  Cu    0.83333   0.25000   0.79821   0.00000  Uiso   1.00
Cu658  Cu    0.83333   0.25001   0.70178   0.00000  Uiso   1.00
H659   H     0.99255   0.25006   0.69346   0.00000  Uiso   1.00
H660   H     0.76008   0.21803   0.95619   0.00000  Uiso   1.00
H661   H     0.90484   0.21648   0.63329   0.00000  Uiso   1.00
H662   H     0.76130   0.21733   0.86747   0.00000  Uiso   1.00
H663   H     0.76185   0.28347   0.61547   0.00000  Uiso   1.00
H664   H     0.90537   0.28252   0.88386   0.00000  Uiso   1.00
H665   H     0.75141   0.10212   0.82709   0.00000  Uiso   1.00
H666   H     0.82716   0.08171   0.88627   0.00000  Uiso   1.00
H667   H     0.79983   0.13467   0.89692   0.00000  Uiso   1.00
H668   H     0.85715   0.13195   0.86783   0.00000  Uiso   1.00
H669   H     0.77886   0.40026   0.63677   0.00000  Uiso   1.00
H670   H     0.67411   0.24993   0.80653   0.00000  Uiso   1.00
H671   H     0.86711   0.41511   0.62063   0.00000  Uiso   1.00
H672   H     0.84255   0.36224   0.59882   0.00000  Uiso   1.00
H673   H     0.88643   0.36509   0.65486   0.00000  Uiso   1.00
H674   H     0.71426   0.28607   0.53349   0.00000  Uiso   1.00
H675   H     0.72097   0.34414   0.97712   0.00000  Uiso   1.00
H676   H     0.78859   0.33322   0.97868   0.00000  Uiso   1.00
H677   H     0.76479   0.35555   0.53187   0.00000  Uiso   1.00
H678   H     0.95263   0.28537   0.96561   0.00000  Uiso   1.00
H679   H     0.94651   0.34316   0.52066   0.00000  Uiso   1.00
H680   H     0.87915   0.33200   0.52055   0.00000  Uiso   1.00
H681   H     0.79329   0.02813   0.81322   0.00000  Uiso   1.00
H682   H     0.90156   0.35483   0.96636   0.00000  Uiso   1.00
H683   H     0.81183   0.47237   0.67161   0.00000  Uiso   1.00
H684   H     0.87141   0.11218   0.68712   0.00000  Uiso   1.00
H685   H     0.85424   0.38840   0.82695   0.00000  Uiso   1.00
H686   H     0.87290   0.03196   0.68689   0.00000  Uiso   1.00
H687   H     0.85513   0.46846   0.82771   0.00000  Uiso   1.00
H688   H     0.90595   0.21721   0.54451   0.00000  Uiso   1.00
N689   N     0.83333   0.25001   0.62934   0.00000  Uiso   1.00
N690   N     0.83333   0.24999   0.87065   0.00000  Uiso   1.00
N691   N     0.78776   0.11410   0.82414   0.00000  Uiso   1.00
N692   N     0.81037   0.38673   0.65840   0.00000  Uiso   1.00
N693   N     0.74809   0.28848   0.51845   0.00000  Uiso   1.00
N694   N     0.91886   0.28770   0.98071   0.00000  Uiso   1.00
O695   O     0.83334   0.18573   0.79071   0.00000  Uiso   1.00
O696   O     0.83333   0.31428   0.70928   0.00000  Uiso   1.00
O697   O     0.83334   0.18573   0.70928   0.00000  Uiso   1.00
O698   O     0.83333   0.31427   0.79072   0.00000  Uiso   1.00
O699   O     0.75828   0.25000   0.78132   0.00000  Uiso   1.00
O700   O     0.90839   0.25001   0.71868   0.00000  Uiso   1.00
O701   O     0.75828   0.25000   0.69988   0.00000  Uiso   1.00
O702   O     0.90839   0.25000   0.80011   0.00000  Uiso   1.00
C703   C     0.16619   0.66493   0.75032   0.00000  Uiso   1.00
C704   C     0.20865   0.76909   0.95138   0.00000  Uiso   1.00
C705   C     0.16616   0.75109   0.52720   0.00000  Uiso   1.00
C706   C     0.16698   0.75112   0.97277   0.00000  Uiso   1.00
C707   C     0.06786   0.75000   0.73752   0.00000  Uiso   1.00
C708   C     0.26547   0.75000   0.76248   0.00000  Uiso   1.00
C709   C     0.01259   0.75001   0.73062   0.00000  Uiso   1.00
C710   C     0.32074   0.74997   0.76938   0.00000  Uiso   1.00
C711   C     0.14444   0.54653   0.78620   0.00000  Uiso   1.00
C712   C     0.15506   0.95394   0.70540   0.00000  Uiso   1.00
C713   C     0.14459   0.59253   0.78755   0.00000  Uiso   1.00
C714   C     0.16662   0.83517   0.74955   0.00000  Uiso   1.00
C715   C     0.15570   0.90796   0.70416   0.00000  Uiso   1.00
C716   C     0.16608   0.61668   0.75125   0.00000  Uiso   1.00
C717   C     0.16692   0.88362   0.74844   0.00000  Uiso   1.00
C718   C     0.18766   0.59426   0.71496   0.00000  Uiso   1.00
C719   C     0.17834   0.90615   0.79264   0.00000  Uiso   1.00
C720   C     0.18833   0.54851   0.71467   0.00000  Uiso   1.00
C721   C     0.17861   0.95191   0.79320   0.00000  Uiso   1.00
C722   C     0.16664   0.52438   0.75022   0.00000  Uiso   1.00
C723   C     0.16683   0.97605   0.74963   0.00000  Uiso   1.00
C724   C     0.15312   0.61558   0.87114   0.00000  Uiso   1.00
C725   C     0.20713   0.73215   0.55896   0.00000  Uiso   1.00
C726   C     0.18732   0.88217   0.63194   0.00000  Uiso   1.00
C727   C     0.08966   0.83262   0.50076   0.00000  Uiso   1.00
C728   C     0.24417   0.83169   0.99781   0.00000  Uiso   1.00
C729   C     0.12579   0.73264   0.94143   0.00000  Uiso   1.00
C730   C     0.20653   0.73170   0.60969   0.00000  Uiso   1.00
C731   C     0.12646   0.73221   0.89071   0.00000  Uiso   1.00
C732   C     0.12635   0.76866   0.59950   0.00000  Uiso   1.00
C733   C     0.20723   0.76814   0.90011   0.00000  Uiso   1.00
C734   C     0.12481   0.76953   0.54821   0.00000  Uiso   1.00
Cu735  Cu    0.16667   0.75000   0.79821   0.00000  Uiso   1.00
Cu736  Cu    0.16667   0.75001   0.70178   0.00000  Uiso   1.00
H737   H     0.32589   0.75006   0.69346   0.00000  Uiso   1.00
H738   H     0.09342   0.71803   0.95619   0.00000  Uiso   1.00
H739   H     0.23817   0.71648   0.63329   0.00000  Uiso   1.00
H740   H     0.09463   0.71733   0.86747   0.00000  Uiso   1.00
H741   H     0.09518   0.78347   0.61547   0.00000  Uiso   1.00
H742   H     0.23870   0.78252   0.88386   0.00000  Uiso   1.00
H743   H     0.08474   0.60212   0.82709   0.00000  Uiso   1.00
H744   H     0.16049   0.58171   0.88627   0.00000  Uiso   1.00
H745   H     0.13316   0.63467   0.89692   0.00000  Uiso   1.00
H746   H     0.19049   0.63195   0.86783   0.00000  Uiso   1.00
H747   H     0.11219   0.90026   0.63677   0.00000  Uiso   1.00
H748   H     0.00744   0.74993   0.80653   0.00000  Uiso   1.00
H749   H     0.20044   0.91511   0.62063   0.00000  Uiso   1.00
H750   H     0.17588   0.86224   0.59882   0.00000  Uiso   1.00
H751   H     0.21976   0.86509   0.65486   0.00000  Uiso   1.00
H752   H     0.04759   0.78607   0.53349   0.00000  Uiso   1.00
H753   H     0.05430   0.84414   0.97712   0.00000  Uiso   1.00
H754   H     0.12192   0.83322   0.97868   0.00000  Uiso   1.00
H755   H     0.09812   0.85555   0.53187   0.00000  Uiso   1.00
H756   H     0.28596   0.78537   0.96561   0.00000  Uiso   1.00
H757   H     0.27985   0.84316   0.52066   0.00000  Uiso   1.00
H758   H     0.21248   0.83200   0.52055   0.00000  Uiso   1.00
H759   H     0.12662   0.52813   0.81322   0.00000  Uiso   1.00
H760   H     0.23490   0.85483   0.96636   0.00000  Uiso   1.00
H761   H     0.14517   0.97237   0.67161   0.00000  Uiso   1.00
H762   H     0.20475   0.61218   0.68712   0.00000  Uiso   1.00
H763   H     0.18758   0.88840   0.82695   0.00000  Uiso   1.00
H764   H     0.20623   0.53196   0.68689   0.00000  Uiso   1.00
H765   H     0.18846   0.96846   0.82771   0.00000  Uiso   1.00
H766   H     0.23928   0.71721   0.54451   0.00000  Uiso   1.00
N767   N     0.16667   0.75001   0.62934   0.00000  Uiso   1.00
N768   N     0.16667   0.74999   0.87065   0.00000  Uiso   1.00
N769   N     0.12109   0.61410   0.82414   0.00000  Uiso   1.00
N770   N     0.14371   0.88673   0.65840   0.00000  Uiso   1.00
N771   N     0.08143   0.78848   0.51845   0.00000  Uiso   1.00
N772   N     0.25220   0.78770   0.98071   0.00000  Uiso   1.00
O773   O     0.16667   0.68573   0.79071   0.00000  Uiso   1.00
O774   O     0.16666   0.81428   0.70928   0.00000  Uiso   1.00
O775   O     0.16667   0.68573   0.70928   0.00000  Uiso   1.00
O776   O     0.16666   0.81427   0.79072   0.00000  Uiso   1.00
O777   O     0.09161   0.75000   0.78132   0.00000  Uiso   1.00
O778   O     0.24172   0.75001   0.71868   0.00000  Uiso   1.00
O779   O     0.09161   0.75000   0.69988   0.00000  Uiso   1.00
O780   O     0.24172   0.75000   0.80011   0.00000  Uiso   1.00
C781   C     0.49953   0.66493   0.75032   0.00000  Uiso   1.00
C782   C     0.54199   0.76909   0.95138   0.00000  Uiso   1.00
C783   C     0.49950   0.75109   0.52720   0.00000  Uiso   1.00
C784   C     0.50031   0.75112   0.97277   0.00000  Uiso   1.00
C785   C     0.40120   0.75000   0.73752   0.00000  Uiso   1.00
C786   C     0.59880   0.75000   0.76248   0.00000  Uiso   1.00
C787   C     0.34592   0.75001   0.73062   0.00000  Uiso   1.00
C788   C     0.65407   0.74997   0.76938   0.00000  Uiso   1.00
C789   C     0.47777   0.54653   0.78620   0.00000  Uiso   1.00
C790   C     0.48839   0.95394   0.70540   0.00000  Uiso   1.00
C791   C     0.47793   0.59253   0.78755   0.00000  Uiso   1.00
C792   C     0.49995   0.83517   0.74955   0.00000  Uiso   1.00
C793   C     0.48903   0.90796   0.70416   0.00000  Uiso   1.00
C794   C     0.49941   0.61668   0.75125   0.00000  Uiso   1.00
C795   C     0.50026   0.88362   0.74844   0.00000  Uiso   1.00
C796   C     0.52099   0.59426   0.71496   0.00000  Uiso   1.00
C797   C     0.51168   0.90615   0.79264   0.00000  Uiso   1.00
C798   C     0.52166   0.54851   0.71467   0.00000  Uiso   1.00
C799   C     0.51194   0.95191   0.79320   0.00000  Uiso   1.00
C800   C     0.49998   0.52438   0.75022   0.00000  Uiso   1.00
C801   C     0.50016   0.97605   0.74963   0.00000  Uiso   1.00
C802   C     0.48645   0.61558   0.87114   0.00000  Uiso   1.00
C803   C     0.54046   0.73215   0.55896   0.00000  Uiso   1.00
C804   C     0.52065   0.88217   0.63194   0.00000  Uiso   1.00
C805   C     0.42299   0.83262   0.50076   0.00000  Uiso   1.00
C806   C     0.57750   0.83169   0.99781   0.00000  Uiso   1.00
C807   C     0.45913   0.73264   0.94143   0.00000  Uiso   1.00
C808   C     0.53986   0.73170   0.60969   0.00000  Uiso   1.00
C809   C     0.45979   0.73221   0.89071   0.00000  Uiso   1.00
C810   C     0.45969   0.76866   0.59950   0.00000  Uiso   1.00
C811   C     0.54056   0.76814   0.90011   0.00000  Uiso   1.00
C812   C     0.45814   0.76953   0.54821   0.00000  Uiso   1.00
Cu813  Cu    0.50000   0.75000   0.79821   0.00000  Uiso   1.00
Cu814  Cu    0.50000   0.75001   0.70178   0.00000  Uiso   1.00
H815   H     0.65922   0.75006   0.69346   0.00000  Uiso   1.00
H816   H     0.42675   0.71803   0.95619   0.00000  Uiso   1.00
H817   H     0.57150   0.71648   0.63329   0.00000  Uiso   1.00
H818   H     0.42796   0.71733   0.86747   0.00000  Uiso   1.00
H819   H     0.42851   0.78347   0.61547   0.00000  Uiso   1.00
H820   H     0.57204   0.78252   0.88386   0.00000  Uiso   1.00
H821   H     0.41807   0.60212   0.82709   0.00000  Uiso   1.00
H822   H     0.49382   0.58171   0.88627   0.00000  Uiso   1.00
H823   H     0.46650   0.63467   0.89692   0.00000  Uiso   1.00
H824   H     0.52382   0.63195   0.86783   0.00000  Uiso   1.00
H825   H     0.44553   0.90026   0.63677   0.00000  Uiso   1.00
H826   H     0.34078   0.74993   0.80653   0.00000  Uiso   1.00
H827   H     0.53377   0.91511   0.62063   0.00000  Uiso   1.00
H828   H     0.50922   0.86224   0.59882   0.00000  Uiso   1.00
H829   H     0.55309   0.86509   0.65486   0.00000  Uiso   1.00
H830   H     0.38093   0.78607   0.53349   0.00000  Uiso   1.00
H831   H     0.38763   0.84414   0.97712   0.00000  Uiso   1.00
H832   H     0.45526   0.83322   0.97868   0.00000  Uiso   1.00
H833   H     0.43145   0.85555   0.53187   0.00000  Uiso   1.00
H834   H     0.61929   0.78537   0.96561   0.00000  Uiso   1.00
H835   H     0.61318   0.84316   0.52066   0.00000  Uiso   1.00
H836   H     0.54581   0.83200   0.52055   0.00000  Uiso   1.00
H837   H     0.45996   0.52813   0.81322   0.00000  Uiso   1.00
H838   H     0.56823   0.85483   0.96636   0.00000  Uiso   1.00
H839   H     0.47850   0.97237   0.67161   0.00000  Uiso   1.00
H840   H     0.53808   0.61218   0.68712   0.00000  Uiso   1.00
H841   H     0.52091   0.88840   0.82695   0.00000  Uiso   1.00
H842   H     0.53957   0.53196   0.68689   0.00000  Uiso   1.00
H843   H     0.52180   0.96846   0.82771   0.00000  Uiso   1.00
H844   H     0.57261   0.71721   0.54451   0.00000  Uiso   1.00
N845   N     0.50000   0.75001   0.62934   0.00000  Uiso   1.00
N846   N     0.50000   0.74999   0.87065   0.00000  Uiso   1.00
N847   N     0.45443   0.61410   0.82414   0.00000  Uiso   1.00
N848   N     0.47704   0.88673   0.65840   0.00000  Uiso   1.00
N849   N     0.41476   0.78848   0.51845   0.00000  Uiso   1.00
N850   N     0.58553   0.78770   0.98071   0.00000  Uiso   1.00
O851   O     0.50000   0.68573   0.79071   0.00000  Uiso   1.00
O852   O     0.50000   0.81428   0.70928   0.00000  Uiso   1.00
O853   O     0.50000   0.68573   0.70928   0.00000  Uiso   1.00
O854   O     0.50000   0.81427   0.79072   0.00000  Uiso   1.00
O855   O     0.42495   0.75000   0.78132   0.00000  Uiso   1.00
O856   O     0.57505   0.75001   0.71868   0.00000  Uiso   1.00
O857   O     0.42495   0.75000   0.69988   0.00000  Uiso   1.00
O858   O     0.57505   0.75000   0.80011   0.00000  Uiso   1.00
C859   C     0.83286   0.66493   0.75032   0.00000  Uiso   1.00
C860   C     0.87532   0.76909   0.95138   0.00000  Uiso   1.00
C861   C     0.83283   0.75109   0.52720   0.00000  Uiso   1.00
C862   C     0.83365   0.75112   0.97277   0.00000  Uiso   1.00
C863   C     0.73453   0.75000   0.73752   0.00000  Uiso   1.00
C864   C     0.93214   0.75000   0.76248   0.00000  Uiso   1.00
C865   C     0.67926   0.75001   0.73062   0.00000  Uiso   1.00
C866   C     0.98741   0.74997   0.76938   0.00000  Uiso   1.00
C867   C     0.81111   0.54653   0.78620   0.00000  Uiso   1.00
C868   C     0.82173   0.95394   0.70540   0.00000  Uiso   1.00
C869   C     0.81126   0.59253   0.78755   0.00000  Uiso   1.00
C870   C     0.83329   0.83517   0.74955   0.00000  Uiso   1.00
C871   C     0.82236   0.90796   0.70416   0.00000  Uiso   1.00
C872   C     0.83274   0.61668   0.75125   0.00000  Uiso   1.00
C873   C     0.83359   0.88362   0.74844   0.00000  Uiso   1.00
C874   C     0.85432   0.59426   0.71496   0.00000  Uiso   1.00
C875   C     0.84501   0.90615   0.79264   0.00000  Uiso   1.00
C876   C     0.85500   0.54851   0.71467   0.00000  Uiso   1.00
C877   C     0.84527   0.95191   0.79320   0.00000  Uiso   1.00
C878   C     0.83331   0.52438   0.75022   0.00000  Uiso   1.00
C879   C     0.83349   0.97605   0.74963   0.00000  Uiso   1.00
C880   C     0.81979   0.61558   0.87114   0.00000  Uiso   1.00
C881   C     0.87380   0.73215   0.55896   0.00000  Uiso   1.00
C882   C     0.85399   0.88217   0.63194   0.00000  Uiso   1.00
C883   C     0.75632   0.83262   0.50076   0.00000  Uiso   1.00
C884   C     0.91083   0.83169   0.99781   0.00000  Uiso   1.00
C885   C     0.79246   0.73264   0.94143   0.00000  Uiso   1.00
C886   C     0.87319   0.73170   0.60969   0.00000  Uiso   1.00
C887   C     0.79313   0.73221   0.89071   0.00000  Uiso   1.00
C888   C     0.79302   0.76866   0.59950   0.00000  Uiso   1.00
C889   C     0.87390   0.76814   0.90011   0.00000  Uiso   1.00
C890   C     0.79147   0.76953   0.54821   0.00000  Uiso   1.00
Cu891  Cu    0.83333   0.75000   0.79821   0.00000  Uiso   1.00
Cu892  Cu    0.83333   0.75001   0.70178   0.00000  Uiso   1.00
H893   H     0.99255   0.75006   0.69346   0.00000  Uiso   1.00
H894   H     0.76008   0.71803   0.95619   0.00000  Uiso   1.00
H895   H     0.90484   0.71648   0.63329   0.00000  Uiso   1.00
H896   H     0.76130   0.71733   0.86747   0.00000  Uiso   1.00
H897   H     0.76185   0.78347   0.61547   0.00000  Uiso   1.00
H898   H     0.90537   0.78252   0.88386   0.00000  Uiso   1.00
H899   H     0.75141   0.60212   0.82709   0.00000  Uiso   1.00
H900   H     0.82716   0.58171   0.88627   0.00000  Uiso   1.00
H901   H     0.79983   0.63467   0.89692   0.00000  Uiso   1.00
H902   H     0.85715   0.63195   0.86783   0.00000  Uiso   1.00
H903   H     0.77886   0.90026   0.63677   0.00000  Uiso   1.00
H904   H     0.67411   0.74993   0.80653   0.00000  Uiso   1.00
H905   H     0.86711   0.91511   0.62063   0.00000  Uiso   1.00
H906   H     0.84255   0.86224   0.59882   0.00000  Uiso   1.00
H907   H     0.88643   0.86509   0.65486   0.00000  Uiso   1.00
H908   H     0.71426   0.78607   0.53349   0.00000  Uiso   1.00
H909   H     0.72097   0.84414   0.97712   0.00000  Uiso   1.00
H910   H     0.78859   0.83322   0.97868   0.00000  Uiso   1.00
H911   H     0.76479   0.85555   0.53187   0.00000  Uiso   1.00
H912   H     0.95263   0.78537   0.96561   0.00000  Uiso   1.00
H913   H     0.94651   0.84316   0.52066   0.00000  Uiso   1.00
H914   H     0.87915   0.83200   0.52055   0.00000  Uiso   1.00
H915   H     0.79329   0.52813   0.81322   0.00000  Uiso   1.00
H916   H     0.90156   0.85483   0.96636   0.00000  Uiso   1.00
H917   H     0.81183   0.97237   0.67161   0.00000  Uiso   1.00
H918   H     0.87141   0.61218   0.68712   0.00000  Uiso   1.00
H919   H     0.85424   0.88840   0.82695   0.00000  Uiso   1.00
H920   H     0.87290   0.53196   0.68689   0.00000  Uiso   1.00
H921   H     0.85513   0.96846   0.82771   0.00000  Uiso   1.00
H922   H     0.90595   0.71721   0.54451   0.00000  Uiso   1.00
N923   N     0.83333   0.75001   0.62934   0.00000  Uiso   1.00
N924   N     0.83333   0.74999   0.87065   0.00000  Uiso   1.00
N925   N     0.78776   0.61410   0.82414   0.00000  Uiso   1.00
N926   N     0.81037   0.88673   0.65840   0.00000  Uiso   1.00
N927   N     0.74809   0.78848   0.51845   0.00000  Uiso   1.00
N928   N     0.91886   0.78770   0.98071   0.00000  Uiso   1.00
O929   O     0.83334   0.68573   0.79071   0.00000  Uiso   1.00
O930   O     0.83333   0.81428   0.70928   0.00000  Uiso   1.00
O931   O     0.83334   0.68573   0.70928   0.00000  Uiso   1.00
O932   O     0.83333   0.81427   0.79072   0.00000  Uiso   1.00
O933   O     0.75828   0.75000   0.78132   0.00000  Uiso   1.00
O934   O     0.90839   0.75001   0.71868   0.00000  Uiso   1.00
O935   O     0.75828   0.75000   0.69988   0.00000  Uiso   1.00
O936   O     0.90839   0.75000   0.80011   0.00000  Uiso   1.00
loop_
_geom_bond_atom_site_label_1
_geom_bond_atom_site_label_2
_geom_bond_distance
_geom_bond_site_symmetry_2
_ccdc_geom_bond_type
C1     O71     1.289   .     A
C1     O73     1.294   .     A
C1     C14     1.464   .     S
C2     C31     1.415   .     A
C2     C4      1.417   .     A
C2     N70     1.424   .     S
C3     C23     1.407   .     A
C3     C32     1.417   .     A
C3     C472    1.510   1_554 S
C4     C27     1.407   .     A
C4     C471    1.510   .     S
C5     C7      1.433   .     S
C5     O75     1.283   .     A
C5     O77     1.285   .     A
C6     O78     1.285   .     A
C6     C8      1.433   .     S
C6     O76     1.283   .     A
C7     C164    1.335   1_455 S
C7     H191    1.087   1_455 S
C8     C85     1.335   .     S
C8     H124    1.087   .     S
C9     H57     1.084   .     S
C9     C11     1.396   .     A
C9     C20     1.400   .     A
C10    C21     1.399   .     A
C10    C13     1.396   .     A
C10    H59     1.084   .     S
C11    C14     1.414   .     A
C11    N67     1.422   .     S
C12    O74     1.297   .     A
C12    O72     1.289   .     A
C12    C15     1.469   .     S
C13    C15     1.418   .     A
C13    N68     1.423   .     S
C14    C16     1.402   .     A
C15    C17     1.404   .     A
C16    H60     1.084   .     S
C16    C18     1.388   .     A
C17    H61     1.083   .     S
C17    C19     1.388   .     A
C18    H62     1.083   .     S
C18    C20     1.401   .     A
C19    C21     1.400   .     A
C19    H63     1.083   .     S
C20    C255    1.466   1_545 S
C21    C254    1.466   .     S
C22    H44     1.111   .     S
C22    H43     1.110   .     S
C22    H42     1.112   .     S
C22    N67     1.447   .     S
C23    C28     1.406   .     A
C23    H64     1.083   .     S
C24    H48     1.110   .     S
C24    H49     1.111   .     S
C24    H47     1.112   .     S
C24    N68     1.447   .     S
C25    H53     1.111   .     S
C25    N69     1.446   .     S
C25    H519    1.111   1_554 S
C25    H520    1.109   1_554 S
C26    H58     1.112   .     S
C26    N70     1.446   .     S
C26    H523    1.111   .     S
C26    H524    1.109   .     S
C27    C29     1.406   .     A
C27    H36     1.083   .     S
C28    H37     1.081   .     S
C28    N65     1.364   .     A
C29    H38     1.081   .     S
C29    N66     1.364   .     A
C30    C32     1.414   .     A
C30    H39     1.081   .     S
C30    N65     1.365   .     A
C31    N66     1.365   .     A
C31    H40     1.081   .     S
C32    N69     1.424   .     S
Cu33   O78     1.958   .     S
Cu33   O75     1.955   .     S
Cu33   N66     2.005   .     S
Cu33   O71     1.963   .     S
Cu33   Cu34    2.669   .     S
Cu33   O74     1.958   .     S
Cu34   O77     1.958   .     S
Cu34   N65     2.005   .     S
Cu34   O72     1.963   .     S
Cu34   O73     1.958   .     S
Cu34   O76     1.955   .     S
H35    C85     1.087   .     S
H41    N67     1.032   .     S
H45    N68     1.032   .     S
H46    C164    1.087   1_455 S
H50    N69     1.032   .     S
H51    C493    1.111   .     S
H52    C493    1.109   .     S
H54    N70     1.032   .     S
H55    C494    1.111   1_554 S
H56    C494    1.109   1_554 S
C79    O149    1.289   .     A
C79    O151    1.294   .     A
C79    C92     1.464   .     S
C80    C109    1.415   .     A
C80    C82     1.417   .     A
C80    N148    1.424   .     S
C81    C101    1.407   .     A
C81    C110    1.417   .     A
C81    C550    1.510   1_554 S
C82    C105    1.407   .     A
C82    C549    1.510   .     S
C83    C85     1.433   .     S
C83    O153    1.283   .     A
C83    O155    1.285   .     A
C84    O156    1.285   .     A
C84    C86     1.433   .     S
C84    O154    1.283   .     A
C86    C163    1.335   .     S
C86    H202    1.087   .     S
C87    H135    1.084   .     S
C87    C89     1.396   .     A
C87    C98     1.400   .     A
C88    C99     1.399   .     A
C88    C91     1.396   .     A
C88    H137    1.084   .     S
C89    C92     1.414   .     A
C89    N145    1.422   .     S
C90    O152    1.297   .     A
C90    O150    1.289   .     A
C90    C93     1.469   .     S
C91    C93     1.418   .     A
C91    N146    1.423   .     S
C92    C94     1.402   .     A
C93    C95     1.404   .     A
C94    H138    1.084   .     S
C94    C96     1.388   .     A
C95    H139    1.083   .     S
C95    C97     1.388   .     A
C96    H140    1.083   .     S
C96    C98     1.401   .     A
C97    C99     1.400   .     A
C97    H141    1.083   .     S
C98    C333    1.466   1_545 S
C99    C332    1.466   .     S
C100   H122    1.111   .     S
C100   H121    1.110   .     S
C100   H120    1.112   .     S
C100   N145    1.447   .     S
C101   C106    1.406   .     A
C101   H142    1.083   .     S
C102   H126    1.110   .     S
C102   H127    1.111   .     S
C102   H125    1.112   .     S
C102   N146    1.447   .     S
C103   H131    1.111   .     S
C103   N147    1.446   .     S
C103   H597    1.111   1_554 S
C103   H598    1.109   1_554 S
C104   H136    1.112   .     S
C104   N148    1.446   .     S
C104   H601    1.111   .     S
C104   H602    1.109   .     S
C105   C107    1.406   .     A
C105   H114    1.083   .     S
C106   H115    1.081   .     S
C106   N143    1.364   .     A
C107   H116    1.081   .     S
C107   N144    1.364   .     A
C108   C110    1.414   .     A
C108   H117    1.081   .     S
C108   N143    1.365   .     A
C109   N144    1.365   .     A
C109   H118    1.081   .     S
C110   N147    1.424   .     S
Cu111  O156    1.958   .     S
Cu111  O153    1.955   .     S
Cu111  N144    2.005   .     S
Cu111  O149    1.963   .     S
Cu111  Cu112   2.669   .     S
Cu111  O152    1.958   .     S
Cu112  O155    1.958   .     S
Cu112  N143    2.005   .     S
Cu112  O150    1.963   .     S
Cu112  O151    1.958   .     S
Cu112  O154    1.955   .     S
H113   C163    1.087   .     S
H119   N145    1.032   .     S
H123   N146    1.032   .     S
H128   N147    1.032   .     S
H129   C571    1.111   .     S
H130   C571    1.109   .     S
H132   N148    1.032   .     S
H133   C572    1.111   1_554 S
H134   C572    1.109   1_554 S
C157   O227    1.289   .     A
C157   O229    1.294   .     A
C157   C170    1.464   .     S
C158   C187    1.415   .     A
C158   C160    1.417   .     A
C158   N226    1.424   .     S
C159   C179    1.407   .     A
C159   C188    1.417   .     A
C159   C628    1.510   1_554 S
C160   C183    1.407   .     A
C160   C627    1.510   .     S
C161   C163    1.433   .     S
C161   O231    1.283   .     A
C161   O233    1.285   .     A
C162   O234    1.285   .     A
C162   C164    1.433   .     S
C162   O232    1.283   .     A
C164   C7      1.335   1_655 S
C164   H46     1.087   1_655 S
C165   H213    1.084   .     S
C165   C167    1.396   .     A
C165   C176    1.400   .     A
C166   C177    1.399   .     A
C166   C169    1.396   .     A
C166   H215    1.084   .     S
C167   C170    1.414   .     A
C167   N223    1.422   .     S
C168   O230    1.297   .     A
C168   O228    1.289   .     A
C168   C171    1.469   .     S
C169   C171    1.418   .     A
C169   N224    1.423   .     S
C170   C172    1.402   .     A
C171   C173    1.404   .     A
C172   H216    1.084   .     S
C172   C174    1.388   .     A
C173   H217    1.083   .     S
C173   C175    1.388   .     A
C174   H218    1.083   .     S
C174   C176    1.401   .     A
C175   C177    1.400   .     A
C175   H219    1.083   .     S
C176   C411    1.466   1_545 S
C177   C410    1.466   .     S
C178   H200    1.111   .     S
C178   H199    1.110   .     S
C178   H198    1.112   .     S
C178   N223    1.447   .     S
C179   C184    1.406   .     A
C179   H220    1.083   .     S
C180   H204    1.110   .     S
C180   H205    1.111   .     S
C180   H203    1.112   .     S
C180   N224    1.447   .     S
C181   H209    1.111   .     S
C181   N225    1.446   .     S
C181   H675    1.111   1_554 S
C181   H676    1.109   1_554 S
C182   H214    1.112   .     S
C182   N226    1.446   .     S
C182   H679    1.111   .     S
C182   H680    1.109   .     S
C183   C185    1.406   .     A
C183   H192    1.083   .     S
C184   H193    1.081   .     S
C184   N221    1.364   .     A
C185   H194    1.081   .     S
C185   N222    1.364   .     A
C186   C188    1.414   .     A
C186   H195    1.081   .     S
C186   N221    1.365   .     A
C187   N222    1.365   .     A
C187   H196    1.081   .     S
C188   N225    1.424   .     S
Cu189  O234    1.958   .     S
Cu189  O231    1.955   .     S
Cu189  N222    2.005   .     S
Cu189  O227    1.963   .     S
Cu189  Cu190   2.669   .     S
Cu189  O230    1.958   .     S
Cu190  O233    1.958   .     S
Cu190  N221    2.005   .     S
Cu190  O228    1.963   .     S
Cu190  O229    1.958   .     S
Cu190  O232    1.955   .     S
H191   C7      1.087   1_655 S
H197   N223    1.032   .     S
H201   N224    1.032   .     S
H206   N225    1.032   .     S
H207   C649    1.111   .     S
H208   C649    1.109   .     S
H210   N226    1.032   .     S
H211   C650    1.111   1_554 S
H212   C650    1.109   1_554 S
C235   O305    1.289   .     A
C235   O307    1.294   .     A
C235   C248    1.464   .     S
C236   C265    1.415   .     A
C236   C238    1.417   .     A
C236   N304    1.424   .     S
C237   C257    1.407   .     A
C237   C266    1.417   .     A
C237   C706    1.510   1_554 S
C238   C261    1.407   .     A
C238   C705    1.510   .     S
C239   C241    1.433   .     S
C239   O309    1.283   .     A
C239   O311    1.285   .     A
C240   O312    1.285   .     A
C240   C242    1.433   .     S
C240   O310    1.283   .     A
C241   C398    1.335   1_455 S
C241   H425    1.087   1_455 S
C242   C319    1.335   .     S
C242   H358    1.087   .     S
C243   H291    1.084   .     S
C243   C245    1.396   .     A
C243   C254    1.400   .     A
C244   C255    1.399   .     A
C244   C247    1.396   .     A
C244   H293    1.084   .     S
C245   C248    1.414   .     A
C245   N301    1.422   .     S
C246   O308    1.297   .     A
C246   O306    1.289   .     A
C246   C249    1.469   .     S
C247   C249    1.418   .     A
C247   N302    1.423   .     S
C248   C250    1.402   .     A
C249   C251    1.404   .     A
C250   H294    1.084   .     S
C250   C252    1.388   .     A
C251   H295    1.083   .     S
C251   C253    1.388   .     A
C252   H296    1.083   .     S
C252   C254    1.401   .     A
C253   C255    1.400   .     A
C253   H297    1.083   .     S
C255   C20     1.466   1_565 S
C256   H278    1.111   .     S
C256   H277    1.110   .     S
C256   H276    1.112   .     S
C256   N301    1.447   .     S
C257   C262    1.406   .     A
C257   H298    1.083   .     S
C258   H282    1.110   .     S
C258   H283    1.111   .     S
C258   H281    1.112   .     S
C258   N302    1.447   .     S
C259   H287    1.111   .     S
C259   N303    1.446   .     S
C259   H753    1.111   1_554 S
C259   H754    1.109   1_554 S
C260   H292    1.112   .     S
C260   N304    1.446   .     S
C260   H757    1.111   .     S
C260   H758    1.109   .     S
C261   C263    1.406   .     A
C261   H270    1.083   .     S
C262   H271    1.081   .     S
C262   N299    1.364   .     A
C263   H272    1.081   .     S
C263   N300    1.364   .     A
C264   C266    1.414   .     A
C264   H273    1.081   .     S
C264   N299    1.365   .     A
C265   N300    1.365   .     A
C265   H274    1.081   .     S
C266   N303    1.424   .     S
Cu267  O312    1.958   .     S
Cu267  O309    1.955   .     S
Cu267  N300    2.005   .     S
Cu267  O305    1.963   .     S
Cu267  Cu268   2.669   .     S
Cu267  O308    1.958   .     S
Cu268  O311    1.958   .     S
Cu268  N299    2.005   .     S
Cu268  O306    1.963   .     S
Cu268  O307    1.958   .     S
Cu268  O310    1.955   .     S
H269   C319    1.087   .     S
H275   N301    1.032   .     S
H279   N302    1.032   .     S
H280   C398    1.087   1_455 S
H284   N303    1.032   .     S
H285   C727    1.111   .     S
H286   C727    1.109   .     S
H288   N304    1.032   .     S
H289   C728    1.111   1_554 S
H290   C728    1.109   1_554 S
C313   O383    1.289   .     A
C313   O385    1.294   .     A
C313   C326    1.464   .     S
C314   C343    1.415   .     A
C314   C316    1.417   .     A
C314   N382    1.424   .     S
C315   C335    1.407   .     A
C315   C344    1.417   .     A
C315   C784    1.510   1_554 S
C316   C339    1.407   .     A
C316   C783    1.510   .     S
C317   C319    1.433   .     S
C317   O387    1.283   .     A
C317   O389    1.285   .     A
C318   O390    1.285   .     A
C318   C320    1.433   .     S
C318   O388    1.283   .     A
C320   C397    1.335   .     S
C320   H436    1.087   .     S
C321   H369    1.084   .     S
C321   C323    1.396   .     A
C321   C332    1.400   .     A
C322   C333    1.399   .     A
C322   C325    1.396   .     A
C322   H371    1.084   .     S
C323   C326    1.414   .     A
C323   N379    1.422   .     S
C324   O386    1.297   .     A
C324   O384    1.289   .     A
C324   C327    1.469   .     S
C325   C327    1.418   .     A
C325   N380    1.423   .     S
C326   C328    1.402   .     A
C327   C329    1.404   .     A
C328   H372    1.084   .     S
C328   C330    1.388   .     A
C329   H373    1.083   .     S
C329   C331    1.388   .     A
C330   H374    1.083   .     S
C330   C332    1.401   .     A
C331   C333    1.400   .     A
C331   H375    1.083   .     S
C333   C98     1.466   1_565 S
C334   H356    1.111   .     S
C334   H355    1.110   .     S
C334   H354    1.112   .     S
C334   N379    1.447   .     S
C335   C340    1.406   .     A
C335   H376    1.083   .     S
C336   H360    1.110   .     S
C336   H361    1.111   .     S
C336   H359    1.112   .     S
C336   N380    1.447   .     S
C337   H365    1.111   .     S
C337   N381    1.446   .     S
C337   H831    1.111   1_554 S
C337   H832    1.109   1_554 S
C338   H370    1.112   .     S
C338   N382    1.446   .     S
C338   H835    1.111   .     S
C338   H836    1.109   .     S
C339   C341    1.406   .     A
C339   H348    1.083   .     S
C340   H349    1.081   .     S
C340   N377    1.364   .     A
C341   H350    1.081   .     S
C341   N378    1.364   .     A
C342   C344    1.414   .     A
C342   H351    1.081   .     S
C342   N377    1.365   .     A
C343   N378    1.365   .     A
C343   H352    1.081   .     S
C344   N381    1.424   .     S
Cu345  O390    1.958   .     S
Cu345  O387    1.955   .     S
Cu345  N378    2.005   .     S
Cu345  O383    1.963   .     S
Cu345  Cu346   2.669   .     S
Cu345  O386    1.958   .     S
Cu346  O389    1.958   .     S
Cu346  N377    2.005   .     S
Cu346  O384    1.963   .     S
Cu346  O385    1.958   .     S
Cu346  O388    1.955   .     S
H347   C397    1.087   .     S
H353   N379    1.032   .     S
H357   N380    1.032   .     S
H362   N381    1.032   .     S
H363   C805    1.111   .     S
H364   C805    1.109   .     S
H366   N382    1.032   .     S
H367   C806    1.111   1_554 S
H368   C806    1.109   1_554 S
C391   O461    1.289   .     A
C391   O463    1.294   .     A
C391   C404    1.464   .     S
C392   C421    1.415   .     A
C392   C394    1.417   .     A
C392   N460    1.424   .     S
C393   C413    1.407   .     A
C393   C422    1.417   .     A
C393   C862    1.510   1_554 S
C394   C417    1.407   .     A
C394   C861    1.510   .     S
C395   C397    1.433   .     S
C395   O465    1.283   .     A
C395   O467    1.285   .     A
C396   O468    1.285   .     A
C396   C398    1.433   .     S
C396   O466    1.283   .     A
C398   C241    1.335   1_655 S
C398   H280    1.087   1_655 S
C399   H447    1.084   .     S
C399   C401    1.396   .     A
C399   C410    1.400   .     A
C400   C411    1.399   .     A
C400   C403    1.396   .     A
C400   H449    1.084   .     S
C401   C404    1.414   .     A
C401   N457    1.422   .     S
C402   O464    1.297   .     A
C402   O462    1.289   .     A
C402   C405    1.469   .     S
C403   C405    1.418   .     A
C403   N458    1.423   .     S
C404   C406    1.402   .     A
C405   C407    1.404   .     A
C406   H450    1.084   .     S
C406   C408    1.388   .     A
C407   H451    1.083   .     S
C407   C409    1.388   .     A
C408   H452    1.083   .     S
C408   C410    1.401   .     A
C409   C411    1.400   .     A
C409   H453    1.083   .     S
C411   C176    1.466   1_565 S
C412   H434    1.111   .     S
C412   H433    1.110   .     S
C412   H432    1.112   .     S
C412   N457    1.447   .     S
C413   C418    1.406   .     A
C413   H454    1.083   .     S
C414   H438    1.110   .     S
C414   H439    1.111   .     S
C414   H437    1.112   .     S
C414   N458    1.447   .     S
C415   H443    1.111   .     S
C415   N459    1.446   .     S
C415   H909    1.111   1_554 S
C415   H910    1.109   1_554 S
C416   H448    1.112   .     S
C416   N460    1.446   .     S
C416   H913    1.111   .     S
C416   H914    1.109   .     S
C417   C419    1.406   .     A
C417   H426    1.083   .     S
C418   H427    1.081   .     S
C418   N455    1.364   .     A
C419   H428    1.081   .     S
C419   N456    1.364   .     A
C420   C422    1.414   .     A
C420   H429    1.081   .     S
C420   N455    1.365   .     A
C421   N456    1.365   .     A
C421   H430    1.081   .     S
C422   N459    1.424   .     S
Cu423  O468    1.958   .     S
Cu423  O465    1.955   .     S
Cu423  N456    2.005   .     S
Cu423  O461    1.963   .     S
Cu423  Cu424   2.669   .     S
Cu423  O464    1.958   .     S
Cu424  O467    1.958   .     S
Cu424  N455    2.005   .     S
Cu424  O462    1.963   .     S
Cu424  O463    1.958   .     S
Cu424  O466    1.955   .     S
H425   C241    1.087   1_655 S
H431   N457    1.032   .     S
H435   N458    1.032   .     S
H440   N459    1.032   .     S
H441   C883    1.111   .     S
H442   C883    1.109   .     S
H444   N460    1.032   .     S
H445   C884    1.111   1_554 S
H446   C884    1.109   1_554 S
C469   O539    1.289   .     A
C469   O541    1.294   .     A
C469   C482    1.464   .     S
C470   C499    1.415   .     A
C470   C472    1.417   .     A
C470   N538    1.424   .     S
C471   C491    1.407   .     A
C471   C500    1.417   .     A
C472   C495    1.407   .     A
C472   C3      1.510   1_556 S
C473   C475    1.433   .     S
C473   O543    1.283   .     A
C473   O545    1.285   .     A
C474   O546    1.285   .     A
C474   C476    1.433   .     S
C474   O544    1.283   .     A
C475   C632    1.335   1_455 S
C475   H659    1.087   1_455 S
C476   C553    1.335   .     S
C476   H592    1.087   .     S
C477   H525    1.084   .     S
C477   C479    1.396   .     A
C477   C488    1.400   .     A
C478   C489    1.399   .     A
C478   C481    1.396   .     A
C478   H527    1.084   .     S
C479   C482    1.414   .     A
C479   N535    1.422   .     S
C480   O542    1.297   .     A
C480   O540    1.289   .     A
C480   C483    1.469   .     S
C481   C483    1.418   .     A
C481   N536    1.423   .     S
C482   C484    1.402   .     A
C483   C485    1.404   .     A
C484   H528    1.084   .     S
C484   C486    1.388   .     A
C485   H529    1.083   .     S
C485   C487    1.388   .     A
C486   H530    1.083   .     S
C486   C488    1.401   .     A
C487   C489    1.400   .     A
C487   H531    1.083   .     S
C488   C723    1.466   1_545 S
C489   C722    1.466   .     S
C490   H512    1.111   .     S
C490   H511    1.110   .     S
C490   H510    1.112   .     S
C490   N535    1.447   .     S
C491   C496    1.406   .     A
C491   H532    1.083   .     S
C492   H516    1.110   .     S
C492   H517    1.111   .     S
C492   H515    1.112   .     S
C492   N536    1.447   .     S
C493   H521    1.111   .     S
C493   N537    1.446   .     S
C494   H526    1.112   .     S
C494   N538    1.446   .     S
C494   H55     1.111   1_556 S
C494   H56     1.109   1_556 S
C495   C497    1.406   .     A
C495   H504    1.083   .     S
C496   H505    1.081   .     S
C496   N533    1.364   .     A
C497   H506    1.081   .     S
C497   N534    1.364   .     A
C498   C500    1.414   .     A
C498   H507    1.081   .     S
C498   N533    1.365   .     A
C499   N534    1.365   .     A
C499   H508    1.081   .     S
C500   N537    1.424   .     S
Cu501  O546    1.958   .     S
Cu501  O543    1.955   .     S
Cu501  N534    2.005   .     S
Cu501  O539    1.963   .     S
Cu501  Cu502   2.669   .     S
Cu501  O542    1.958   .     S
Cu502  O545    1.958   .     S
Cu502  N533    2.005   .     S
Cu502  O540    1.963   .     S
Cu502  O541    1.958   .     S
Cu502  O544    1.955   .     S
H503   C553    1.087   .     S
H509   N535    1.032   .     S
H513   N536    1.032   .     S
H514   C632    1.087   1_455 S
H518   N537    1.032   .     S
H519   C25     1.111   1_556 S
H520   C25     1.109   1_556 S
H522   N538    1.032   .     S
C547   O617    1.289   .     A
C547   O619    1.294   .     A
C547   C560    1.464   .     S
C548   C577    1.415   .     A
C548   C550    1.417   .     A
C548   N616    1.424   .     S
C549   C569    1.407   .     A
C549   C578    1.417   .     A
C550   C573    1.407   .     A
C550   C81     1.510   1_556 S
C551   C553    1.433   .     S
C551   O621    1.283   .     A
C551   O623    1.285   .     A
C552   O624    1.285   .     A
C552   C554    1.433   .     S
C552   O622    1.283   .     A
C554   C631    1.335   .     S
C554   H670    1.087   .     S
C555   H603    1.084   .     S
C555   C557    1.396   .     A
C555   C566    1.400   .     A
C556   C567    1.399   .     A
C556   C559    1.396   .     A
C556   H605    1.084   .     S
C557   C560    1.414   .     A
C557   N613    1.422   .     S
C558   O620    1.297   .     A
C558   O618    1.289   .     A
C558   C561    1.469   .     S
C559   C561    1.418   .     A
C559   N614    1.423   .     S
C560   C562    1.402   .     A
C561   C563    1.404   .     A
C562   H606    1.084   .     S
C562   C564    1.388   .     A
C563   H607    1.083   .     S
C563   C565    1.388   .     A
C564   H608    1.083   .     S
C564   C566    1.401   .     A
C565   C567    1.400   .     A
C565   H609    1.083   .     S
C566   C801    1.466   1_545 S
C567   C800    1.466   .     S
C568   H590    1.111   .     S
C568   H589    1.110   .     S
C568   H588    1.112   .     S
C568   N613    1.447   .     S
C569   C574    1.406   .     A
C569   H610    1.083   .     S
C570   H594    1.110   .     S
C570   H595    1.111   .     S
C570   H593    1.112   .     S
C570   N614    1.447   .     S
C571   H599    1.111   .     S
C571   N615    1.446   .     S
C572   H604    1.112   .     S
C572   N616    1.446   .     S
C572   H133    1.111   1_556 S
C572   H134    1.109   1_556 S
C573   C575    1.406   .     A
C573   H582    1.083   .     S
C574   H583    1.081   .     S
C574   N611    1.364   .     A
C575   H584    1.081   .     S
C575   N612    1.364   .     A
C576   C578    1.414   .     A
C576   H585    1.081   .     S
C576   N611    1.365   .     A
C577   N612    1.365   .     A
C577   H586    1.081   .     S
C578   N615    1.424   .     S
Cu579  O624    1.958   .     S
Cu579  O621    1.955   .     S
Cu579  N612    2.005   .     S
Cu579  O617    1.963   .     S
Cu579  Cu580   2.669   .     S
Cu579  O620    1.958   .     S
Cu580  O623    1.958   .     S
Cu580  N611    2.005   .     S
Cu580  O618    1.963   .     S
Cu580  O619    1.958   .     S
Cu580  O622    1.955   .     S
H581   C631    1.087   .     S
H587   N613    1.032   .     S
H591   N614    1.032   .     S
H596   N615    1.032   .     S
H597   C103    1.111   1_556 S
H598   C103    1.109   1_556 S
H600   N616    1.032   .     S
C625   O695    1.289   .     A
C625   O697    1.294   .     A
C625   C638    1.464   .     S
C626   C655    1.415   .     A
C626   C628    1.417   .     A
C626   N694    1.424   .     S
C627   C647    1.407   .     A
C627   C656    1.417   .     A
C628   C651    1.407   .     A
C628   C159    1.510   1_556 S
C629   C631    1.433   .     S
C629   O699    1.283   .     A
C629   O701    1.285   .     A
C630   O702    1.285   .     A
C630   C632    1.433   .     S
C630   O700    1.283   .     A
C632   C475    1.335   1_655 S
C632   H514    1.087   1_655 S
C633   H681    1.084   .     S
C633   C635    1.396   .     A
C633   C644    1.400   .     A
C634   C645    1.399   .     A
C634   C637    1.396   .     A
C634   H683    1.084   .     S
C635   C638    1.414   .     A
C635   N691    1.422   .     S
C636   O698    1.297   .     A
C636   O696    1.289   .     A
C636   C639    1.469   .     S
C637   C639    1.418   .     A
C637   N692    1.423   .     S
C638   C640    1.402   .     A
C639   C641    1.404   .     A
C640   H684    1.084   .     S
C640   C642    1.388   .     A
C641   H685    1.083   .     S
C641   C643    1.388   .     A
C642   H686    1.083   .     S
C642   C644    1.401   .     A
C643   C645    1.400   .     A
C643   H687    1.083   .     S
C644   C879    1.466   1_545 S
C645   C878    1.466   .     S
C646   H668    1.111   .     S
C646   H667    1.110   .     S
C646   H666    1.112   .     S
C646   N691    1.447   .     S
C647   C652    1.406   .     A
C647   H688    1.083   .     S
C648   H672    1.110   .     S
C648   H673    1.111   .     S
C648   H671    1.112   .     S
C648   N692    1.447   .     S
C649   H677    1.111   .     S
C649   N693    1.446   .     S
C650   H682    1.112   .     S
C650   N694    1.446   .     S
C650   H211    1.111   1_556 S
C650   H212    1.109   1_556 S
C651   C653    1.406   .     A
C651   H660    1.083   .     S
C652   H661    1.081   .     S
C652   N689    1.364   .     A
C653   H662    1.081   .     S
C653   N690    1.364   .     A
C654   C656    1.414   .     A
C654   H663    1.081   .     S
C654   N689    1.365   .     A
C655   N690    1.365   .     A
C655   H664    1.081   .     S
C656   N693    1.424   .     S
Cu657  O702    1.958   .     S
Cu657  O699    1.955   .     S
Cu657  N690    2.005   .     S
Cu657  O695    1.963   .     S
Cu657  Cu658   2.669   .     S
Cu657  O698    1.958   .     S
Cu658  O701    1.958   .     S
Cu658  N689    2.005   .     S
Cu658  O696    1.963   .     S
Cu658  O697    1.958   .     S
Cu658  O700    1.955   .     S
H659   C475    1.087   1_655 S
H665   N691    1.032   .     S
H669   N692    1.032   .     S
H674   N693    1.032   .     S
H675   C181    1.111   1_556 S
H676   C181    1.109   1_556 S
H678   N694    1.032   .     S
C703   O773    1.289   .     A
C703   O775    1.294   .     A
C703   C716    1.464   .     S
C704   C733    1.415   .     A
C704   C706    1.417   .     A
C704   N772    1.424   .     S
C705   C725    1.407   .     A
C705   C734    1.417   .     A
C706   C729    1.407   .     A
C706   C237    1.510   1_556 S
C707   C709    1.433   .     S
C707   O777    1.283   .     A
C707   O779    1.285   .     A
C708   O780    1.285   .     A
C708   C710    1.433   .     S
C708   O778    1.283   .     A
C709   C866    1.335   1_455 S
C709   H893    1.087   1_455 S
C710   C787    1.335   .     S
C710   H826    1.087   .     S
C711   H759    1.084   .     S
C711   C713    1.396   .     A
C711   C722    1.400   .     A
C712   C723    1.399   .     A
C712   C715    1.396   .     A
C712   H761    1.084   .     S
C713   C716    1.414   .     A
C713   N769    1.422   .     S
C714   O776    1.297   .     A
C714   O774    1.289   .     A
C714   C717    1.469   .     S
C715   C717    1.418   .     A
C715   N770    1.423   .     S
C716   C718    1.402   .     A
C717   C719    1.404   .     A
C718   H762    1.084   .     S
C718   C720    1.388   .     A
C719   H763    1.083   .     S
C719   C721    1.388   .     A
C720   H764    1.083   .     S
C720   C722    1.401   .     A
C721   C723    1.400   .     A
C721   H765    1.083   .     S
C723   C488    1.466   1_565 S
C724   H746    1.111   .     S
C724   H745    1.110   .     S
C724   H744    1.112   .     S
C724   N769    1.447   .     S
C725   C730    1.406   .     A
C725   H766    1.083   .     S
C726   H750    1.110   .     S
C726   H751    1.111   .     S
C726   H749    1.112   .     S
C726   N770    1.447   .     S
C727   H755    1.111   .     S
C727   N771    1.446   .     S
C728   H760    1.112   .     S
C728   N772    1.446   .     S
C728   H289    1.111   1_556 S
C728   H290    1.109   1_556 S
C729   C731    1.406   .     A
C729   H738    1.083   .     S
C730   H739    1.081   .     S
C730   N767    1.364   .     A
C731   H740    1.081   .     S
C731   N768    1.364   .     A
C732   C734    1.414   .     A
C732   H741    1.081   .     S
C732   N767    1.365   .     A
C733   N768    1.365   .     A
C733   H742    1.081   .     S
C734   N771    1.424   .     S
Cu735  O780    1.958   .     S
Cu735  O777    1.955   .     S
Cu735  N768    2.005   .     S
Cu735  O773    1.963   .     S
Cu735  Cu736   2.669   .     S
Cu735  O776    1.958   .     S
Cu736  O779    1.958   .     S
Cu736  N767    2.005   .     S
Cu736  O774    1.963   .     S
Cu736  O775    1.958   .     S
Cu736  O778    1.955   .     S
H737   C787    1.087   .     S
H743   N769    1.032   .     S
H747   N770    1.032   .     S
H748   C866    1.087   1_455 S
H752   N771    1.032   .     S
H753   C259    1.111   1_556 S
H754   C259    1.109   1_556 S
H756   N772    1.032   .     S
C781   O851    1.289   .     A
C781   O853    1.294   .     A
C781   C794    1.464   .     S
C782   C811    1.415   .     A
C782   C784    1.417   .     A
C782   N850    1.424   .     S
C783   C803    1.407   .     A
C783   C812    1.417   .     A
C784   C807    1.407   .     A
C784   C315    1.510   1_556 S
C785   C787    1.433   .     S
C785   O855    1.283   .     A
C785   O857    1.285   .     A
C786   O858    1.285   .     A
C786   C788    1.433   .     S
C786   O856    1.283   .     A
C788   C865    1.335   .     S
C788   H904    1.087   .     S
C789   H837    1.084   .     S
C789   C791    1.396   .     A
C789   C800    1.400   .     A
C790   C801    1.399   .     A
C790   C793    1.396   .     A
C790   H839    1.084   .     S
C791   C794    1.414   .     A
C791   N847    1.422   .     S
C792   O854    1.297   .     A
C792   O852    1.289   .     A
C792   C795    1.469   .     S
C793   C795    1.418   .     A
C793   N848    1.423   .     S
C794   C796    1.402   .     A
C795   C797    1.404   .     A
C796   H840    1.084   .     S
C796   C798    1.388   .     A
C797   H841    1.083   .     S
C797   C799    1.388   .     A
C798   H842    1.083   .     S
C798   C800    1.401   .     A
C799   C801    1.400   .     A
C799   H843    1.083   .     S
C801   C566    1.466   1_565 S
C802   H824    1.111   .     S
C802   H823    1.110   .     S
C802   H822    1.112   .     S
C802   N847    1.447   .     S
C803   C808    1.406   .     A
C803   H844    1.083   .     S
C804   H828    1.110   .     S
C804   H829    1.111   .     S
C804   H827    1.112   .     S
C804   N848    1.447   .     S
C805   H833    1.111   .     S
C805   N849    1.446   .     S
C806   H838    1.112   .     S
C806   N850    1.446   .     S
C806   H367    1.111   1_556 S
C806   H368    1.109   1_556 S
C807   C809    1.406   .     A
C807   H816    1.083   .     S
C808   H817    1.081   .     S
C808   N845    1.364   .     A
C809   H818    1.081   .     S
C809   N846    1.364   .     A
C810   C812    1.414   .     A
C810   H819    1.081   .     S
C810   N845    1.365   .     A
C811   N846    1.365   .     A
C811   H820    1.081   .     S
C812   N849    1.424   .     S
Cu813  O858    1.958   .     S
Cu813  O855    1.955   .     S
Cu813  N846    2.005   .     S
Cu813  O851    1.963   .     S
Cu813  Cu814   2.669   .     S
Cu813  O854    1.958   .     S
Cu814  O857    1.958   .     S
Cu814  N845    2.005   .     S
Cu814  O852    1.963   .     S
Cu814  O853    1.958   .     S
Cu814  O856    1.955   .     S
H815   C865    1.087   .     S
H821   N847    1.032   .     S
H825   N848    1.032   .     S
H830   N849    1.032   .     S
H831   C337    1.111   1_556 S
H832   C337    1.109   1_556 S
H834   N850    1.032   .     S
C859   O929    1.289   .     A
C859   O931    1.294   .     A
C859   C872    1.464   .     S
C860   C889    1.415   .     A
C860   C862    1.417   .     A
C860   N928    1.424   .     S
C861   C881    1.407   .     A
C861   C890    1.417   .     A
C862   C885    1.407   .     A
C862   C393    1.510   1_556 S
C863   C865    1.433   .     S
C863   O933    1.283   .     A
C863   O935    1.285   .     A
C864   O936    1.285   .     A
C864   C866    1.433   .     S
C864   O934    1.283   .     A
C866   C709    1.335   1_655 S
C866   H748    1.087   1_655 S
C867   H915    1.084   .     S
C867   C869    1.396   .     A
C867   C878    1.400   .     A
C868   C879    1.399   .     A
C868   C871    1.396   .     A
C868   H917    1.084   .     S
C869   C872    1.414   .     A
C869   N925    1.422   .     S
C870   O932    1.297   .     A
C870   O930    1.289   .     A
C870   C873    1.469   .     S
C871   C873    1.418   .     A
C871   N926    1.423   .     S
C872   C874    1.402   .     A
C873   C875    1.404   .     A
C874   H918    1.084   .     S
C874   C876    1.388   .     A
C875   H919    1.083   .     S
C875   C877    1.388   .     A
C876   H920    1.083   .     S
C876   C878    1.401   .     A
C877   C879    1.400   .     A
C877   H921    1.083   .     S
C879   C644    1.466   1_565 S
C880   H902    1.111   .     S
C880   H901    1.110   .     S
C880   H900    1.112   .     S
C880   N925    1.447   .     S
C881   C886    1.406   .     A
C881   H922    1.083   .     S
C882   H906    1.110   .     S
C882   H907    1.111   .     S
C882   H905    1.112   .     S
C882   N926    1.447   .     S
C883   H911    1.111   .     S
C883   N927    1.446   .     S
C884   H916    1.112   .     S
C884   N928    1.446   .     S
C884   H445    1.111   1_556 S
C884   H446    1.109   1_556 S
C885   C887    1.406   .     A
C885   H894    1.083   .     S
C886   H895    1.081   .     S
C886   N923    1.364   .     A
C887   H896    1.081   .     S
C887   N924    1.364   .     A
C888   C890    1.414   .     A
C888   H897    1.081   .     S
C888   N923    1.365   .     A
C889   N924    1.365   .     A
C889   H898    1.081   .     S
C890   N927    1.424   .     S
Cu891  O936    1.958   .     S
Cu891  O933    1.955   .     S
Cu891  N924    2.005   .     S
Cu891  O929    1.963   .     S
Cu891  Cu892   2.669   .     S
Cu891  O932    1.958   .     S
Cu892  O935    1.958   .     S
Cu892  N923    2.005   .     S
Cu892  O930    1.963   .     S
Cu892  O931    1.958   .     S
Cu892  O934    1.955   .     S
H893   C709    1.087   1_655 S
H899   N925    1.032   .     S
H903   N926    1.032   .     S
H908   N927    1.032   .     S
H909   C415    1.111   1_556 S
H910   C415    1.109   1_556 S
H912   N928    1.032   .     S
