data_str_m2_o1_o2_pcu_sym.113
_audit_creation_date              2020-01-03
_audit_creation_method            'Materials Studio'
_symmetry_space_group_name_H-M    'P1'
_symmetry_Int_Tables_number       1
_symmetry_cell_setting            triclinic
loop_
_symmetry_equiv_pos_as_xyz
  x,y,z
_cell_length_a                    32.4781
_cell_length_b                    28.8471
_cell_length_c                    30.2494
_cell_angle_alpha                 90.9403
_cell_angle_beta                  91.7285
_cell_angle_gamma                 90.5153
loop_
_atom_site_label
_atom_site_type_symbol
_atom_site_fract_x
_atom_site_fract_y
_atom_site_fract_z
_atom_site_U_iso_or_equiv
_atom_site_adp_type
_atom_site_occupancy
C1     C     0.08745   0.16654   0.24985   0.00000  Uiso   1.00
C2     C     0.24588   0.16678   0.25000   0.00000  Uiso   1.00
C3     C     0.16643   0.16644   0.16511   0.00000  Uiso   1.00
C4     C     0.16652   0.16698   0.33501   0.00000  Uiso   1.00
C5     C     0.14243   0.02312   0.22020   0.00000  Uiso   1.00
C6     C     0.19151   0.31021   0.27932   0.00000  Uiso   1.00
C7     C     0.19153   0.02616   0.27891   0.00000  Uiso   1.00
C8     C     0.14184   0.30717   0.22108   0.00000  Uiso   1.00
C9     C     0.02095   0.12448   0.25036   0.00000  Uiso   1.00
C10    C     0.31239   0.20882   0.24899   0.00000  Uiso   1.00
C11    C     0.31169   0.12462   0.25043   0.00000  Uiso   1.00
C12    C     0.02164   0.20868   0.24898   0.00000  Uiso   1.00
C13    C     0.18657   0.20253   0.04917   0.00000  Uiso   1.00
C14    C     0.17101   0.12629   0.45246   0.00000  Uiso   1.00
C15    C     0.15999   0.20933   0.45300   0.00000  Uiso   1.00
C16    C     0.14405   0.13289   0.04637   0.00000  Uiso   1.00
C17    C     0.18691   0.20193   0.09514   0.00000  Uiso   1.00
C18    C     0.17119   0.12607   0.40656   0.00000  Uiso   1.00
C19    C     0.16026   0.20913   0.40700   0.00000  Uiso   1.00
C20    C     0.14452   0.13225   0.09231   0.00000  Uiso   1.00
C21    C     0.16624   0.16649   0.11690   0.00000  Uiso   1.00
C22    C     0.16606   0.16750   0.38344   0.00000  Uiso   1.00
C23    C     0.16527   0.16787   0.02449   0.00000  Uiso   1.00
C24    C     0.16542   0.16790   0.47600   0.00000  Uiso   1.00
C25    C     0.29055   0.16680   0.24983   0.00000  Uiso   1.00
C26    C     0.04278   0.16651   0.24972   0.00000  Uiso   1.00
Cu27   Cu    0.16667   0.21355   0.25000   0.00000  Uiso   1.00
Cu28   Cu    0.16667   0.11978   0.25000   0.00000  Uiso   1.00
H29    H     0.20344   0.22961   0.03292   0.00000  Uiso   1.00
H30    H     0.17571   0.09400   0.46960   0.00000  Uiso   1.00
H31    H     0.15498   0.24171   0.47057   0.00000  Uiso   1.00
H32    H     0.12661   0.10644   0.02792   0.00000  Uiso   1.00
H33    H     0.20373   0.22880   0.11370   0.00000  Uiso   1.00
H34    H     0.17550   0.09343   0.38930   0.00000  Uiso   1.00
H35    H     0.15548   0.24145   0.39001   0.00000  Uiso   1.00
H36    H     0.12693   0.10586   0.10842   0.00000  Uiso   1.00
H37    H     0.03667   0.09152   0.25089   0.00000  Uiso   1.00
H38    H     0.29669   0.24178   0.24829   0.00000  Uiso   1.00
H39    H     0.29544   0.09170   0.25095   0.00000  Uiso   1.00
H40    H     0.03790   0.24160   0.24840   0.00000  Uiso   1.00
N41    N     0.16667   0.28402   0.25000   0.00000  Uiso   1.00
N42    N     0.16667   0.04931   0.25000   0.00000  Uiso   1.00
O43    O     0.10655   0.20625   0.24999   0.00000  Uiso   1.00
O44    O     0.22679   0.12709   0.25000   0.00000  Uiso   1.00
O45    O     0.22679   0.20625   0.25000   0.00000  Uiso   1.00
O46    O     0.10655   0.12709   0.24999   0.00000  Uiso   1.00
O47    O     0.16666   0.20626   0.18573   0.00000  Uiso   1.00
O48    O     0.16667   0.12707   0.31427   0.00000  Uiso   1.00
O49    O     0.16667   0.20626   0.31427   0.00000  Uiso   1.00
O50    O     0.16666   0.12707   0.18573   0.00000  Uiso   1.00
N51    N     0.11969   0.04383   0.18466   0.00000  Uiso   1.00
H52    H     0.10161   0.07089   0.19562   0.00000  Uiso   1.00
H53    H     0.14049   0.05437   0.16124   0.00000  Uiso   1.00
N54    N     0.21769   0.28940   0.31216   0.00000  Uiso   1.00
H55    H     0.20029   0.27391   0.33623   0.00000  Uiso   1.00
H56    H     0.23874   0.26712   0.29817   0.00000  Uiso   1.00
N57    N     0.21841   0.05209   0.30863   0.00000  Uiso   1.00
H58    H     0.24874   0.04269   0.30244   0.00000  Uiso   1.00
H59    H     0.21205   0.04272   0.34096   0.00000  Uiso   1.00
N60    N     0.11552   0.28123   0.19079   0.00000  Uiso   1.00
H61    H     0.12355   0.28918   0.15855   0.00000  Uiso   1.00
H62    H     0.08516   0.29167   0.19526   0.00000  Uiso   1.00
C63    C     0.42078   0.16654   0.24985   0.00000  Uiso   1.00
C64    C     0.57922   0.16678   0.25000   0.00000  Uiso   1.00
C65    C     0.49977   0.16644   0.16511   0.00000  Uiso   1.00
C66    C     0.49985   0.16698   0.33501   0.00000  Uiso   1.00
C67    C     0.47576   0.02312   0.22020   0.00000  Uiso   1.00
C68    C     0.52484   0.31021   0.27932   0.00000  Uiso   1.00
C69    C     0.52486   0.02616   0.27891   0.00000  Uiso   1.00
C70    C     0.47518   0.30717   0.22108   0.00000  Uiso   1.00
C71    C     0.35429   0.12448   0.25036   0.00000  Uiso   1.00
C72    C     0.64572   0.20882   0.24899   0.00000  Uiso   1.00
C73    C     0.64503   0.12462   0.25043   0.00000  Uiso   1.00
C74    C     0.35498   0.20868   0.24898   0.00000  Uiso   1.00
C75    C     0.51991   0.20253   0.04917   0.00000  Uiso   1.00
C76    C     0.50434   0.12629   0.45246   0.00000  Uiso   1.00
C77    C     0.49332   0.20933   0.45300   0.00000  Uiso   1.00
C78    C     0.47738   0.13289   0.04637   0.00000  Uiso   1.00
C79    C     0.52024   0.20193   0.09514   0.00000  Uiso   1.00
C80    C     0.50452   0.12607   0.40656   0.00000  Uiso   1.00
C81    C     0.49359   0.20913   0.40700   0.00000  Uiso   1.00
C82    C     0.47785   0.13225   0.09231   0.00000  Uiso   1.00
C83    C     0.49958   0.16649   0.11690   0.00000  Uiso   1.00
C84    C     0.49939   0.16750   0.38344   0.00000  Uiso   1.00
C85    C     0.49860   0.16787   0.02449   0.00000  Uiso   1.00
C86    C     0.49876   0.16790   0.47600   0.00000  Uiso   1.00
C87    C     0.62389   0.16680   0.24983   0.00000  Uiso   1.00
C88    C     0.37612   0.16651   0.24972   0.00000  Uiso   1.00
Cu89   Cu    0.50000   0.21355   0.25000   0.00000  Uiso   1.00
Cu90   Cu    0.50000   0.11978   0.25000   0.00000  Uiso   1.00
H91    H     0.53678   0.22961   0.03292   0.00000  Uiso   1.00
H92    H     0.50905   0.09400   0.46960   0.00000  Uiso   1.00
H93    H     0.48832   0.24171   0.47057   0.00000  Uiso   1.00
H94    H     0.45995   0.10644   0.02792   0.00000  Uiso   1.00
H95    H     0.53706   0.22880   0.11370   0.00000  Uiso   1.00
H96    H     0.50883   0.09343   0.38930   0.00000  Uiso   1.00
H97    H     0.48882   0.24145   0.39001   0.00000  Uiso   1.00
H98    H     0.46027   0.10586   0.10842   0.00000  Uiso   1.00
H99    H     0.37001   0.09152   0.25089   0.00000  Uiso   1.00
H100   H     0.63003   0.24178   0.24829   0.00000  Uiso   1.00
H101   H     0.62877   0.09170   0.25095   0.00000  Uiso   1.00
H102   H     0.37124   0.24160   0.24840   0.00000  Uiso   1.00
N103   N     0.50000   0.28402   0.25000   0.00000  Uiso   1.00
N104   N     0.50000   0.04931   0.25000   0.00000  Uiso   1.00
O105   O     0.43988   0.20625   0.24999   0.00000  Uiso   1.00
O106   O     0.56012   0.12709   0.25000   0.00000  Uiso   1.00
O107   O     0.56012   0.20625   0.25000   0.00000  Uiso   1.00
O108   O     0.43988   0.12709   0.24999   0.00000  Uiso   1.00
O109   O     0.50000   0.20626   0.18573   0.00000  Uiso   1.00
O110   O     0.50000   0.12707   0.31427   0.00000  Uiso   1.00
O111   O     0.50000   0.20626   0.31427   0.00000  Uiso   1.00
O112   O     0.50000   0.12707   0.18573   0.00000  Uiso   1.00
N113   N     0.45303   0.04383   0.18466   0.00000  Uiso   1.00
H114   H     0.43495   0.07089   0.19562   0.00000  Uiso   1.00
H115   H     0.47382   0.05437   0.16124   0.00000  Uiso   1.00
N116   N     0.55102   0.28940   0.31216   0.00000  Uiso   1.00
H117   H     0.53362   0.27391   0.33623   0.00000  Uiso   1.00
H118   H     0.57208   0.26712   0.29817   0.00000  Uiso   1.00
N119   N     0.55174   0.05209   0.30863   0.00000  Uiso   1.00
H120   H     0.58207   0.04269   0.30244   0.00000  Uiso   1.00
H121   H     0.54538   0.04272   0.34096   0.00000  Uiso   1.00
N122   N     0.44885   0.28123   0.19079   0.00000  Uiso   1.00
H123   H     0.45688   0.28918   0.15855   0.00000  Uiso   1.00
H124   H     0.41849   0.29167   0.19526   0.00000  Uiso   1.00
C125   C     0.75412   0.16654   0.24985   0.00000  Uiso   1.00
C126   C     0.91255   0.16678   0.25000   0.00000  Uiso   1.00
C127   C     0.83310   0.16644   0.16511   0.00000  Uiso   1.00
C128   C     0.83319   0.16698   0.33501   0.00000  Uiso   1.00
C129   C     0.80910   0.02312   0.22020   0.00000  Uiso   1.00
C130   C     0.85818   0.31021   0.27932   0.00000  Uiso   1.00
C131   C     0.85819   0.02616   0.27891   0.00000  Uiso   1.00
C132   C     0.80851   0.30717   0.22108   0.00000  Uiso   1.00
C133   C     0.68762   0.12448   0.25036   0.00000  Uiso   1.00
C134   C     0.97905   0.20882   0.24899   0.00000  Uiso   1.00
C135   C     0.97836   0.12462   0.25043   0.00000  Uiso   1.00
C136   C     0.68831   0.20868   0.24898   0.00000  Uiso   1.00
C137   C     0.85324   0.20253   0.04917   0.00000  Uiso   1.00
C138   C     0.83768   0.12629   0.45246   0.00000  Uiso   1.00
C139   C     0.82666   0.20933   0.45300   0.00000  Uiso   1.00
C140   C     0.81072   0.13289   0.04637   0.00000  Uiso   1.00
C141   C     0.85357   0.20193   0.09514   0.00000  Uiso   1.00
C142   C     0.83785   0.12607   0.40656   0.00000  Uiso   1.00
C143   C     0.82693   0.20913   0.40700   0.00000  Uiso   1.00
C144   C     0.81119   0.13225   0.09231   0.00000  Uiso   1.00
C145   C     0.83291   0.16649   0.11690   0.00000  Uiso   1.00
C146   C     0.83273   0.16750   0.38344   0.00000  Uiso   1.00
C147   C     0.83194   0.16787   0.02449   0.00000  Uiso   1.00
C148   C     0.83209   0.16790   0.47600   0.00000  Uiso   1.00
C149   C     0.95722   0.16680   0.24983   0.00000  Uiso   1.00
C150   C     0.70945   0.16651   0.24972   0.00000  Uiso   1.00
Cu151  Cu    0.83333   0.21355   0.25000   0.00000  Uiso   1.00
Cu152  Cu    0.83333   0.11978   0.25000   0.00000  Uiso   1.00
H153   H     0.87011   0.22961   0.03292   0.00000  Uiso   1.00
H154   H     0.84238   0.09400   0.46960   0.00000  Uiso   1.00
H155   H     0.82165   0.24171   0.47057   0.00000  Uiso   1.00
H156   H     0.79328   0.10644   0.02792   0.00000  Uiso   1.00
H157   H     0.87039   0.22880   0.11370   0.00000  Uiso   1.00
H158   H     0.84217   0.09343   0.38930   0.00000  Uiso   1.00
H159   H     0.82215   0.24145   0.39001   0.00000  Uiso   1.00
H160   H     0.79360   0.10586   0.10842   0.00000  Uiso   1.00
H161   H     0.70334   0.09152   0.25089   0.00000  Uiso   1.00
H162   H     0.96336   0.24178   0.24829   0.00000  Uiso   1.00
H163   H     0.96210   0.09170   0.25095   0.00000  Uiso   1.00
H164   H     0.70457   0.24160   0.24840   0.00000  Uiso   1.00
N165   N     0.83333   0.28402   0.25000   0.00000  Uiso   1.00
N166   N     0.83333   0.04931   0.25000   0.00000  Uiso   1.00
O167   O     0.77321   0.20625   0.24999   0.00000  Uiso   1.00
O168   O     0.89345   0.12709   0.25000   0.00000  Uiso   1.00
O169   O     0.89345   0.20625   0.25000   0.00000  Uiso   1.00
O170   O     0.77321   0.12709   0.24999   0.00000  Uiso   1.00
O171   O     0.83333   0.20626   0.18573   0.00000  Uiso   1.00
O172   O     0.83334   0.12707   0.31427   0.00000  Uiso   1.00
O173   O     0.83334   0.20626   0.31427   0.00000  Uiso   1.00
O174   O     0.83333   0.12707   0.18573   0.00000  Uiso   1.00
N175   N     0.78636   0.04383   0.18466   0.00000  Uiso   1.00
H176   H     0.76828   0.07089   0.19562   0.00000  Uiso   1.00
H177   H     0.80716   0.05437   0.16124   0.00000  Uiso   1.00
N178   N     0.88435   0.28940   0.31216   0.00000  Uiso   1.00
H179   H     0.86695   0.27391   0.33623   0.00000  Uiso   1.00
H180   H     0.90541   0.26712   0.29817   0.00000  Uiso   1.00
N181   N     0.88508   0.05209   0.30863   0.00000  Uiso   1.00
H182   H     0.91541   0.04269   0.30244   0.00000  Uiso   1.00
H183   H     0.87872   0.04272   0.34096   0.00000  Uiso   1.00
N184   N     0.78218   0.28123   0.19079   0.00000  Uiso   1.00
H185   H     0.79021   0.28918   0.15855   0.00000  Uiso   1.00
H186   H     0.75183   0.29167   0.19526   0.00000  Uiso   1.00
C187   C     0.08745   0.49988   0.24985   0.00000  Uiso   1.00
C188   C     0.24588   0.50012   0.25000   0.00000  Uiso   1.00
C189   C     0.16643   0.49978   0.16511   0.00000  Uiso   1.00
C190   C     0.16652   0.50031   0.33501   0.00000  Uiso   1.00
C191   C     0.14243   0.35645   0.22020   0.00000  Uiso   1.00
C192   C     0.19151   0.64354   0.27932   0.00000  Uiso   1.00
C193   C     0.19153   0.35950   0.27891   0.00000  Uiso   1.00
C194   C     0.14184   0.64051   0.22108   0.00000  Uiso   1.00
C195   C     0.02095   0.45781   0.25036   0.00000  Uiso   1.00
C196   C     0.31239   0.54216   0.24899   0.00000  Uiso   1.00
C197   C     0.31169   0.45795   0.25043   0.00000  Uiso   1.00
C198   C     0.02164   0.54202   0.24898   0.00000  Uiso   1.00
C199   C     0.18657   0.53586   0.04917   0.00000  Uiso   1.00
C200   C     0.17101   0.45962   0.45246   0.00000  Uiso   1.00
C201   C     0.15999   0.54266   0.45300   0.00000  Uiso   1.00
C202   C     0.14405   0.46622   0.04637   0.00000  Uiso   1.00
C203   C     0.18691   0.53527   0.09514   0.00000  Uiso   1.00
C204   C     0.17119   0.45940   0.40656   0.00000  Uiso   1.00
C205   C     0.16026   0.54247   0.40700   0.00000  Uiso   1.00
C206   C     0.14452   0.46559   0.09231   0.00000  Uiso   1.00
C207   C     0.16624   0.49983   0.11690   0.00000  Uiso   1.00
C208   C     0.16606   0.50083   0.38344   0.00000  Uiso   1.00
C209   C     0.16527   0.50121   0.02449   0.00000  Uiso   1.00
C210   C     0.16542   0.50123   0.47600   0.00000  Uiso   1.00
C211   C     0.29055   0.50014   0.24983   0.00000  Uiso   1.00
C212   C     0.04278   0.49984   0.24972   0.00000  Uiso   1.00
Cu213  Cu    0.16667   0.54689   0.25000   0.00000  Uiso   1.00
Cu214  Cu    0.16667   0.45311   0.25000   0.00000  Uiso   1.00
H215   H     0.20344   0.56294   0.03292   0.00000  Uiso   1.00
H216   H     0.17571   0.42733   0.46960   0.00000  Uiso   1.00
H217   H     0.15498   0.57504   0.47057   0.00000  Uiso   1.00
H218   H     0.12661   0.43978   0.02792   0.00000  Uiso   1.00
H219   H     0.20373   0.56213   0.11370   0.00000  Uiso   1.00
H220   H     0.17550   0.42677   0.38930   0.00000  Uiso   1.00
H221   H     0.15548   0.57478   0.39001   0.00000  Uiso   1.00
H222   H     0.12693   0.43919   0.10842   0.00000  Uiso   1.00
H223   H     0.03667   0.42485   0.25089   0.00000  Uiso   1.00
H224   H     0.29669   0.57511   0.24829   0.00000  Uiso   1.00
H225   H     0.29544   0.42504   0.25095   0.00000  Uiso   1.00
H226   H     0.03790   0.57494   0.24840   0.00000  Uiso   1.00
N227   N     0.16667   0.61736   0.25000   0.00000  Uiso   1.00
N228   N     0.16667   0.38264   0.25000   0.00000  Uiso   1.00
O229   O     0.10655   0.53958   0.24999   0.00000  Uiso   1.00
O230   O     0.22679   0.46042   0.25000   0.00000  Uiso   1.00
O231   O     0.22679   0.53958   0.25000   0.00000  Uiso   1.00
O232   O     0.10655   0.46042   0.24999   0.00000  Uiso   1.00
O233   O     0.16666   0.53959   0.18573   0.00000  Uiso   1.00
O234   O     0.16667   0.46041   0.31427   0.00000  Uiso   1.00
O235   O     0.16667   0.53959   0.31427   0.00000  Uiso   1.00
O236   O     0.16666   0.46041   0.18573   0.00000  Uiso   1.00
N237   N     0.11969   0.37717   0.18466   0.00000  Uiso   1.00
H238   H     0.10161   0.40422   0.19562   0.00000  Uiso   1.00
H239   H     0.14049   0.38771   0.16124   0.00000  Uiso   1.00
N240   N     0.21769   0.62273   0.31216   0.00000  Uiso   1.00
H241   H     0.20029   0.60724   0.33623   0.00000  Uiso   1.00
H242   H     0.23874   0.60045   0.29817   0.00000  Uiso   1.00
N243   N     0.21841   0.38542   0.30863   0.00000  Uiso   1.00
H244   H     0.24874   0.37602   0.30244   0.00000  Uiso   1.00
H245   H     0.21205   0.37606   0.34096   0.00000  Uiso   1.00
N246   N     0.11552   0.61456   0.19079   0.00000  Uiso   1.00
H247   H     0.12355   0.62252   0.15855   0.00000  Uiso   1.00
H248   H     0.08516   0.62500   0.19526   0.00000  Uiso   1.00
C249   C     0.42078   0.49988   0.24985   0.00000  Uiso   1.00
C250   C     0.57922   0.50012   0.25000   0.00000  Uiso   1.00
C251   C     0.49977   0.49978   0.16511   0.00000  Uiso   1.00
C252   C     0.49985   0.50031   0.33501   0.00000  Uiso   1.00
C253   C     0.47576   0.35645   0.22020   0.00000  Uiso   1.00
C254   C     0.52484   0.64354   0.27932   0.00000  Uiso   1.00
C255   C     0.52486   0.35950   0.27891   0.00000  Uiso   1.00
C256   C     0.47518   0.64051   0.22108   0.00000  Uiso   1.00
C257   C     0.35429   0.45781   0.25036   0.00000  Uiso   1.00
C258   C     0.64572   0.54216   0.24899   0.00000  Uiso   1.00
C259   C     0.64503   0.45795   0.25043   0.00000  Uiso   1.00
C260   C     0.35498   0.54202   0.24898   0.00000  Uiso   1.00
C261   C     0.51991   0.53586   0.04917   0.00000  Uiso   1.00
C262   C     0.50434   0.45962   0.45246   0.00000  Uiso   1.00
C263   C     0.49332   0.54266   0.45300   0.00000  Uiso   1.00
C264   C     0.47738   0.46622   0.04637   0.00000  Uiso   1.00
C265   C     0.52024   0.53527   0.09514   0.00000  Uiso   1.00
C266   C     0.50452   0.45940   0.40656   0.00000  Uiso   1.00
C267   C     0.49359   0.54247   0.40700   0.00000  Uiso   1.00
C268   C     0.47785   0.46559   0.09231   0.00000  Uiso   1.00
C269   C     0.49958   0.49983   0.11690   0.00000  Uiso   1.00
C270   C     0.49939   0.50083   0.38344   0.00000  Uiso   1.00
C271   C     0.49860   0.50121   0.02449   0.00000  Uiso   1.00
C272   C     0.49876   0.50123   0.47600   0.00000  Uiso   1.00
C273   C     0.62389   0.50014   0.24983   0.00000  Uiso   1.00
C274   C     0.37612   0.49984   0.24972   0.00000  Uiso   1.00
Cu275  Cu    0.50000   0.54689   0.25000   0.00000  Uiso   1.00
Cu276  Cu    0.50000   0.45311   0.25000   0.00000  Uiso   1.00
H277   H     0.53678   0.56294   0.03292   0.00000  Uiso   1.00
H278   H     0.50905   0.42733   0.46960   0.00000  Uiso   1.00
H279   H     0.48832   0.57504   0.47057   0.00000  Uiso   1.00
H280   H     0.45995   0.43978   0.02792   0.00000  Uiso   1.00
H281   H     0.53706   0.56213   0.11370   0.00000  Uiso   1.00
H282   H     0.50883   0.42677   0.38930   0.00000  Uiso   1.00
H283   H     0.48882   0.57478   0.39001   0.00000  Uiso   1.00
H284   H     0.46027   0.43919   0.10842   0.00000  Uiso   1.00
H285   H     0.37001   0.42485   0.25089   0.00000  Uiso   1.00
H286   H     0.63003   0.57511   0.24829   0.00000  Uiso   1.00
H287   H     0.62877   0.42504   0.25095   0.00000  Uiso   1.00
H288   H     0.37124   0.57494   0.24840   0.00000  Uiso   1.00
N289   N     0.50000   0.61736   0.25000   0.00000  Uiso   1.00
N290   N     0.50000   0.38264   0.25000   0.00000  Uiso   1.00
O291   O     0.43988   0.53958   0.24999   0.00000  Uiso   1.00
O292   O     0.56012   0.46042   0.25000   0.00000  Uiso   1.00
O293   O     0.56012   0.53958   0.25000   0.00000  Uiso   1.00
O294   O     0.43988   0.46042   0.24999   0.00000  Uiso   1.00
O295   O     0.50000   0.53959   0.18573   0.00000  Uiso   1.00
O296   O     0.50000   0.46041   0.31427   0.00000  Uiso   1.00
O297   O     0.50000   0.53959   0.31427   0.00000  Uiso   1.00
O298   O     0.50000   0.46041   0.18573   0.00000  Uiso   1.00
N299   N     0.45303   0.37717   0.18466   0.00000  Uiso   1.00
H300   H     0.43495   0.40422   0.19562   0.00000  Uiso   1.00
H301   H     0.47382   0.38771   0.16124   0.00000  Uiso   1.00
N302   N     0.55102   0.62273   0.31216   0.00000  Uiso   1.00
H303   H     0.53362   0.60724   0.33623   0.00000  Uiso   1.00
H304   H     0.57208   0.60045   0.29817   0.00000  Uiso   1.00
N305   N     0.55174   0.38542   0.30863   0.00000  Uiso   1.00
H306   H     0.58207   0.37602   0.30244   0.00000  Uiso   1.00
H307   H     0.54538   0.37606   0.34096   0.00000  Uiso   1.00
N308   N     0.44885   0.61456   0.19079   0.00000  Uiso   1.00
H309   H     0.45688   0.62252   0.15855   0.00000  Uiso   1.00
H310   H     0.41849   0.62500   0.19526   0.00000  Uiso   1.00
C311   C     0.75412   0.49988   0.24985   0.00000  Uiso   1.00
C312   C     0.91255   0.50012   0.25000   0.00000  Uiso   1.00
C313   C     0.83310   0.49978   0.16511   0.00000  Uiso   1.00
C314   C     0.83319   0.50031   0.33501   0.00000  Uiso   1.00
C315   C     0.80910   0.35645   0.22020   0.00000  Uiso   1.00
C316   C     0.85818   0.64354   0.27932   0.00000  Uiso   1.00
C317   C     0.85819   0.35950   0.27891   0.00000  Uiso   1.00
C318   C     0.80851   0.64051   0.22108   0.00000  Uiso   1.00
C319   C     0.68762   0.45781   0.25036   0.00000  Uiso   1.00
C320   C     0.97905   0.54216   0.24899   0.00000  Uiso   1.00
C321   C     0.97836   0.45795   0.25043   0.00000  Uiso   1.00
C322   C     0.68831   0.54202   0.24898   0.00000  Uiso   1.00
C323   C     0.85324   0.53586   0.04917   0.00000  Uiso   1.00
C324   C     0.83768   0.45962   0.45246   0.00000  Uiso   1.00
C325   C     0.82666   0.54266   0.45300   0.00000  Uiso   1.00
C326   C     0.81072   0.46622   0.04637   0.00000  Uiso   1.00
C327   C     0.85357   0.53527   0.09514   0.00000  Uiso   1.00
C328   C     0.83785   0.45940   0.40656   0.00000  Uiso   1.00
C329   C     0.82693   0.54247   0.40700   0.00000  Uiso   1.00
C330   C     0.81119   0.46559   0.09231   0.00000  Uiso   1.00
C331   C     0.83291   0.49983   0.11690   0.00000  Uiso   1.00
C332   C     0.83273   0.50083   0.38344   0.00000  Uiso   1.00
C333   C     0.83194   0.50121   0.02449   0.00000  Uiso   1.00
C334   C     0.83209   0.50123   0.47600   0.00000  Uiso   1.00
C335   C     0.95722   0.50014   0.24983   0.00000  Uiso   1.00
C336   C     0.70945   0.49984   0.24972   0.00000  Uiso   1.00
Cu337  Cu    0.83333   0.54689   0.25000   0.00000  Uiso   1.00
Cu338  Cu    0.83333   0.45311   0.25000   0.00000  Uiso   1.00
H339   H     0.87011   0.56294   0.03292   0.00000  Uiso   1.00
H340   H     0.84238   0.42733   0.46960   0.00000  Uiso   1.00
H341   H     0.82165   0.57504   0.47057   0.00000  Uiso   1.00
H342   H     0.79328   0.43978   0.02792   0.00000  Uiso   1.00
H343   H     0.87039   0.56213   0.11370   0.00000  Uiso   1.00
H344   H     0.84217   0.42677   0.38930   0.00000  Uiso   1.00
H345   H     0.82215   0.57478   0.39001   0.00000  Uiso   1.00
H346   H     0.79360   0.43919   0.10842   0.00000  Uiso   1.00
H347   H     0.70334   0.42485   0.25089   0.00000  Uiso   1.00
H348   H     0.96336   0.57511   0.24829   0.00000  Uiso   1.00
H349   H     0.96210   0.42504   0.25095   0.00000  Uiso   1.00
H350   H     0.70457   0.57494   0.24840   0.00000  Uiso   1.00
N351   N     0.83333   0.61736   0.25000   0.00000  Uiso   1.00
N352   N     0.83333   0.38264   0.25000   0.00000  Uiso   1.00
O353   O     0.77321   0.53958   0.24999   0.00000  Uiso   1.00
O354   O     0.89345   0.46042   0.25000   0.00000  Uiso   1.00
O355   O     0.89345   0.53958   0.25000   0.00000  Uiso   1.00
O356   O     0.77321   0.46042   0.24999   0.00000  Uiso   1.00
O357   O     0.83333   0.53959   0.18573   0.00000  Uiso   1.00
O358   O     0.83334   0.46041   0.31427   0.00000  Uiso   1.00
O359   O     0.83334   0.53959   0.31427   0.00000  Uiso   1.00
O360   O     0.83333   0.46041   0.18573   0.00000  Uiso   1.00
N361   N     0.78636   0.37717   0.18466   0.00000  Uiso   1.00
H362   H     0.76828   0.40422   0.19562   0.00000  Uiso   1.00
H363   H     0.80716   0.38771   0.16124   0.00000  Uiso   1.00
N364   N     0.88435   0.62273   0.31216   0.00000  Uiso   1.00
H365   H     0.86695   0.60724   0.33623   0.00000  Uiso   1.00
H366   H     0.90541   0.60045   0.29817   0.00000  Uiso   1.00
N367   N     0.88508   0.38542   0.30863   0.00000  Uiso   1.00
H368   H     0.91541   0.37602   0.30244   0.00000  Uiso   1.00
H369   H     0.87872   0.37606   0.34096   0.00000  Uiso   1.00
N370   N     0.78218   0.61456   0.19079   0.00000  Uiso   1.00
H371   H     0.79021   0.62252   0.15855   0.00000  Uiso   1.00
H372   H     0.75183   0.62500   0.19526   0.00000  Uiso   1.00
C373   C     0.08745   0.83321   0.24985   0.00000  Uiso   1.00
C374   C     0.24588   0.83345   0.25000   0.00000  Uiso   1.00
C375   C     0.16643   0.83311   0.16511   0.00000  Uiso   1.00
C376   C     0.16652   0.83364   0.33501   0.00000  Uiso   1.00
C377   C     0.14243   0.68978   0.22020   0.00000  Uiso   1.00
C378   C     0.19151   0.97687   0.27932   0.00000  Uiso   1.00
C379   C     0.19153   0.69283   0.27891   0.00000  Uiso   1.00
C380   C     0.14184   0.97384   0.22108   0.00000  Uiso   1.00
C381   C     0.02095   0.79114   0.25036   0.00000  Uiso   1.00
C382   C     0.31239   0.87549   0.24899   0.00000  Uiso   1.00
C383   C     0.31169   0.79129   0.25043   0.00000  Uiso   1.00
C384   C     0.02164   0.87535   0.24898   0.00000  Uiso   1.00
C385   C     0.18657   0.86919   0.04917   0.00000  Uiso   1.00
C386   C     0.17101   0.79296   0.45246   0.00000  Uiso   1.00
C387   C     0.15999   0.87600   0.45300   0.00000  Uiso   1.00
C388   C     0.14405   0.79955   0.04637   0.00000  Uiso   1.00
C389   C     0.18691   0.86860   0.09514   0.00000  Uiso   1.00
C390   C     0.17119   0.79273   0.40656   0.00000  Uiso   1.00
C391   C     0.16026   0.87580   0.40700   0.00000  Uiso   1.00
C392   C     0.14452   0.79892   0.09231   0.00000  Uiso   1.00
C393   C     0.16624   0.83316   0.11690   0.00000  Uiso   1.00
C394   C     0.16606   0.83416   0.38344   0.00000  Uiso   1.00
C395   C     0.16527   0.83454   0.02449   0.00000  Uiso   1.00
C396   C     0.16542   0.83456   0.47600   0.00000  Uiso   1.00
C397   C     0.29055   0.83347   0.24983   0.00000  Uiso   1.00
C398   C     0.04278   0.83318   0.24972   0.00000  Uiso   1.00
Cu399  Cu    0.16667   0.88022   0.25000   0.00000  Uiso   1.00
Cu400  Cu    0.16667   0.78645   0.25000   0.00000  Uiso   1.00
H401   H     0.20344   0.89627   0.03292   0.00000  Uiso   1.00
H402   H     0.17571   0.76067   0.46960   0.00000  Uiso   1.00
H403   H     0.15498   0.90838   0.47057   0.00000  Uiso   1.00
H404   H     0.12661   0.77311   0.02792   0.00000  Uiso   1.00
H405   H     0.20373   0.89547   0.11370   0.00000  Uiso   1.00
H406   H     0.17550   0.76010   0.38930   0.00000  Uiso   1.00
H407   H     0.15548   0.90811   0.39001   0.00000  Uiso   1.00
H408   H     0.12693   0.77252   0.10842   0.00000  Uiso   1.00
H409   H     0.03667   0.75819   0.25089   0.00000  Uiso   1.00
H410   H     0.29669   0.90844   0.24829   0.00000  Uiso   1.00
H411   H     0.29544   0.75837   0.25095   0.00000  Uiso   1.00
H412   H     0.03790   0.90827   0.24840   0.00000  Uiso   1.00
N413   N     0.16667   0.95069   0.25000   0.00000  Uiso   1.00
N414   N     0.16667   0.71598   0.25000   0.00000  Uiso   1.00
O415   O     0.10655   0.87291   0.24999   0.00000  Uiso   1.00
O416   O     0.22679   0.79375   0.25000   0.00000  Uiso   1.00
O417   O     0.22679   0.87291   0.25000   0.00000  Uiso   1.00
O418   O     0.10655   0.79375   0.24999   0.00000  Uiso   1.00
O419   O     0.16666   0.87293   0.18573   0.00000  Uiso   1.00
O420   O     0.16667   0.79374   0.31427   0.00000  Uiso   1.00
O421   O     0.16667   0.87293   0.31427   0.00000  Uiso   1.00
O422   O     0.16666   0.79374   0.18573   0.00000  Uiso   1.00
N423   N     0.11969   0.71050   0.18466   0.00000  Uiso   1.00
H424   H     0.10161   0.73756   0.19562   0.00000  Uiso   1.00
H425   H     0.14049   0.72104   0.16124   0.00000  Uiso   1.00
N426   N     0.21769   0.95606   0.31216   0.00000  Uiso   1.00
H427   H     0.20029   0.94058   0.33623   0.00000  Uiso   1.00
H428   H     0.23874   0.93379   0.29817   0.00000  Uiso   1.00
N429   N     0.21841   0.71875   0.30863   0.00000  Uiso   1.00
H430   H     0.24874   0.70936   0.30244   0.00000  Uiso   1.00
H431   H     0.21205   0.70939   0.34096   0.00000  Uiso   1.00
N432   N     0.11552   0.94789   0.19079   0.00000  Uiso   1.00
H433   H     0.12355   0.95585   0.15855   0.00000  Uiso   1.00
H434   H     0.08516   0.95833   0.19526   0.00000  Uiso   1.00
C435   C     0.42078   0.83321   0.24985   0.00000  Uiso   1.00
C436   C     0.57922   0.83345   0.25000   0.00000  Uiso   1.00
C437   C     0.49977   0.83311   0.16511   0.00000  Uiso   1.00
C438   C     0.49985   0.83364   0.33501   0.00000  Uiso   1.00
C439   C     0.47576   0.68978   0.22020   0.00000  Uiso   1.00
C440   C     0.52484   0.97687   0.27932   0.00000  Uiso   1.00
C441   C     0.52486   0.69283   0.27891   0.00000  Uiso   1.00
C442   C     0.47518   0.97384   0.22108   0.00000  Uiso   1.00
C443   C     0.35429   0.79114   0.25036   0.00000  Uiso   1.00
C444   C     0.64572   0.87549   0.24899   0.00000  Uiso   1.00
C445   C     0.64503   0.79129   0.25043   0.00000  Uiso   1.00
C446   C     0.35498   0.87535   0.24898   0.00000  Uiso   1.00
C447   C     0.51991   0.86919   0.04917   0.00000  Uiso   1.00
C448   C     0.50434   0.79296   0.45246   0.00000  Uiso   1.00
C449   C     0.49332   0.87600   0.45300   0.00000  Uiso   1.00
C450   C     0.47738   0.79955   0.04637   0.00000  Uiso   1.00
C451   C     0.52024   0.86860   0.09514   0.00000  Uiso   1.00
C452   C     0.50452   0.79273   0.40656   0.00000  Uiso   1.00
C453   C     0.49359   0.87580   0.40700   0.00000  Uiso   1.00
C454   C     0.47785   0.79892   0.09231   0.00000  Uiso   1.00
C455   C     0.49958   0.83316   0.11690   0.00000  Uiso   1.00
C456   C     0.49939   0.83416   0.38344   0.00000  Uiso   1.00
C457   C     0.49860   0.83454   0.02449   0.00000  Uiso   1.00
C458   C     0.49876   0.83456   0.47600   0.00000  Uiso   1.00
C459   C     0.62389   0.83347   0.24983   0.00000  Uiso   1.00
C460   C     0.37612   0.83318   0.24972   0.00000  Uiso   1.00
Cu461  Cu    0.50000   0.88022   0.25000   0.00000  Uiso   1.00
Cu462  Cu    0.50000   0.78645   0.25000   0.00000  Uiso   1.00
H463   H     0.53678   0.89627   0.03292   0.00000  Uiso   1.00
H464   H     0.50905   0.76067   0.46960   0.00000  Uiso   1.00
H465   H     0.48832   0.90838   0.47057   0.00000  Uiso   1.00
H466   H     0.45995   0.77311   0.02792   0.00000  Uiso   1.00
H467   H     0.53706   0.89547   0.11370   0.00000  Uiso   1.00
H468   H     0.50883   0.76010   0.38930   0.00000  Uiso   1.00
H469   H     0.48882   0.90811   0.39001   0.00000  Uiso   1.00
H470   H     0.46027   0.77252   0.10842   0.00000  Uiso   1.00
H471   H     0.37001   0.75819   0.25089   0.00000  Uiso   1.00
H472   H     0.63003   0.90844   0.24829   0.00000  Uiso   1.00
H473   H     0.62877   0.75837   0.25095   0.00000  Uiso   1.00
H474   H     0.37124   0.90827   0.24840   0.00000  Uiso   1.00
N475   N     0.50000   0.95069   0.25000   0.00000  Uiso   1.00
N476   N     0.50000   0.71598   0.25000   0.00000  Uiso   1.00
O477   O     0.43988   0.87291   0.24999   0.00000  Uiso   1.00
O478   O     0.56012   0.79375   0.25000   0.00000  Uiso   1.00
O479   O     0.56012   0.87291   0.25000   0.00000  Uiso   1.00
O480   O     0.43988   0.79375   0.24999   0.00000  Uiso   1.00
O481   O     0.50000   0.87293   0.18573   0.00000  Uiso   1.00
O482   O     0.50000   0.79374   0.31427   0.00000  Uiso   1.00
O483   O     0.50000   0.87293   0.31427   0.00000  Uiso   1.00
O484   O     0.50000   0.79374   0.18573   0.00000  Uiso   1.00
N485   N     0.45303   0.71050   0.18466   0.00000  Uiso   1.00
H486   H     0.43495   0.73756   0.19562   0.00000  Uiso   1.00
H487   H     0.47382   0.72104   0.16124   0.00000  Uiso   1.00
N488   N     0.55102   0.95606   0.31216   0.00000  Uiso   1.00
H489   H     0.53362   0.94058   0.33623   0.00000  Uiso   1.00
H490   H     0.57208   0.93379   0.29817   0.00000  Uiso   1.00
N491   N     0.55174   0.71875   0.30863   0.00000  Uiso   1.00
H492   H     0.58207   0.70936   0.30244   0.00000  Uiso   1.00
H493   H     0.54538   0.70939   0.34096   0.00000  Uiso   1.00
N494   N     0.44885   0.94789   0.19079   0.00000  Uiso   1.00
H495   H     0.45688   0.95585   0.15855   0.00000  Uiso   1.00
H496   H     0.41849   0.95833   0.19526   0.00000  Uiso   1.00
C497   C     0.75412   0.83321   0.24985   0.00000  Uiso   1.00
C498   C     0.91255   0.83345   0.25000   0.00000  Uiso   1.00
C499   C     0.83310   0.83311   0.16511   0.00000  Uiso   1.00
C500   C     0.83319   0.83364   0.33501   0.00000  Uiso   1.00
C501   C     0.80910   0.68978   0.22020   0.00000  Uiso   1.00
C502   C     0.85818   0.97687   0.27932   0.00000  Uiso   1.00
C503   C     0.85819   0.69283   0.27891   0.00000  Uiso   1.00
C504   C     0.80851   0.97384   0.22108   0.00000  Uiso   1.00
C505   C     0.68762   0.79114   0.25036   0.00000  Uiso   1.00
C506   C     0.97905   0.87549   0.24899   0.00000  Uiso   1.00
C507   C     0.97836   0.79129   0.25043   0.00000  Uiso   1.00
C508   C     0.68831   0.87535   0.24898   0.00000  Uiso   1.00
C509   C     0.85324   0.86919   0.04917   0.00000  Uiso   1.00
C510   C     0.83768   0.79296   0.45246   0.00000  Uiso   1.00
C511   C     0.82666   0.87600   0.45300   0.00000  Uiso   1.00
C512   C     0.81072   0.79955   0.04637   0.00000  Uiso   1.00
C513   C     0.85357   0.86860   0.09514   0.00000  Uiso   1.00
C514   C     0.83785   0.79273   0.40656   0.00000  Uiso   1.00
C515   C     0.82693   0.87580   0.40700   0.00000  Uiso   1.00
C516   C     0.81119   0.79892   0.09231   0.00000  Uiso   1.00
C517   C     0.83291   0.83316   0.11690   0.00000  Uiso   1.00
C518   C     0.83273   0.83416   0.38344   0.00000  Uiso   1.00
C519   C     0.83194   0.83454   0.02449   0.00000  Uiso   1.00
C520   C     0.83209   0.83456   0.47600   0.00000  Uiso   1.00
C521   C     0.95722   0.83347   0.24983   0.00000  Uiso   1.00
C522   C     0.70945   0.83318   0.24972   0.00000  Uiso   1.00
Cu523  Cu    0.83333   0.88022   0.25000   0.00000  Uiso   1.00
Cu524  Cu    0.83333   0.78645   0.25000   0.00000  Uiso   1.00
H525   H     0.87011   0.89627   0.03292   0.00000  Uiso   1.00
H526   H     0.84238   0.76067   0.46960   0.00000  Uiso   1.00
H527   H     0.82165   0.90838   0.47057   0.00000  Uiso   1.00
H528   H     0.79328   0.77311   0.02792   0.00000  Uiso   1.00
H529   H     0.87039   0.89547   0.11370   0.00000  Uiso   1.00
H530   H     0.84217   0.76010   0.38930   0.00000  Uiso   1.00
H531   H     0.82215   0.90811   0.39001   0.00000  Uiso   1.00
H532   H     0.79360   0.77252   0.10842   0.00000  Uiso   1.00
H533   H     0.70334   0.75819   0.25089   0.00000  Uiso   1.00
H534   H     0.96336   0.90844   0.24829   0.00000  Uiso   1.00
H535   H     0.96210   0.75837   0.25095   0.00000  Uiso   1.00
H536   H     0.70457   0.90827   0.24840   0.00000  Uiso   1.00
N537   N     0.83333   0.95069   0.25000   0.00000  Uiso   1.00
N538   N     0.83333   0.71598   0.25000   0.00000  Uiso   1.00
O539   O     0.77321   0.87291   0.24999   0.00000  Uiso   1.00
O540   O     0.89345   0.79375   0.25000   0.00000  Uiso   1.00
O541   O     0.89345   0.87291   0.25000   0.00000  Uiso   1.00
O542   O     0.77321   0.79375   0.24999   0.00000  Uiso   1.00
O543   O     0.83333   0.87293   0.18573   0.00000  Uiso   1.00
O544   O     0.83334   0.79374   0.31427   0.00000  Uiso   1.00
O545   O     0.83334   0.87293   0.31427   0.00000  Uiso   1.00
O546   O     0.83333   0.79374   0.18573   0.00000  Uiso   1.00
N547   N     0.78636   0.71050   0.18466   0.00000  Uiso   1.00
H548   H     0.76828   0.73756   0.19562   0.00000  Uiso   1.00
H549   H     0.80716   0.72104   0.16124   0.00000  Uiso   1.00
N550   N     0.88435   0.95606   0.31216   0.00000  Uiso   1.00
H551   H     0.86695   0.94058   0.33623   0.00000  Uiso   1.00
H552   H     0.90541   0.93379   0.29817   0.00000  Uiso   1.00
N553   N     0.88508   0.71875   0.30863   0.00000  Uiso   1.00
H554   H     0.91541   0.70936   0.30244   0.00000  Uiso   1.00
H555   H     0.87872   0.70939   0.34096   0.00000  Uiso   1.00
N556   N     0.78218   0.94789   0.19079   0.00000  Uiso   1.00
H557   H     0.79021   0.95585   0.15855   0.00000  Uiso   1.00
H558   H     0.75183   0.95833   0.19526   0.00000  Uiso   1.00
C559   C     0.08745   0.16654   0.74985   0.00000  Uiso   1.00
C560   C     0.24588   0.16678   0.75000   0.00000  Uiso   1.00
C561   C     0.16643   0.16644   0.66511   0.00000  Uiso   1.00
C562   C     0.16652   0.16698   0.83501   0.00000  Uiso   1.00
C563   C     0.14243   0.02312   0.72020   0.00000  Uiso   1.00
C564   C     0.19151   0.31021   0.77932   0.00000  Uiso   1.00
C565   C     0.19153   0.02616   0.77891   0.00000  Uiso   1.00
C566   C     0.14184   0.30717   0.72108   0.00000  Uiso   1.00
C567   C     0.02095   0.12448   0.75036   0.00000  Uiso   1.00
C568   C     0.31239   0.20882   0.74899   0.00000  Uiso   1.00
C569   C     0.31169   0.12462   0.75043   0.00000  Uiso   1.00
C570   C     0.02164   0.20868   0.74898   0.00000  Uiso   1.00
C571   C     0.18657   0.20253   0.54917   0.00000  Uiso   1.00
C572   C     0.17101   0.12629   0.95246   0.00000  Uiso   1.00
C573   C     0.15999   0.20933   0.95300   0.00000  Uiso   1.00
C574   C     0.14405   0.13289   0.54637   0.00000  Uiso   1.00
C575   C     0.18691   0.20193   0.59514   0.00000  Uiso   1.00
C576   C     0.17119   0.12607   0.90656   0.00000  Uiso   1.00
C577   C     0.16026   0.20913   0.90700   0.00000  Uiso   1.00
C578   C     0.14452   0.13225   0.59231   0.00000  Uiso   1.00
C579   C     0.16624   0.16649   0.61690   0.00000  Uiso   1.00
C580   C     0.16606   0.16750   0.88344   0.00000  Uiso   1.00
C581   C     0.16527   0.16787   0.52449   0.00000  Uiso   1.00
C582   C     0.16542   0.16790   0.97600   0.00000  Uiso   1.00
C583   C     0.29055   0.16680   0.74983   0.00000  Uiso   1.00
C584   C     0.04278   0.16651   0.74972   0.00000  Uiso   1.00
Cu585  Cu    0.16667   0.21355   0.75000   0.00000  Uiso   1.00
Cu586  Cu    0.16667   0.11978   0.75000   0.00000  Uiso   1.00
H587   H     0.20344   0.22961   0.53292   0.00000  Uiso   1.00
H588   H     0.17571   0.09400   0.96960   0.00000  Uiso   1.00
H589   H     0.15498   0.24171   0.97057   0.00000  Uiso   1.00
H590   H     0.12661   0.10644   0.52792   0.00000  Uiso   1.00
H591   H     0.20373   0.22880   0.61370   0.00000  Uiso   1.00
H592   H     0.17550   0.09343   0.88930   0.00000  Uiso   1.00
H593   H     0.15548   0.24145   0.89001   0.00000  Uiso   1.00
H594   H     0.12693   0.10586   0.60842   0.00000  Uiso   1.00
H595   H     0.03667   0.09152   0.75089   0.00000  Uiso   1.00
H596   H     0.29669   0.24178   0.74829   0.00000  Uiso   1.00
H597   H     0.29544   0.09170   0.75095   0.00000  Uiso   1.00
H598   H     0.03790   0.24160   0.74840   0.00000  Uiso   1.00
N599   N     0.16667   0.28402   0.75000   0.00000  Uiso   1.00
N600   N     0.16667   0.04931   0.75000   0.00000  Uiso   1.00
O601   O     0.10655   0.20625   0.74999   0.00000  Uiso   1.00
O602   O     0.22679   0.12709   0.75000   0.00000  Uiso   1.00
O603   O     0.22679   0.20625   0.75000   0.00000  Uiso   1.00
O604   O     0.10655   0.12709   0.74999   0.00000  Uiso   1.00
O605   O     0.16666   0.20626   0.68573   0.00000  Uiso   1.00
O606   O     0.16667   0.12707   0.81427   0.00000  Uiso   1.00
O607   O     0.16667   0.20626   0.81427   0.00000  Uiso   1.00
O608   O     0.16666   0.12707   0.68573   0.00000  Uiso   1.00
N609   N     0.11969   0.04383   0.68466   0.00000  Uiso   1.00
H610   H     0.10161   0.07089   0.69562   0.00000  Uiso   1.00
H611   H     0.14049   0.05437   0.66124   0.00000  Uiso   1.00
N612   N     0.21769   0.28940   0.81216   0.00000  Uiso   1.00
H613   H     0.20029   0.27391   0.83623   0.00000  Uiso   1.00
H614   H     0.23874   0.26712   0.79817   0.00000  Uiso   1.00
N615   N     0.21841   0.05209   0.80863   0.00000  Uiso   1.00
H616   H     0.24874   0.04269   0.80244   0.00000  Uiso   1.00
H617   H     0.21205   0.04272   0.84096   0.00000  Uiso   1.00
N618   N     0.11552   0.28123   0.69079   0.00000  Uiso   1.00
H619   H     0.12355   0.28918   0.65855   0.00000  Uiso   1.00
H620   H     0.08516   0.29167   0.69526   0.00000  Uiso   1.00
C621   C     0.42078   0.16654   0.74985   0.00000  Uiso   1.00
C622   C     0.57922   0.16678   0.75000   0.00000  Uiso   1.00
C623   C     0.49977   0.16644   0.66511   0.00000  Uiso   1.00
C624   C     0.49985   0.16698   0.83501   0.00000  Uiso   1.00
C625   C     0.47576   0.02312   0.72020   0.00000  Uiso   1.00
C626   C     0.52484   0.31021   0.77932   0.00000  Uiso   1.00
C627   C     0.52486   0.02616   0.77891   0.00000  Uiso   1.00
C628   C     0.47518   0.30717   0.72108   0.00000  Uiso   1.00
C629   C     0.35429   0.12448   0.75036   0.00000  Uiso   1.00
C630   C     0.64572   0.20882   0.74899   0.00000  Uiso   1.00
C631   C     0.64503   0.12462   0.75043   0.00000  Uiso   1.00
C632   C     0.35498   0.20868   0.74898   0.00000  Uiso   1.00
C633   C     0.51991   0.20253   0.54917   0.00000  Uiso   1.00
C634   C     0.50434   0.12629   0.95246   0.00000  Uiso   1.00
C635   C     0.49332   0.20933   0.95300   0.00000  Uiso   1.00
C636   C     0.47738   0.13289   0.54637   0.00000  Uiso   1.00
C637   C     0.52024   0.20193   0.59514   0.00000  Uiso   1.00
C638   C     0.50452   0.12607   0.90656   0.00000  Uiso   1.00
C639   C     0.49359   0.20913   0.90700   0.00000  Uiso   1.00
C640   C     0.47785   0.13225   0.59231   0.00000  Uiso   1.00
C641   C     0.49958   0.16649   0.61690   0.00000  Uiso   1.00
C642   C     0.49939   0.16750   0.88344   0.00000  Uiso   1.00
C643   C     0.49860   0.16787   0.52449   0.00000  Uiso   1.00
C644   C     0.49876   0.16790   0.97600   0.00000  Uiso   1.00
C645   C     0.62389   0.16680   0.74983   0.00000  Uiso   1.00
C646   C     0.37612   0.16651   0.74972   0.00000  Uiso   1.00
Cu647  Cu    0.50000   0.21355   0.75000   0.00000  Uiso   1.00
Cu648  Cu    0.50000   0.11978   0.75000   0.00000  Uiso   1.00
H649   H     0.53678   0.22961   0.53292   0.00000  Uiso   1.00
H650   H     0.50905   0.09400   0.96960   0.00000  Uiso   1.00
H651   H     0.48832   0.24171   0.97057   0.00000  Uiso   1.00
H652   H     0.45995   0.10644   0.52792   0.00000  Uiso   1.00
H653   H     0.53706   0.22880   0.61370   0.00000  Uiso   1.00
H654   H     0.50883   0.09343   0.88930   0.00000  Uiso   1.00
H655   H     0.48882   0.24145   0.89001   0.00000  Uiso   1.00
H656   H     0.46027   0.10586   0.60842   0.00000  Uiso   1.00
H657   H     0.37001   0.09152   0.75089   0.00000  Uiso   1.00
H658   H     0.63003   0.24178   0.74829   0.00000  Uiso   1.00
H659   H     0.62877   0.09170   0.75095   0.00000  Uiso   1.00
H660   H     0.37124   0.24160   0.74840   0.00000  Uiso   1.00
N661   N     0.50000   0.28402   0.75000   0.00000  Uiso   1.00
N662   N     0.50000   0.04931   0.75000   0.00000  Uiso   1.00
O663   O     0.43988   0.20625   0.74999   0.00000  Uiso   1.00
O664   O     0.56012   0.12709   0.75000   0.00000  Uiso   1.00
O665   O     0.56012   0.20625   0.75000   0.00000  Uiso   1.00
O666   O     0.43988   0.12709   0.74999   0.00000  Uiso   1.00
O667   O     0.50000   0.20626   0.68573   0.00000  Uiso   1.00
O668   O     0.50000   0.12707   0.81427   0.00000  Uiso   1.00
O669   O     0.50000   0.20626   0.81427   0.00000  Uiso   1.00
O670   O     0.50000   0.12707   0.68573   0.00000  Uiso   1.00
N671   N     0.45303   0.04383   0.68466   0.00000  Uiso   1.00
H672   H     0.43495   0.07089   0.69562   0.00000  Uiso   1.00
H673   H     0.47382   0.05437   0.66124   0.00000  Uiso   1.00
N674   N     0.55102   0.28940   0.81216   0.00000  Uiso   1.00
H675   H     0.53362   0.27391   0.83623   0.00000  Uiso   1.00
H676   H     0.57208   0.26712   0.79817   0.00000  Uiso   1.00
N677   N     0.55174   0.05209   0.80863   0.00000  Uiso   1.00
H678   H     0.58207   0.04269   0.80244   0.00000  Uiso   1.00
H679   H     0.54538   0.04272   0.84096   0.00000  Uiso   1.00
N680   N     0.44885   0.28123   0.69079   0.00000  Uiso   1.00
H681   H     0.45688   0.28918   0.65855   0.00000  Uiso   1.00
H682   H     0.41849   0.29167   0.69526   0.00000  Uiso   1.00
C683   C     0.75412   0.16654   0.74985   0.00000  Uiso   1.00
C684   C     0.91255   0.16678   0.75000   0.00000  Uiso   1.00
C685   C     0.83310   0.16644   0.66511   0.00000  Uiso   1.00
C686   C     0.83319   0.16698   0.83501   0.00000  Uiso   1.00
C687   C     0.80910   0.02312   0.72020   0.00000  Uiso   1.00
C688   C     0.85818   0.31021   0.77932   0.00000  Uiso   1.00
C689   C     0.85819   0.02616   0.77891   0.00000  Uiso   1.00
C690   C     0.80851   0.30717   0.72108   0.00000  Uiso   1.00
C691   C     0.68762   0.12448   0.75036   0.00000  Uiso   1.00
C692   C     0.97905   0.20882   0.74899   0.00000  Uiso   1.00
C693   C     0.97836   0.12462   0.75043   0.00000  Uiso   1.00
C694   C     0.68831   0.20868   0.74898   0.00000  Uiso   1.00
C695   C     0.85324   0.20253   0.54917   0.00000  Uiso   1.00
C696   C     0.83768   0.12629   0.95246   0.00000  Uiso   1.00
C697   C     0.82666   0.20933   0.95300   0.00000  Uiso   1.00
C698   C     0.81072   0.13289   0.54637   0.00000  Uiso   1.00
C699   C     0.85357   0.20193   0.59514   0.00000  Uiso   1.00
C700   C     0.83785   0.12607   0.90656   0.00000  Uiso   1.00
C701   C     0.82693   0.20913   0.90700   0.00000  Uiso   1.00
C702   C     0.81119   0.13225   0.59231   0.00000  Uiso   1.00
C703   C     0.83291   0.16649   0.61690   0.00000  Uiso   1.00
C704   C     0.83273   0.16750   0.88344   0.00000  Uiso   1.00
C705   C     0.83194   0.16787   0.52449   0.00000  Uiso   1.00
C706   C     0.83209   0.16790   0.97600   0.00000  Uiso   1.00
C707   C     0.95722   0.16680   0.74983   0.00000  Uiso   1.00
C708   C     0.70945   0.16651   0.74972   0.00000  Uiso   1.00
Cu709  Cu    0.83333   0.21355   0.75000   0.00000  Uiso   1.00
Cu710  Cu    0.83333   0.11978   0.75000   0.00000  Uiso   1.00
H711   H     0.87011   0.22961   0.53292   0.00000  Uiso   1.00
H712   H     0.84238   0.09400   0.96960   0.00000  Uiso   1.00
H713   H     0.82165   0.24171   0.97057   0.00000  Uiso   1.00
H714   H     0.79328   0.10644   0.52792   0.00000  Uiso   1.00
H715   H     0.87039   0.22880   0.61370   0.00000  Uiso   1.00
H716   H     0.84217   0.09343   0.88930   0.00000  Uiso   1.00
H717   H     0.82215   0.24145   0.89001   0.00000  Uiso   1.00
H718   H     0.79360   0.10586   0.60842   0.00000  Uiso   1.00
H719   H     0.70334   0.09152   0.75089   0.00000  Uiso   1.00
H720   H     0.96336   0.24178   0.74829   0.00000  Uiso   1.00
H721   H     0.96210   0.09170   0.75095   0.00000  Uiso   1.00
H722   H     0.70457   0.24160   0.74840   0.00000  Uiso   1.00
N723   N     0.83333   0.28402   0.75000   0.00000  Uiso   1.00
N724   N     0.83333   0.04931   0.75000   0.00000  Uiso   1.00
O725   O     0.77321   0.20625   0.74999   0.00000  Uiso   1.00
O726   O     0.89345   0.12709   0.75000   0.00000  Uiso   1.00
O727   O     0.89345   0.20625   0.75000   0.00000  Uiso   1.00
O728   O     0.77321   0.12709   0.74999   0.00000  Uiso   1.00
O729   O     0.83333   0.20626   0.68573   0.00000  Uiso   1.00
O730   O     0.83334   0.12707   0.81427   0.00000  Uiso   1.00
O731   O     0.83334   0.20626   0.81427   0.00000  Uiso   1.00
O732   O     0.83333   0.12707   0.68573   0.00000  Uiso   1.00
N733   N     0.78636   0.04383   0.68466   0.00000  Uiso   1.00
H734   H     0.76828   0.07089   0.69562   0.00000  Uiso   1.00
H735   H     0.80716   0.05437   0.66124   0.00000  Uiso   1.00
N736   N     0.88435   0.28940   0.81216   0.00000  Uiso   1.00
H737   H     0.86695   0.27391   0.83623   0.00000  Uiso   1.00
H738   H     0.90541   0.26712   0.79817   0.00000  Uiso   1.00
N739   N     0.88508   0.05209   0.80863   0.00000  Uiso   1.00
H740   H     0.91541   0.04269   0.80244   0.00000  Uiso   1.00
H741   H     0.87872   0.04272   0.84096   0.00000  Uiso   1.00
N742   N     0.78218   0.28123   0.69079   0.00000  Uiso   1.00
H743   H     0.79021   0.28918   0.65855   0.00000  Uiso   1.00
H744   H     0.75183   0.29167   0.69526   0.00000  Uiso   1.00
C745   C     0.08745   0.49988   0.74985   0.00000  Uiso   1.00
C746   C     0.24588   0.50012   0.75000   0.00000  Uiso   1.00
C747   C     0.16643   0.49978   0.66511   0.00000  Uiso   1.00
C748   C     0.16652   0.50031   0.83501   0.00000  Uiso   1.00
C749   C     0.14243   0.35645   0.72020   0.00000  Uiso   1.00
C750   C     0.19151   0.64354   0.77932   0.00000  Uiso   1.00
C751   C     0.19153   0.35950   0.77891   0.00000  Uiso   1.00
C752   C     0.14184   0.64051   0.72108   0.00000  Uiso   1.00
C753   C     0.02095   0.45781   0.75036   0.00000  Uiso   1.00
C754   C     0.31239   0.54216   0.74899   0.00000  Uiso   1.00
C755   C     0.31169   0.45795   0.75043   0.00000  Uiso   1.00
C756   C     0.02164   0.54202   0.74898   0.00000  Uiso   1.00
C757   C     0.18657   0.53586   0.54917   0.00000  Uiso   1.00
C758   C     0.17101   0.45962   0.95246   0.00000  Uiso   1.00
C759   C     0.15999   0.54266   0.95300   0.00000  Uiso   1.00
C760   C     0.14405   0.46622   0.54637   0.00000  Uiso   1.00
C761   C     0.18691   0.53527   0.59514   0.00000  Uiso   1.00
C762   C     0.17119   0.45940   0.90656   0.00000  Uiso   1.00
C763   C     0.16026   0.54247   0.90700   0.00000  Uiso   1.00
C764   C     0.14452   0.46559   0.59231   0.00000  Uiso   1.00
C765   C     0.16624   0.49983   0.61690   0.00000  Uiso   1.00
C766   C     0.16606   0.50083   0.88344   0.00000  Uiso   1.00
C767   C     0.16527   0.50121   0.52449   0.00000  Uiso   1.00
C768   C     0.16542   0.50123   0.97600   0.00000  Uiso   1.00
C769   C     0.29055   0.50014   0.74983   0.00000  Uiso   1.00
C770   C     0.04278   0.49984   0.74972   0.00000  Uiso   1.00
Cu771  Cu    0.16667   0.54689   0.75000   0.00000  Uiso   1.00
Cu772  Cu    0.16667   0.45311   0.75000   0.00000  Uiso   1.00
H773   H     0.20344   0.56294   0.53292   0.00000  Uiso   1.00
H774   H     0.17571   0.42733   0.96960   0.00000  Uiso   1.00
H775   H     0.15498   0.57504   0.97057   0.00000  Uiso   1.00
H776   H     0.12661   0.43978   0.52792   0.00000  Uiso   1.00
H777   H     0.20373   0.56213   0.61370   0.00000  Uiso   1.00
H778   H     0.17550   0.42677   0.88930   0.00000  Uiso   1.00
H779   H     0.15548   0.57478   0.89001   0.00000  Uiso   1.00
H780   H     0.12693   0.43919   0.60842   0.00000  Uiso   1.00
H781   H     0.03667   0.42485   0.75089   0.00000  Uiso   1.00
H782   H     0.29669   0.57511   0.74829   0.00000  Uiso   1.00
H783   H     0.29544   0.42504   0.75095   0.00000  Uiso   1.00
H784   H     0.03790   0.57494   0.74840   0.00000  Uiso   1.00
N785   N     0.16667   0.61736   0.75000   0.00000  Uiso   1.00
N786   N     0.16667   0.38264   0.75000   0.00000  Uiso   1.00
O787   O     0.10655   0.53958   0.74999   0.00000  Uiso   1.00
O788   O     0.22679   0.46042   0.75000   0.00000  Uiso   1.00
O789   O     0.22679   0.53958   0.75000   0.00000  Uiso   1.00
O790   O     0.10655   0.46042   0.74999   0.00000  Uiso   1.00
O791   O     0.16666   0.53959   0.68573   0.00000  Uiso   1.00
O792   O     0.16667   0.46041   0.81427   0.00000  Uiso   1.00
O793   O     0.16667   0.53959   0.81427   0.00000  Uiso   1.00
O794   O     0.16666   0.46041   0.68573   0.00000  Uiso   1.00
N795   N     0.11969   0.37717   0.68466   0.00000  Uiso   1.00
H796   H     0.10161   0.40422   0.69562   0.00000  Uiso   1.00
H797   H     0.14049   0.38771   0.66124   0.00000  Uiso   1.00
N798   N     0.21769   0.62273   0.81216   0.00000  Uiso   1.00
H799   H     0.20029   0.60724   0.83623   0.00000  Uiso   1.00
H800   H     0.23874   0.60045   0.79817   0.00000  Uiso   1.00
N801   N     0.21841   0.38542   0.80863   0.00000  Uiso   1.00
H802   H     0.24874   0.37602   0.80244   0.00000  Uiso   1.00
H803   H     0.21205   0.37606   0.84096   0.00000  Uiso   1.00
N804   N     0.11552   0.61456   0.69079   0.00000  Uiso   1.00
H805   H     0.12355   0.62252   0.65855   0.00000  Uiso   1.00
H806   H     0.08516   0.62500   0.69526   0.00000  Uiso   1.00
C807   C     0.42078   0.49988   0.74985   0.00000  Uiso   1.00
C808   C     0.57922   0.50012   0.75000   0.00000  Uiso   1.00
C809   C     0.49977   0.49978   0.66511   0.00000  Uiso   1.00
C810   C     0.49985   0.50031   0.83501   0.00000  Uiso   1.00
C811   C     0.47576   0.35645   0.72020   0.00000  Uiso   1.00
C812   C     0.52484   0.64354   0.77932   0.00000  Uiso   1.00
C813   C     0.52486   0.35950   0.77891   0.00000  Uiso   1.00
C814   C     0.47518   0.64051   0.72108   0.00000  Uiso   1.00
C815   C     0.35429   0.45781   0.75036   0.00000  Uiso   1.00
C816   C     0.64572   0.54216   0.74899   0.00000  Uiso   1.00
C817   C     0.64503   0.45795   0.75043   0.00000  Uiso   1.00
C818   C     0.35498   0.54202   0.74898   0.00000  Uiso   1.00
C819   C     0.51991   0.53586   0.54917   0.00000  Uiso   1.00
C820   C     0.50434   0.45962   0.95246   0.00000  Uiso   1.00
C821   C     0.49332   0.54266   0.95300   0.00000  Uiso   1.00
C822   C     0.47738   0.46622   0.54637   0.00000  Uiso   1.00
C823   C     0.52024   0.53527   0.59514   0.00000  Uiso   1.00
C824   C     0.50452   0.45940   0.90656   0.00000  Uiso   1.00
C825   C     0.49359   0.54247   0.90700   0.00000  Uiso   1.00
C826   C     0.47785   0.46559   0.59231   0.00000  Uiso   1.00
C827   C     0.49958   0.49983   0.61690   0.00000  Uiso   1.00
C828   C     0.49939   0.50083   0.88344   0.00000  Uiso   1.00
C829   C     0.49860   0.50121   0.52449   0.00000  Uiso   1.00
C830   C     0.49876   0.50123   0.97600   0.00000  Uiso   1.00
C831   C     0.62389   0.50014   0.74983   0.00000  Uiso   1.00
C832   C     0.37612   0.49984   0.74972   0.00000  Uiso   1.00
Cu833  Cu    0.50000   0.54689   0.75000   0.00000  Uiso   1.00
Cu834  Cu    0.50000   0.45311   0.75000   0.00000  Uiso   1.00
H835   H     0.53678   0.56294   0.53292   0.00000  Uiso   1.00
H836   H     0.50905   0.42733   0.96960   0.00000  Uiso   1.00
H837   H     0.48832   0.57504   0.97057   0.00000  Uiso   1.00
H838   H     0.45995   0.43978   0.52792   0.00000  Uiso   1.00
H839   H     0.53706   0.56213   0.61370   0.00000  Uiso   1.00
H840   H     0.50883   0.42677   0.88930   0.00000  Uiso   1.00
H841   H     0.48882   0.57478   0.89001   0.00000  Uiso   1.00
H842   H     0.46027   0.43919   0.60842   0.00000  Uiso   1.00
H843   H     0.37001   0.42485   0.75089   0.00000  Uiso   1.00
H844   H     0.63003   0.57511   0.74829   0.00000  Uiso   1.00
H845   H     0.62877   0.42504   0.75095   0.00000  Uiso   1.00
H846   H     0.37124   0.57494   0.74840   0.00000  Uiso   1.00
N847   N     0.50000   0.61736   0.75000   0.00000  Uiso   1.00
N848   N     0.50000   0.38264   0.75000   0.00000  Uiso   1.00
O849   O     0.43988   0.53958   0.74999   0.00000  Uiso   1.00
O850   O     0.56012   0.46042   0.75000   0.00000  Uiso   1.00
O851   O     0.56012   0.53958   0.75000   0.00000  Uiso   1.00
O852   O     0.43988   0.46042   0.74999   0.00000  Uiso   1.00
O853   O     0.50000   0.53959   0.68573   0.00000  Uiso   1.00
O854   O     0.50000   0.46041   0.81427   0.00000  Uiso   1.00
O855   O     0.50000   0.53959   0.81427   0.00000  Uiso   1.00
O856   O     0.50000   0.46041   0.68573   0.00000  Uiso   1.00
N857   N     0.45303   0.37717   0.68466   0.00000  Uiso   1.00
H858   H     0.43495   0.40422   0.69562   0.00000  Uiso   1.00
H859   H     0.47382   0.38771   0.66124   0.00000  Uiso   1.00
N860   N     0.55102   0.62273   0.81216   0.00000  Uiso   1.00
H861   H     0.53362   0.60724   0.83623   0.00000  Uiso   1.00
H862   H     0.57208   0.60045   0.79817   0.00000  Uiso   1.00
N863   N     0.55174   0.38542   0.80863   0.00000  Uiso   1.00
H864   H     0.58207   0.37602   0.80244   0.00000  Uiso   1.00
H865   H     0.54538   0.37606   0.84096   0.00000  Uiso   1.00
N866   N     0.44885   0.61456   0.69079   0.00000  Uiso   1.00
H867   H     0.45688   0.62252   0.65855   0.00000  Uiso   1.00
H868   H     0.41849   0.62500   0.69526   0.00000  Uiso   1.00
C869   C     0.75412   0.49988   0.74985   0.00000  Uiso   1.00
C870   C     0.91255   0.50012   0.75000   0.00000  Uiso   1.00
C871   C     0.83310   0.49978   0.66511   0.00000  Uiso   1.00
C872   C     0.83319   0.50031   0.83501   0.00000  Uiso   1.00
C873   C     0.80910   0.35645   0.72020   0.00000  Uiso   1.00
C874   C     0.85818   0.64354   0.77932   0.00000  Uiso   1.00
C875   C     0.85819   0.35950   0.77891   0.00000  Uiso   1.00
C876   C     0.80851   0.64051   0.72108   0.00000  Uiso   1.00
C877   C     0.68762   0.45781   0.75036   0.00000  Uiso   1.00
C878   C     0.97905   0.54216   0.74899   0.00000  Uiso   1.00
C879   C     0.97836   0.45795   0.75043   0.00000  Uiso   1.00
C880   C     0.68831   0.54202   0.74898   0.00000  Uiso   1.00
C881   C     0.85324   0.53586   0.54917   0.00000  Uiso   1.00
C882   C     0.83768   0.45962   0.95246   0.00000  Uiso   1.00
C883   C     0.82666   0.54266   0.95300   0.00000  Uiso   1.00
C884   C     0.81072   0.46622   0.54637   0.00000  Uiso   1.00
C885   C     0.85357   0.53527   0.59514   0.00000  Uiso   1.00
C886   C     0.83785   0.45940   0.90656   0.00000  Uiso   1.00
C887   C     0.82693   0.54247   0.90700   0.00000  Uiso   1.00
C888   C     0.81119   0.46559   0.59231   0.00000  Uiso   1.00
C889   C     0.83291   0.49983   0.61690   0.00000  Uiso   1.00
C890   C     0.83273   0.50083   0.88344   0.00000  Uiso   1.00
C891   C     0.83194   0.50121   0.52449   0.00000  Uiso   1.00
C892   C     0.83209   0.50123   0.97600   0.00000  Uiso   1.00
C893   C     0.95722   0.50014   0.74983   0.00000  Uiso   1.00
C894   C     0.70945   0.49984   0.74972   0.00000  Uiso   1.00
Cu895  Cu    0.83333   0.54689   0.75000   0.00000  Uiso   1.00
Cu896  Cu    0.83333   0.45311   0.75000   0.00000  Uiso   1.00
H897   H     0.87011   0.56294   0.53292   0.00000  Uiso   1.00
H898   H     0.84238   0.42733   0.96960   0.00000  Uiso   1.00
H899   H     0.82165   0.57504   0.97057   0.00000  Uiso   1.00
H900   H     0.79328   0.43978   0.52792   0.00000  Uiso   1.00
H901   H     0.87039   0.56213   0.61370   0.00000  Uiso   1.00
H902   H     0.84217   0.42677   0.88930   0.00000  Uiso   1.00
H903   H     0.82215   0.57478   0.89001   0.00000  Uiso   1.00
H904   H     0.79360   0.43919   0.60842   0.00000  Uiso   1.00
H905   H     0.70334   0.42485   0.75089   0.00000  Uiso   1.00
H906   H     0.96336   0.57511   0.74829   0.00000  Uiso   1.00
H907   H     0.96210   0.42504   0.75095   0.00000  Uiso   1.00
H908   H     0.70457   0.57494   0.74840   0.00000  Uiso   1.00
N909   N     0.83333   0.61736   0.75000   0.00000  Uiso   1.00
N910   N     0.83333   0.38264   0.75000   0.00000  Uiso   1.00
O911   O     0.77321   0.53958   0.74999   0.00000  Uiso   1.00
O912   O     0.89345   0.46042   0.75000   0.00000  Uiso   1.00
O913   O     0.89345   0.53958   0.75000   0.00000  Uiso   1.00
O914   O     0.77321   0.46042   0.74999   0.00000  Uiso   1.00
O915   O     0.83333   0.53959   0.68573   0.00000  Uiso   1.00
O916   O     0.83334   0.46041   0.81427   0.00000  Uiso   1.00
O917   O     0.83334   0.53959   0.81427   0.00000  Uiso   1.00
O918   O     0.83333   0.46041   0.68573   0.00000  Uiso   1.00
N919   N     0.78636   0.37717   0.68466   0.00000  Uiso   1.00
H920   H     0.76828   0.40422   0.69562   0.00000  Uiso   1.00
H921   H     0.80716   0.38771   0.66124   0.00000  Uiso   1.00
N922   N     0.88435   0.62273   0.81216   0.00000  Uiso   1.00
H923   H     0.86695   0.60724   0.83623   0.00000  Uiso   1.00
H924   H     0.90541   0.60045   0.79817   0.00000  Uiso   1.00
N925   N     0.88508   0.38542   0.80863   0.00000  Uiso   1.00
H926   H     0.91541   0.37602   0.80244   0.00000  Uiso   1.00
H927   H     0.87872   0.37606   0.84096   0.00000  Uiso   1.00
N928   N     0.78218   0.61456   0.69079   0.00000  Uiso   1.00
H929   H     0.79021   0.62252   0.65855   0.00000  Uiso   1.00
H930   H     0.75183   0.62500   0.69526   0.00000  Uiso   1.00
C931   C     0.08745   0.83321   0.74985   0.00000  Uiso   1.00
C932   C     0.24588   0.83345   0.75000   0.00000  Uiso   1.00
C933   C     0.16643   0.83311   0.66511   0.00000  Uiso   1.00
C934   C     0.16652   0.83364   0.83501   0.00000  Uiso   1.00
C935   C     0.14243   0.68978   0.72020   0.00000  Uiso   1.00
C936   C     0.19151   0.97687   0.77932   0.00000  Uiso   1.00
C937   C     0.19153   0.69283   0.77891   0.00000  Uiso   1.00
C938   C     0.14184   0.97384   0.72108   0.00000  Uiso   1.00
C939   C     0.02095   0.79114   0.75036   0.00000  Uiso   1.00
C940   C     0.31239   0.87549   0.74899   0.00000  Uiso   1.00
C941   C     0.31169   0.79129   0.75043   0.00000  Uiso   1.00
C942   C     0.02164   0.87535   0.74898   0.00000  Uiso   1.00
C943   C     0.18657   0.86919   0.54917   0.00000  Uiso   1.00
C944   C     0.17101   0.79296   0.95246   0.00000  Uiso   1.00
C945   C     0.15999   0.87600   0.95300   0.00000  Uiso   1.00
C946   C     0.14405   0.79955   0.54637   0.00000  Uiso   1.00
C947   C     0.18691   0.86860   0.59514   0.00000  Uiso   1.00
C948   C     0.17119   0.79273   0.90656   0.00000  Uiso   1.00
C949   C     0.16026   0.87580   0.90700   0.00000  Uiso   1.00
C950   C     0.14452   0.79892   0.59231   0.00000  Uiso   1.00
C951   C     0.16624   0.83316   0.61690   0.00000  Uiso   1.00
C952   C     0.16606   0.83416   0.88344   0.00000  Uiso   1.00
C953   C     0.16527   0.83454   0.52449   0.00000  Uiso   1.00
C954   C     0.16542   0.83456   0.97600   0.00000  Uiso   1.00
C955   C     0.29055   0.83347   0.74983   0.00000  Uiso   1.00
C956   C     0.04278   0.83318   0.74972   0.00000  Uiso   1.00
Cu957  Cu    0.16667   0.88022   0.75000   0.00000  Uiso   1.00
Cu958  Cu    0.16667   0.78645   0.75000   0.00000  Uiso   1.00
H959   H     0.20344   0.89627   0.53292   0.00000  Uiso   1.00
H960   H     0.17571   0.76067   0.96960   0.00000  Uiso   1.00
H961   H     0.15498   0.90838   0.97057   0.00000  Uiso   1.00
H962   H     0.12661   0.77311   0.52792   0.00000  Uiso   1.00
H963   H     0.20373   0.89547   0.61370   0.00000  Uiso   1.00
H964   H     0.17550   0.76010   0.88930   0.00000  Uiso   1.00
H965   H     0.15548   0.90811   0.89001   0.00000  Uiso   1.00
H966   H     0.12693   0.77252   0.60842   0.00000  Uiso   1.00
H967   H     0.03667   0.75819   0.75089   0.00000  Uiso   1.00
H968   H     0.29669   0.90844   0.74829   0.00000  Uiso   1.00
H969   H     0.29544   0.75837   0.75095   0.00000  Uiso   1.00
H970   H     0.03790   0.90827   0.74840   0.00000  Uiso   1.00
N971   N     0.16667   0.95069   0.75000   0.00000  Uiso   1.00
N972   N     0.16667   0.71598   0.75000   0.00000  Uiso   1.00
O973   O     0.10655   0.87291   0.74999   0.00000  Uiso   1.00
O974   O     0.22679   0.79375   0.75000   0.00000  Uiso   1.00
O975   O     0.22679   0.87291   0.75000   0.00000  Uiso   1.00
O976   O     0.10655   0.79375   0.74999   0.00000  Uiso   1.00
O977   O     0.16666   0.87293   0.68573   0.00000  Uiso   1.00
O978   O     0.16667   0.79374   0.81427   0.00000  Uiso   1.00
O979   O     0.16667   0.87293   0.81427   0.00000  Uiso   1.00
O980   O     0.16666   0.79374   0.68573   0.00000  Uiso   1.00
N981   N     0.11969   0.71050   0.68466   0.00000  Uiso   1.00
H982   H     0.10161   0.73756   0.69562   0.00000  Uiso   1.00
H983   H     0.14049   0.72104   0.66124   0.00000  Uiso   1.00
N984   N     0.21769   0.95606   0.81216   0.00000  Uiso   1.00
H985   H     0.20029   0.94058   0.83623   0.00000  Uiso   1.00
H986   H     0.23874   0.93379   0.79817   0.00000  Uiso   1.00
N987   N     0.21841   0.71875   0.80863   0.00000  Uiso   1.00
H988   H     0.24874   0.70936   0.80244   0.00000  Uiso   1.00
H989   H     0.21205   0.70939   0.84096   0.00000  Uiso   1.00
N990   N     0.11552   0.94789   0.69079   0.00000  Uiso   1.00
H991   H     0.12355   0.95585   0.65855   0.00000  Uiso   1.00
H992   H     0.08516   0.95833   0.69526   0.00000  Uiso   1.00
C993   C     0.42078   0.83321   0.74985   0.00000  Uiso   1.00
C994   C     0.57922   0.83345   0.75000   0.00000  Uiso   1.00
C995   C     0.49977   0.83311   0.66511   0.00000  Uiso   1.00
C996   C     0.49985   0.83364   0.83501   0.00000  Uiso   1.00
C997   C     0.47576   0.68978   0.72020   0.00000  Uiso   1.00
C998   C     0.52484   0.97687   0.77932   0.00000  Uiso   1.00
C999   C     0.52486   0.69283   0.77891   0.00000  Uiso   1.00
C1000  C     0.47518   0.97384   0.72108   0.00000  Uiso   1.00
C1001  C     0.35429   0.79114   0.75036   0.00000  Uiso   1.00
C1002  C     0.64572   0.87549   0.74899   0.00000  Uiso   1.00
C1003  C     0.64503   0.79129   0.75043   0.00000  Uiso   1.00
C1004  C     0.35498   0.87535   0.74898   0.00000  Uiso   1.00
C1005  C     0.51991   0.86919   0.54917   0.00000  Uiso   1.00
C1006  C     0.50434   0.79296   0.95246   0.00000  Uiso   1.00
C1007  C     0.49332   0.87600   0.95300   0.00000  Uiso   1.00
C1008  C     0.47738   0.79955   0.54637   0.00000  Uiso   1.00
C1009  C     0.52024   0.86860   0.59514   0.00000  Uiso   1.00
C1010  C     0.50452   0.79273   0.90656   0.00000  Uiso   1.00
C1011  C     0.49359   0.87580   0.90700   0.00000  Uiso   1.00
C1012  C     0.47785   0.79892   0.59231   0.00000  Uiso   1.00
C1013  C     0.49958   0.83316   0.61690   0.00000  Uiso   1.00
C1014  C     0.49939   0.83416   0.88344   0.00000  Uiso   1.00
C1015  C     0.49860   0.83454   0.52449   0.00000  Uiso   1.00
C1016  C     0.49876   0.83456   0.97600   0.00000  Uiso   1.00
C1017  C     0.62389   0.83347   0.74983   0.00000  Uiso   1.00
C1018  C     0.37612   0.83318   0.74972   0.00000  Uiso   1.00
Cu1019 Cu    0.50000   0.88022   0.75000   0.00000  Uiso   1.00
Cu1020 Cu    0.50000   0.78645   0.75000   0.00000  Uiso   1.00
H1021  H     0.53678   0.89627   0.53292   0.00000  Uiso   1.00
H1022  H     0.50905   0.76067   0.96960   0.00000  Uiso   1.00
H1023  H     0.48832   0.90838   0.97057   0.00000  Uiso   1.00
H1024  H     0.45995   0.77311   0.52792   0.00000  Uiso   1.00
H1025  H     0.53706   0.89547   0.61370   0.00000  Uiso   1.00
H1026  H     0.50883   0.76010   0.88930   0.00000  Uiso   1.00
H1027  H     0.48882   0.90811   0.89001   0.00000  Uiso   1.00
H1028  H     0.46027   0.77252   0.60842   0.00000  Uiso   1.00
H1029  H     0.37001   0.75819   0.75089   0.00000  Uiso   1.00
H1030  H     0.63003   0.90844   0.74829   0.00000  Uiso   1.00
H1031  H     0.62877   0.75837   0.75095   0.00000  Uiso   1.00
H1032  H     0.37124   0.90827   0.74840   0.00000  Uiso   1.00
N1033  N     0.50000   0.95069   0.75000   0.00000  Uiso   1.00
N1034  N     0.50000   0.71598   0.75000   0.00000  Uiso   1.00
O1035  O     0.43988   0.87291   0.74999   0.00000  Uiso   1.00
O1036  O     0.56012   0.79375   0.75000   0.00000  Uiso   1.00
O1037  O     0.56012   0.87291   0.75000   0.00000  Uiso   1.00
O1038  O     0.43988   0.79375   0.74999   0.00000  Uiso   1.00
O1039  O     0.50000   0.87293   0.68573   0.00000  Uiso   1.00
O1040  O     0.50000   0.79374   0.81427   0.00000  Uiso   1.00
O1041  O     0.50000   0.87293   0.81427   0.00000  Uiso   1.00
O1042  O     0.50000   0.79374   0.68573   0.00000  Uiso   1.00
N1043  N     0.45303   0.71050   0.68466   0.00000  Uiso   1.00
H1044  H     0.43495   0.73756   0.69562   0.00000  Uiso   1.00
H1045  H     0.47382   0.72104   0.66124   0.00000  Uiso   1.00
N1046  N     0.55102   0.95606   0.81216   0.00000  Uiso   1.00
H1047  H     0.53362   0.94058   0.83623   0.00000  Uiso   1.00
H1048  H     0.57208   0.93379   0.79817   0.00000  Uiso   1.00
N1049  N     0.55174   0.71875   0.80863   0.00000  Uiso   1.00
H1050  H     0.58207   0.70936   0.80244   0.00000  Uiso   1.00
H1051  H     0.54538   0.70939   0.84096   0.00000  Uiso   1.00
N1052  N     0.44885   0.94789   0.69079   0.00000  Uiso   1.00
H1053  H     0.45688   0.95585   0.65855   0.00000  Uiso   1.00
H1054  H     0.41849   0.95833   0.69526   0.00000  Uiso   1.00
C1055  C     0.75412   0.83321   0.74985   0.00000  Uiso   1.00
C1056  C     0.91255   0.83345   0.75000   0.00000  Uiso   1.00
C1057  C     0.83310   0.83311   0.66511   0.00000  Uiso   1.00
C1058  C     0.83319   0.83364   0.83501   0.00000  Uiso   1.00
C1059  C     0.80910   0.68978   0.72020   0.00000  Uiso   1.00
C1060  C     0.85818   0.97687   0.77932   0.00000  Uiso   1.00
C1061  C     0.85819   0.69283   0.77891   0.00000  Uiso   1.00
C1062  C     0.80851   0.97384   0.72108   0.00000  Uiso   1.00
C1063  C     0.68762   0.79114   0.75036   0.00000  Uiso   1.00
C1064  C     0.97905   0.87549   0.74899   0.00000  Uiso   1.00
C1065  C     0.97836   0.79129   0.75043   0.00000  Uiso   1.00
C1066  C     0.68831   0.87535   0.74898   0.00000  Uiso   1.00
C1067  C     0.85324   0.86919   0.54917   0.00000  Uiso   1.00
C1068  C     0.83768   0.79296   0.95246   0.00000  Uiso   1.00
C1069  C     0.82666   0.87600   0.95300   0.00000  Uiso   1.00
C1070  C     0.81072   0.79955   0.54637   0.00000  Uiso   1.00
C1071  C     0.85357   0.86860   0.59514   0.00000  Uiso   1.00
C1072  C     0.83785   0.79273   0.90656   0.00000  Uiso   1.00
C1073  C     0.82693   0.87580   0.90700   0.00000  Uiso   1.00
C1074  C     0.81119   0.79892   0.59231   0.00000  Uiso   1.00
C1075  C     0.83291   0.83316   0.61690   0.00000  Uiso   1.00
C1076  C     0.83273   0.83416   0.88344   0.00000  Uiso   1.00
C1077  C     0.83194   0.83454   0.52449   0.00000  Uiso   1.00
C1078  C     0.83209   0.83456   0.97600   0.00000  Uiso   1.00
C1079  C     0.95722   0.83347   0.74983   0.00000  Uiso   1.00
C1080  C     0.70945   0.83318   0.74972   0.00000  Uiso   1.00
Cu1081 Cu    0.83333   0.88022   0.75000   0.00000  Uiso   1.00
Cu1082 Cu    0.83333   0.78645   0.75000   0.00000  Uiso   1.00
H1083  H     0.87011   0.89627   0.53292   0.00000  Uiso   1.00
H1084  H     0.84238   0.76067   0.96960   0.00000  Uiso   1.00
H1085  H     0.82165   0.90838   0.97057   0.00000  Uiso   1.00
H1086  H     0.79328   0.77311   0.52792   0.00000  Uiso   1.00
H1087  H     0.87039   0.89547   0.61370   0.00000  Uiso   1.00
H1088  H     0.84217   0.76010   0.88930   0.00000  Uiso   1.00
H1089  H     0.82215   0.90811   0.89001   0.00000  Uiso   1.00
H1090  H     0.79360   0.77252   0.60842   0.00000  Uiso   1.00
H1091  H     0.70334   0.75819   0.75089   0.00000  Uiso   1.00
H1092  H     0.96336   0.90844   0.74829   0.00000  Uiso   1.00
H1093  H     0.96210   0.75837   0.75095   0.00000  Uiso   1.00
H1094  H     0.70457   0.90827   0.74840   0.00000  Uiso   1.00
N1095  N     0.83333   0.95069   0.75000   0.00000  Uiso   1.00
N1096  N     0.83333   0.71598   0.75000   0.00000  Uiso   1.00
O1097  O     0.77321   0.87291   0.74999   0.00000  Uiso   1.00
O1098  O     0.89345   0.79375   0.75000   0.00000  Uiso   1.00
O1099  O     0.89345   0.87291   0.75000   0.00000  Uiso   1.00
O1100  O     0.77321   0.79375   0.74999   0.00000  Uiso   1.00
O1101  O     0.83333   0.87293   0.68573   0.00000  Uiso   1.00
O1102  O     0.83334   0.79374   0.81427   0.00000  Uiso   1.00
O1103  O     0.83334   0.87293   0.81427   0.00000  Uiso   1.00
O1104  O     0.83333   0.79374   0.68573   0.00000  Uiso   1.00
N1105  N     0.78636   0.71050   0.68466   0.00000  Uiso   1.00
H1106  H     0.76828   0.73756   0.69562   0.00000  Uiso   1.00
H1107  H     0.80716   0.72104   0.66124   0.00000  Uiso   1.00
N1108  N     0.88435   0.95606   0.81216   0.00000  Uiso   1.00
H1109  H     0.86695   0.94058   0.83623   0.00000  Uiso   1.00
H1110  H     0.90541   0.93379   0.79817   0.00000  Uiso   1.00
N1111  N     0.88508   0.71875   0.80863   0.00000  Uiso   1.00
H1112  H     0.91541   0.70936   0.80244   0.00000  Uiso   1.00
H1113  H     0.87872   0.70939   0.84096   0.00000  Uiso   1.00
N1114  N     0.78218   0.94789   0.69079   0.00000  Uiso   1.00
H1115  H     0.79021   0.95585   0.65855   0.00000  Uiso   1.00
H1116  H     0.75183   0.95833   0.69526   0.00000  Uiso   1.00
loop_
_geom_bond_atom_site_label_1
_geom_bond_atom_site_label_2
_geom_bond_distance
_geom_bond_site_symmetry_2
_ccdc_geom_bond_type
C1     O43     1.297   .     A
C1     C26     1.451   .     S
C1     O46     1.301   .     A
C2     O44     1.297   .     A
C2     O45     1.301   .     A
C2     C25     1.451   .     S
C3     O47     1.298   .     A
C3     O50     1.305   .     A
C3     C21     1.458   .     S
C4     C22     1.465   .     S
C4     O49     1.304   .     A
C4     O48     1.302   .     A
C5     N42     1.388   .     A
C5     N51     1.428   .     S
C5     C380    1.422   1_545 S
C6     N54     1.431   .     S
C6     N41     1.390   .     A
C6     C193    1.422   .     S
C7     N57     1.431   .     S
C7     N42     1.360   .     A
C7     C378    1.422   1_545 S
C8     N60     1.432   .     S
C8     N41     1.359   .     A
C8     C191    1.422   .     S
C9     H37     1.083   .     S
C9     C26     1.400   .     A
C9     C135    1.383   1_455 S
C10    H38     1.083   .     S
C10    C25     1.400   .     A
C10    C74     1.383   .     S
C11    H39     1.083   .     S
C11    C25     1.403   .     A
C11    C71     1.383   .     S
C12    H40     1.083   .     S
C12    C26     1.402   .     A
C12    C134    1.383   1_455 S
C13    C17     1.391   .     A
C13    C23     1.403   .     A
C13    H29     1.083   .     S
C14    C18     1.389   .     A
C14    H30     1.083   .     S
C14    C24     1.401   .     A
C15    H31     1.083   .     S
C15    C19     1.392   .     A
C15    C24     1.403   .     A
C16    H32     1.083   .     S
C16    C20     1.390   .     A
C16    C23     1.403   .     A
C17    H33     1.084   .     S
C17    C21     1.402   .     A
C18    H34     1.081   .     S
C18    C22     1.403   .     A
C19    H35     1.082   .     S
C19    C22     1.404   .     A
C20    H36     1.079   .     S
C20    C21     1.399   .     A
C23    C582    1.467   1_554 S
C24    C581    1.467   .     S
Cu27   O45     1.966   .     S
Cu27   O47     1.952   .     S
Cu27   O43     1.962   .     S
Cu27   Cu28    2.705   .     S
Cu27   N41     2.033   .     S
Cu27   O49     1.959   .     S
Cu28   O46     1.966   .     S
Cu28   O48     1.952   .     S
Cu28   N42     2.033   .     S
Cu28   O50     1.959   .     S
Cu28   O44     1.962   .     S
N51    H52     1.037   .     S
N51    H53     1.041   .     S
N54    H56     1.037   .     S
N54    H55     1.039   .     S
N57    H58     1.045   .     S
N57    H59     1.045   .     S
N60    H62     1.046   .     S
N60    H61     1.046   .     S
C63    O105    1.297   .     A
C63    C88     1.451   .     S
C63    O108    1.301   .     A
C64    O106    1.297   .     A
C64    O107    1.301   .     A
C64    C87     1.451   .     S
C65    O109    1.298   .     A
C65    O112    1.305   .     A
C65    C83     1.458   .     S
C66    C84     1.465   .     S
C66    O111    1.304   .     A
C66    O110    1.302   .     A
C67    N104    1.388   .     A
C67    N113    1.428   .     S
C67    C442    1.422   1_545 S
C68    N116    1.431   .     S
C68    N103    1.390   .     A
C68    C255    1.422   .     S
C69    N119    1.431   .     S
C69    N104    1.360   .     A
C69    C440    1.422   1_545 S
C70    N122    1.432   .     S
C70    N103    1.359   .     A
C70    C253    1.422   .     S
C71    H99     1.083   .     S
C71    C88     1.400   .     A
C72    H100    1.083   .     S
C72    C87     1.400   .     A
C72    C136    1.383   .     S
C73    H101    1.083   .     S
C73    C87     1.403   .     A
C73    C133    1.383   .     S
C74    H102    1.083   .     S
C74    C88     1.402   .     A
C75    C79     1.391   .     A
C75    C85     1.403   .     A
C75    H91     1.083   .     S
C76    C80     1.389   .     A
C76    H92     1.083   .     S
C76    C86     1.401   .     A
C77    H93     1.083   .     S
C77    C81     1.392   .     A
C77    C86     1.403   .     A
C78    H94     1.083   .     S
C78    C82     1.390   .     A
C78    C85     1.403   .     A
C79    H95     1.084   .     S
C79    C83     1.402   .     A
C80    H96     1.081   .     S
C80    C84     1.403   .     A
C81    H97     1.082   .     S
C81    C84     1.404   .     A
C82    H98     1.079   .     S
C82    C83     1.399   .     A
C85    C644    1.467   1_554 S
C86    C643    1.467   .     S
Cu89   O107    1.966   .     S
Cu89   O109    1.952   .     S
Cu89   O105    1.962   .     S
Cu89   Cu90    2.705   .     S
Cu89   N103    2.033   .     S
Cu89   O111    1.959   .     S
Cu90   O108    1.966   .     S
Cu90   O110    1.952   .     S
Cu90   N104    2.033   .     S
Cu90   O112    1.959   .     S
Cu90   O106    1.962   .     S
N113   H114    1.037   .     S
N113   H115    1.041   .     S
N116   H118    1.037   .     S
N116   H117    1.039   .     S
N119   H120    1.045   .     S
N119   H121    1.045   .     S
N122   H124    1.046   .     S
N122   H123    1.046   .     S
C125   O167    1.297   .     A
C125   C150    1.451   .     S
C125   O170    1.301   .     A
C126   O168    1.297   .     A
C126   O169    1.301   .     A
C126   C149    1.451   .     S
C127   O171    1.298   .     A
C127   O174    1.305   .     A
C127   C145    1.458   .     S
C128   C146    1.465   .     S
C128   O173    1.304   .     A
C128   O172    1.302   .     A
C129   N166    1.388   .     A
C129   N175    1.428   .     S
C129   C504    1.422   1_545 S
C130   N178    1.431   .     S
C130   N165    1.390   .     A
C130   C317    1.422   .     S
C131   N181    1.431   .     S
C131   N166    1.360   .     A
C131   C502    1.422   1_545 S
C132   N184    1.432   .     S
C132   N165    1.359   .     A
C132   C315    1.422   .     S
C133   H161    1.083   .     S
C133   C150    1.400   .     A
C134   H162    1.083   .     S
C134   C149    1.400   .     A
C134   C12     1.383   1_655 S
C135   H163    1.083   .     S
C135   C149    1.403   .     A
C135   C9      1.383   1_655 S
C136   H164    1.083   .     S
C136   C150    1.402   .     A
C137   C141    1.391   .     A
C137   C147    1.403   .     A
C137   H153    1.083   .     S
C138   C142    1.389   .     A
C138   H154    1.083   .     S
C138   C148    1.401   .     A
C139   H155    1.083   .     S
C139   C143    1.392   .     A
C139   C148    1.403   .     A
C140   H156    1.083   .     S
C140   C144    1.390   .     A
C140   C147    1.403   .     A
C141   H157    1.084   .     S
C141   C145    1.402   .     A
C142   H158    1.081   .     S
C142   C146    1.403   .     A
C143   H159    1.082   .     S
C143   C146    1.404   .     A
C144   H160    1.079   .     S
C144   C145    1.399   .     A
C147   C706    1.467   1_554 S
C148   C705    1.467   .     S
Cu151  O169    1.966   .     S
Cu151  O171    1.952   .     S
Cu151  O167    1.962   .     S
Cu151  Cu152   2.705   .     S
Cu151  N165    2.033   .     S
Cu151  O173    1.959   .     S
Cu152  O170    1.966   .     S
Cu152  O172    1.952   .     S
Cu152  N166    2.033   .     S
Cu152  O174    1.959   .     S
Cu152  O168    1.962   .     S
N175   H176    1.037   .     S
N175   H177    1.041   .     S
N178   H180    1.037   .     S
N178   H179    1.039   .     S
N181   H182    1.045   .     S
N181   H183    1.045   .     S
N184   H186    1.046   .     S
N184   H185    1.046   .     S
C187   O229    1.297   .     A
C187   C212    1.451   .     S
C187   O232    1.301   .     A
C188   O230    1.297   .     A
C188   O231    1.301   .     A
C188   C211    1.451   .     S
C189   O233    1.298   .     A
C189   O236    1.305   .     A
C189   C207    1.458   .     S
C190   C208    1.465   .     S
C190   O235    1.304   .     A
C190   O234    1.302   .     A
C191   N228    1.388   .     A
C191   N237    1.428   .     S
C192   N240    1.431   .     S
C192   N227    1.390   .     A
C192   C379    1.422   .     S
C193   N243    1.431   .     S
C193   N228    1.360   .     A
C194   N246    1.432   .     S
C194   N227    1.359   .     A
C194   C377    1.422   .     S
C195   H223    1.083   .     S
C195   C212    1.400   .     A
C195   C321    1.383   1_455 S
C196   H224    1.083   .     S
C196   C211    1.400   .     A
C196   C260    1.383   .     S
C197   H225    1.083   .     S
C197   C211    1.403   .     A
C197   C257    1.383   .     S
C198   H226    1.083   .     S
C198   C212    1.402   .     A
C198   C320    1.383   1_455 S
C199   C203    1.391   .     A
C199   C209    1.403   .     A
C199   H215    1.083   .     S
C200   C204    1.389   .     A
C200   H216    1.083   .     S
C200   C210    1.401   .     A
C201   H217    1.083   .     S
C201   C205    1.392   .     A
C201   C210    1.403   .     A
C202   H218    1.083   .     S
C202   C206    1.390   .     A
C202   C209    1.403   .     A
C203   H219    1.084   .     S
C203   C207    1.402   .     A
C204   H220    1.081   .     S
C204   C208    1.403   .     A
C205   H221    1.082   .     S
C205   C208    1.404   .     A
C206   H222    1.079   .     S
C206   C207    1.399   .     A
C209   C768    1.467   1_554 S
C210   C767    1.467   .     S
Cu213  O231    1.966   .     S
Cu213  O233    1.952   .     S
Cu213  O229    1.962   .     S
Cu213  Cu214   2.705   .     S
Cu213  N227    2.033   .     S
Cu213  O235    1.959   .     S
Cu214  O232    1.966   .     S
Cu214  O234    1.952   .     S
Cu214  N228    2.033   .     S
Cu214  O236    1.959   .     S
Cu214  O230    1.962   .     S
N237   H238    1.037   .     S
N237   H239    1.041   .     S
N240   H242    1.037   .     S
N240   H241    1.039   .     S
N243   H244    1.045   .     S
N243   H245    1.045   .     S
N246   H248    1.046   .     S
N246   H247    1.046   .     S
C249   O291    1.297   .     A
C249   C274    1.451   .     S
C249   O294    1.301   .     A
C250   O292    1.297   .     A
C250   O293    1.301   .     A
C250   C273    1.451   .     S
C251   O295    1.298   .     A
C251   O298    1.305   .     A
C251   C269    1.458   .     S
C252   C270    1.465   .     S
C252   O297    1.304   .     A
C252   O296    1.302   .     A
C253   N290    1.388   .     A
C253   N299    1.428   .     S
C254   N302    1.431   .     S
C254   N289    1.390   .     A
C254   C441    1.422   .     S
C255   N305    1.431   .     S
C255   N290    1.360   .     A
C256   N308    1.432   .     S
C256   N289    1.359   .     A
C256   C439    1.422   .     S
C257   H285    1.083   .     S
C257   C274    1.400   .     A
C258   H286    1.083   .     S
C258   C273    1.400   .     A
C258   C322    1.383   .     S
C259   H287    1.083   .     S
C259   C273    1.403   .     A
C259   C319    1.383   .     S
C260   H288    1.083   .     S
C260   C274    1.402   .     A
C261   C265    1.391   .     A
C261   C271    1.403   .     A
C261   H277    1.083   .     S
C262   C266    1.389   .     A
C262   H278    1.083   .     S
C262   C272    1.401   .     A
C263   H279    1.083   .     S
C263   C267    1.392   .     A
C263   C272    1.403   .     A
C264   H280    1.083   .     S
C264   C268    1.390   .     A
C264   C271    1.403   .     A
C265   H281    1.084   .     S
C265   C269    1.402   .     A
C266   H282    1.081   .     S
C266   C270    1.403   .     A
C267   H283    1.082   .     S
C267   C270    1.404   .     A
C268   H284    1.079   .     S
C268   C269    1.399   .     A
C271   C830    1.467   1_554 S
C272   C829    1.467   .     S
Cu275  O293    1.966   .     S
Cu275  O295    1.952   .     S
Cu275  O291    1.962   .     S
Cu275  Cu276   2.705   .     S
Cu275  N289    2.033   .     S
Cu275  O297    1.959   .     S
Cu276  O294    1.966   .     S
Cu276  O296    1.952   .     S
Cu276  N290    2.033   .     S
Cu276  O298    1.959   .     S
Cu276  O292    1.962   .     S
N299   H300    1.037   .     S
N299   H301    1.041   .     S
N302   H304    1.037   .     S
N302   H303    1.039   .     S
N305   H306    1.045   .     S
N305   H307    1.045   .     S
N308   H310    1.046   .     S
N308   H309    1.046   .     S
C311   O353    1.297   .     A
C311   C336    1.451   .     S
C311   O356    1.301   .     A
C312   O354    1.297   .     A
C312   O355    1.301   .     A
C312   C335    1.451   .     S
C313   O357    1.298   .     A
C313   O360    1.305   .     A
C313   C331    1.458   .     S
C314   C332    1.465   .     S
C314   O359    1.304   .     A
C314   O358    1.302   .     A
C315   N352    1.388   .     A
C315   N361    1.428   .     S
C316   N364    1.431   .     S
C316   N351    1.390   .     A
C316   C503    1.422   .     S
C317   N367    1.431   .     S
C317   N352    1.360   .     A
C318   N370    1.432   .     S
C318   N351    1.359   .     A
C318   C501    1.422   .     S
C319   H347    1.083   .     S
C319   C336    1.400   .     A
C320   H348    1.083   .     S
C320   C335    1.400   .     A
C320   C198    1.383   1_655 S
C321   H349    1.083   .     S
C321   C335    1.403   .     A
C321   C195    1.383   1_655 S
C322   H350    1.083   .     S
C322   C336    1.402   .     A
C323   C327    1.391   .     A
C323   C333    1.403   .     A
C323   H339    1.083   .     S
C324   C328    1.389   .     A
C324   H340    1.083   .     S
C324   C334    1.401   .     A
C325   H341    1.083   .     S
C325   C329    1.392   .     A
C325   C334    1.403   .     A
C326   H342    1.083   .     S
C326   C330    1.390   .     A
C326   C333    1.403   .     A
C327   H343    1.084   .     S
C327   C331    1.402   .     A
C328   H344    1.081   .     S
C328   C332    1.403   .     A
C329   H345    1.082   .     S
C329   C332    1.404   .     A
C330   H346    1.079   .     S
C330   C331    1.399   .     A
C333   C892    1.467   1_554 S
C334   C891    1.467   .     S
Cu337  O355    1.966   .     S
Cu337  O357    1.952   .     S
Cu337  O353    1.962   .     S
Cu337  Cu338   2.705   .     S
Cu337  N351    2.033   .     S
Cu337  O359    1.959   .     S
Cu338  O356    1.966   .     S
Cu338  O358    1.952   .     S
Cu338  N352    2.033   .     S
Cu338  O360    1.959   .     S
Cu338  O354    1.962   .     S
N361   H362    1.037   .     S
N361   H363    1.041   .     S
N364   H366    1.037   .     S
N364   H365    1.039   .     S
N367   H368    1.045   .     S
N367   H369    1.045   .     S
N370   H372    1.046   .     S
N370   H371    1.046   .     S
C373   O415    1.297   .     A
C373   C398    1.451   .     S
C373   O418    1.301   .     A
C374   O416    1.297   .     A
C374   O417    1.301   .     A
C374   C397    1.451   .     S
C375   O419    1.298   .     A
C375   O422    1.305   .     A
C375   C393    1.458   .     S
C376   C394    1.465   .     S
C376   O421    1.304   .     A
C376   O420    1.302   .     A
C377   N414    1.388   .     A
C377   N423    1.428   .     S
C378   N426    1.431   .     S
C378   N413    1.390   .     A
C378   C7      1.422   1_565 S
C379   N429    1.431   .     S
C379   N414    1.360   .     A
C380   N432    1.432   .     S
C380   N413    1.359   .     A
C380   C5      1.422   1_565 S
C381   H409    1.083   .     S
C381   C398    1.400   .     A
C381   C507    1.383   1_455 S
C382   H410    1.083   .     S
C382   C397    1.400   .     A
C382   C446    1.383   .     S
C383   H411    1.083   .     S
C383   C397    1.403   .     A
C383   C443    1.383   .     S
C384   H412    1.083   .     S
C384   C398    1.402   .     A
C384   C506    1.383   1_455 S
C385   C389    1.391   .     A
C385   C395    1.403   .     A
C385   H401    1.083   .     S
C386   C390    1.389   .     A
C386   H402    1.083   .     S
C386   C396    1.401   .     A
C387   H403    1.083   .     S
C387   C391    1.392   .     A
C387   C396    1.403   .     A
C388   H404    1.083   .     S
C388   C392    1.390   .     A
C388   C395    1.403   .     A
C389   H405    1.084   .     S
C389   C393    1.402   .     A
C390   H406    1.081   .     S
C390   C394    1.403   .     A
C391   H407    1.082   .     S
C391   C394    1.404   .     A
C392   H408    1.079   .     S
C392   C393    1.399   .     A
C395   C954    1.467   1_554 S
C396   C953    1.467   .     S
Cu399  O417    1.966   .     S
Cu399  O419    1.952   .     S
Cu399  O415    1.962   .     S
Cu399  Cu400   2.705   .     S
Cu399  N413    2.033   .     S
Cu399  O421    1.959   .     S
Cu400  O418    1.966   .     S
Cu400  O420    1.952   .     S
Cu400  N414    2.033   .     S
Cu400  O422    1.959   .     S
Cu400  O416    1.962   .     S
N423   H424    1.037   .     S
N423   H425    1.041   .     S
N426   H428    1.037   .     S
N426   H427    1.039   .     S
N429   H430    1.045   .     S
N429   H431    1.045   .     S
N432   H434    1.046   .     S
N432   H433    1.046   .     S
C435   O477    1.297   .     A
C435   C460    1.451   .     S
C435   O480    1.301   .     A
C436   O478    1.297   .     A
C436   O479    1.301   .     A
C436   C459    1.451   .     S
C437   O481    1.298   .     A
C437   O484    1.305   .     A
C437   C455    1.458   .     S
C438   C456    1.465   .     S
C438   O483    1.304   .     A
C438   O482    1.302   .     A
C439   N476    1.388   .     A
C439   N485    1.428   .     S
C440   N488    1.431   .     S
C440   N475    1.390   .     A
C440   C69     1.422   1_565 S
C441   N491    1.431   .     S
C441   N476    1.360   .     A
C442   N494    1.432   .     S
C442   N475    1.359   .     A
C442   C67     1.422   1_565 S
C443   H471    1.083   .     S
C443   C460    1.400   .     A
C444   H472    1.083   .     S
C444   C459    1.400   .     A
C444   C508    1.383   .     S
C445   H473    1.083   .     S
C445   C459    1.403   .     A
C445   C505    1.383   .     S
C446   H474    1.083   .     S
C446   C460    1.402   .     A
C447   C451    1.391   .     A
C447   C457    1.403   .     A
C447   H463    1.083   .     S
C448   C452    1.389   .     A
C448   H464    1.083   .     S
C448   C458    1.401   .     A
C449   H465    1.083   .     S
C449   C453    1.392   .     A
C449   C458    1.403   .     A
C450   H466    1.083   .     S
C450   C454    1.390   .     A
C450   C457    1.403   .     A
C451   H467    1.084   .     S
C451   C455    1.402   .     A
C452   H468    1.081   .     S
C452   C456    1.403   .     A
C453   H469    1.082   .     S
C453   C456    1.404   .     A
C454   H470    1.079   .     S
C454   C455    1.399   .     A
C457   C1016   1.467   1_554 S
C458   C1015   1.467   .     S
Cu461  O479    1.966   .     S
Cu461  O481    1.952   .     S
Cu461  O477    1.962   .     S
Cu461  Cu462   2.705   .     S
Cu461  N475    2.033   .     S
Cu461  O483    1.959   .     S
Cu462  O480    1.966   .     S
Cu462  O482    1.952   .     S
Cu462  N476    2.033   .     S
Cu462  O484    1.959   .     S
Cu462  O478    1.962   .     S
N485   H486    1.037   .     S
N485   H487    1.041   .     S
N488   H490    1.037   .     S
N488   H489    1.039   .     S
N491   H492    1.045   .     S
N491   H493    1.045   .     S
N494   H496    1.046   .     S
N494   H495    1.046   .     S
C497   O539    1.297   .     A
C497   C522    1.451   .     S
C497   O542    1.301   .     A
C498   O540    1.297   .     A
C498   O541    1.301   .     A
C498   C521    1.451   .     S
C499   O543    1.298   .     A
C499   O546    1.305   .     A
C499   C517    1.458   .     S
C500   C518    1.465   .     S
C500   O545    1.304   .     A
C500   O544    1.302   .     A
C501   N538    1.388   .     A
C501   N547    1.428   .     S
C502   N550    1.431   .     S
C502   N537    1.390   .     A
C502   C131    1.422   1_565 S
C503   N553    1.431   .     S
C503   N538    1.360   .     A
C504   N556    1.432   .     S
C504   N537    1.359   .     A
C504   C129    1.422   1_565 S
C505   H533    1.083   .     S
C505   C522    1.400   .     A
C506   H534    1.083   .     S
C506   C521    1.400   .     A
C506   C384    1.383   1_655 S
C507   H535    1.083   .     S
C507   C521    1.403   .     A
C507   C381    1.383   1_655 S
C508   H536    1.083   .     S
C508   C522    1.402   .     A
C509   C513    1.391   .     A
C509   C519    1.403   .     A
C509   H525    1.083   .     S
C510   C514    1.389   .     A
C510   H526    1.083   .     S
C510   C520    1.401   .     A
C511   H527    1.083   .     S
C511   C515    1.392   .     A
C511   C520    1.403   .     A
C512   H528    1.083   .     S
C512   C516    1.390   .     A
C512   C519    1.403   .     A
C513   H529    1.084   .     S
C513   C517    1.402   .     A
C514   H530    1.081   .     S
C514   C518    1.403   .     A
C515   H531    1.082   .     S
C515   C518    1.404   .     A
C516   H532    1.079   .     S
C516   C517    1.399   .     A
C519   C1078   1.467   1_554 S
C520   C1077   1.467   .     S
Cu523  O541    1.966   .     S
Cu523  O543    1.952   .     S
Cu523  O539    1.962   .     S
Cu523  Cu524   2.705   .     S
Cu523  N537    2.033   .     S
Cu523  O545    1.959   .     S
Cu524  O542    1.966   .     S
Cu524  O544    1.952   .     S
Cu524  N538    2.033   .     S
Cu524  O546    1.959   .     S
Cu524  O540    1.962   .     S
N547   H548    1.037   .     S
N547   H549    1.041   .     S
N550   H552    1.037   .     S
N550   H551    1.039   .     S
N553   H554    1.045   .     S
N553   H555    1.045   .     S
N556   H558    1.046   .     S
N556   H557    1.046   .     S
C559   O601    1.297   .     A
C559   C584    1.451   .     S
C559   O604    1.301   .     A
C560   O602    1.297   .     A
C560   O603    1.301   .     A
C560   C583    1.451   .     S
C561   O605    1.298   .     A
C561   O608    1.305   .     A
C561   C579    1.458   .     S
C562   C580    1.465   .     S
C562   O607    1.304   .     A
C562   O606    1.302   .     A
C563   N600    1.388   .     A
C563   N609    1.428   .     S
C563   C938    1.422   1_545 S
C564   N612    1.431   .     S
C564   N599    1.390   .     A
C564   C751    1.422   .     S
C565   N615    1.431   .     S
C565   N600    1.360   .     A
C565   C936    1.422   1_545 S
C566   N618    1.432   .     S
C566   N599    1.359   .     A
C566   C749    1.422   .     S
C567   H595    1.083   .     S
C567   C584    1.400   .     A
C567   C693    1.383   1_455 S
C568   H596    1.083   .     S
C568   C583    1.400   .     A
C568   C632    1.383   .     S
C569   H597    1.083   .     S
C569   C583    1.403   .     A
C569   C629    1.383   .     S
C570   H598    1.083   .     S
C570   C584    1.402   .     A
C570   C692    1.383   1_455 S
C571   C575    1.391   .     A
C571   C581    1.403   .     A
C571   H587    1.083   .     S
C572   C576    1.389   .     A
C572   H588    1.083   .     S
C572   C582    1.401   .     A
C573   H589    1.083   .     S
C573   C577    1.392   .     A
C573   C582    1.403   .     A
C574   H590    1.083   .     S
C574   C578    1.390   .     A
C574   C581    1.403   .     A
C575   H591    1.084   .     S
C575   C579    1.402   .     A
C576   H592    1.081   .     S
C576   C580    1.403   .     A
C577   H593    1.082   .     S
C577   C580    1.404   .     A
C578   H594    1.079   .     S
C578   C579    1.399   .     A
C582   C23     1.467   1_556 S
Cu585  O603    1.966   .     S
Cu585  O605    1.952   .     S
Cu585  O601    1.962   .     S
Cu585  Cu586   2.705   .     S
Cu585  N599    2.033   .     S
Cu585  O607    1.959   .     S
Cu586  O604    1.966   .     S
Cu586  O606    1.952   .     S
Cu586  N600    2.033   .     S
Cu586  O608    1.959   .     S
Cu586  O602    1.962   .     S
N609   H610    1.037   .     S
N609   H611    1.041   .     S
N612   H614    1.037   .     S
N612   H613    1.039   .     S
N615   H616    1.045   .     S
N615   H617    1.045   .     S
N618   H620    1.046   .     S
N618   H619    1.046   .     S
C621   O663    1.297   .     A
C621   C646    1.451   .     S
C621   O666    1.301   .     A
C622   O664    1.297   .     A
C622   O665    1.301   .     A
C622   C645    1.451   .     S
C623   O667    1.298   .     A
C623   O670    1.305   .     A
C623   C641    1.458   .     S
C624   C642    1.465   .     S
C624   O669    1.304   .     A
C624   O668    1.302   .     A
C625   N662    1.388   .     A
C625   N671    1.428   .     S
C625   C1000   1.422   1_545 S
C626   N674    1.431   .     S
C626   N661    1.390   .     A
C626   C813    1.422   .     S
C627   N677    1.431   .     S
C627   N662    1.360   .     A
C627   C998    1.422   1_545 S
C628   N680    1.432   .     S
C628   N661    1.359   .     A
C628   C811    1.422   .     S
C629   H657    1.083   .     S
C629   C646    1.400   .     A
C630   H658    1.083   .     S
C630   C645    1.400   .     A
C630   C694    1.383   .     S
C631   H659    1.083   .     S
C631   C645    1.403   .     A
C631   C691    1.383   .     S
C632   H660    1.083   .     S
C632   C646    1.402   .     A
C633   C637    1.391   .     A
C633   C643    1.403   .     A
C633   H649    1.083   .     S
C634   C638    1.389   .     A
C634   H650    1.083   .     S
C634   C644    1.401   .     A
C635   H651    1.083   .     S
C635   C639    1.392   .     A
C635   C644    1.403   .     A
C636   H652    1.083   .     S
C636   C640    1.390   .     A
C636   C643    1.403   .     A
C637   H653    1.084   .     S
C637   C641    1.402   .     A
C638   H654    1.081   .     S
C638   C642    1.403   .     A
C639   H655    1.082   .     S
C639   C642    1.404   .     A
C640   H656    1.079   .     S
C640   C641    1.399   .     A
C644   C85     1.467   1_556 S
Cu647  O665    1.966   .     S
Cu647  O667    1.952   .     S
Cu647  O663    1.962   .     S
Cu647  Cu648   2.705   .     S
Cu647  N661    2.033   .     S
Cu647  O669    1.959   .     S
Cu648  O666    1.966   .     S
Cu648  O668    1.952   .     S
Cu648  N662    2.033   .     S
Cu648  O670    1.959   .     S
Cu648  O664    1.962   .     S
N671   H672    1.037   .     S
N671   H673    1.041   .     S
N674   H676    1.037   .     S
N674   H675    1.039   .     S
N677   H678    1.045   .     S
N677   H679    1.045   .     S
N680   H682    1.046   .     S
N680   H681    1.046   .     S
C683   O725    1.297   .     A
C683   C708    1.451   .     S
C683   O728    1.301   .     A
C684   O726    1.297   .     A
C684   O727    1.301   .     A
C684   C707    1.451   .     S
C685   O729    1.298   .     A
C685   O732    1.305   .     A
C685   C703    1.458   .     S
C686   C704    1.465   .     S
C686   O731    1.304   .     A
C686   O730    1.302   .     A
C687   N724    1.388   .     A
C687   N733    1.428   .     S
C687   C1062   1.422   1_545 S
C688   N736    1.431   .     S
C688   N723    1.390   .     A
C688   C875    1.422   .     S
C689   N739    1.431   .     S
C689   N724    1.360   .     A
C689   C1060   1.422   1_545 S
C690   N742    1.432   .     S
C690   N723    1.359   .     A
C690   C873    1.422   .     S
C691   H719    1.083   .     S
C691   C708    1.400   .     A
C692   H720    1.083   .     S
C692   C707    1.400   .     A
C692   C570    1.383   1_655 S
C693   H721    1.083   .     S
C693   C707    1.403   .     A
C693   C567    1.383   1_655 S
C694   H722    1.083   .     S
C694   C708    1.402   .     A
C695   C699    1.391   .     A
C695   C705    1.403   .     A
C695   H711    1.083   .     S
C696   C700    1.389   .     A
C696   H712    1.083   .     S
C696   C706    1.401   .     A
C697   H713    1.083   .     S
C697   C701    1.392   .     A
C697   C706    1.403   .     A
C698   H714    1.083   .     S
C698   C702    1.390   .     A
C698   C705    1.403   .     A
C699   H715    1.084   .     S
C699   C703    1.402   .     A
C700   H716    1.081   .     S
C700   C704    1.403   .     A
C701   H717    1.082   .     S
C701   C704    1.404   .     A
C702   H718    1.079   .     S
C702   C703    1.399   .     A
C706   C147    1.467   1_556 S
Cu709  O727    1.966   .     S
Cu709  O729    1.952   .     S
Cu709  O725    1.962   .     S
Cu709  Cu710   2.705   .     S
Cu709  N723    2.033   .     S
Cu709  O731    1.959   .     S
Cu710  O728    1.966   .     S
Cu710  O730    1.952   .     S
Cu710  N724    2.033   .     S
Cu710  O732    1.959   .     S
Cu710  O726    1.962   .     S
N733   H734    1.037   .     S
N733   H735    1.041   .     S
N736   H738    1.037   .     S
N736   H737    1.039   .     S
N739   H740    1.045   .     S
N739   H741    1.045   .     S
N742   H744    1.046   .     S
N742   H743    1.046   .     S
C745   O787    1.297   .     A
C745   C770    1.451   .     S
C745   O790    1.301   .     A
C746   O788    1.297   .     A
C746   O789    1.301   .     A
C746   C769    1.451   .     S
C747   O791    1.298   .     A
C747   O794    1.305   .     A
C747   C765    1.458   .     S
C748   C766    1.465   .     S
C748   O793    1.304   .     A
C748   O792    1.302   .     A
C749   N786    1.388   .     A
C749   N795    1.428   .     S
C750   N798    1.431   .     S
C750   N785    1.390   .     A
C750   C937    1.422   .     S
C751   N801    1.431   .     S
C751   N786    1.360   .     A
C752   N804    1.432   .     S
C752   N785    1.359   .     A
C752   C935    1.422   .     S
C753   H781    1.083   .     S
C753   C770    1.400   .     A
C753   C879    1.383   1_455 S
C754   H782    1.083   .     S
C754   C769    1.400   .     A
C754   C818    1.383   .     S
C755   H783    1.083   .     S
C755   C769    1.403   .     A
C755   C815    1.383   .     S
C756   H784    1.083   .     S
C756   C770    1.402   .     A
C756   C878    1.383   1_455 S
C757   C761    1.391   .     A
C757   C767    1.403   .     A
C757   H773    1.083   .     S
C758   C762    1.389   .     A
C758   H774    1.083   .     S
C758   C768    1.401   .     A
C759   H775    1.083   .     S
C759   C763    1.392   .     A
C759   C768    1.403   .     A
C760   H776    1.083   .     S
C760   C764    1.390   .     A
C760   C767    1.403   .     A
C761   H777    1.084   .     S
C761   C765    1.402   .     A
C762   H778    1.081   .     S
C762   C766    1.403   .     A
C763   H779    1.082   .     S
C763   C766    1.404   .     A
C764   H780    1.079   .     S
C764   C765    1.399   .     A
C768   C209    1.467   1_556 S
Cu771  O789    1.966   .     S
Cu771  O791    1.952   .     S
Cu771  O787    1.962   .     S
Cu771  Cu772   2.705   .     S
Cu771  N785    2.033   .     S
Cu771  O793    1.959   .     S
Cu772  O790    1.966   .     S
Cu772  O792    1.952   .     S
Cu772  N786    2.033   .     S
Cu772  O794    1.959   .     S
Cu772  O788    1.962   .     S
N795   H796    1.037   .     S
N795   H797    1.041   .     S
N798   H800    1.037   .     S
N798   H799    1.039   .     S
N801   H802    1.045   .     S
N801   H803    1.045   .     S
N804   H806    1.046   .     S
N804   H805    1.046   .     S
C807   O849    1.297   .     A
C807   C832    1.451   .     S
C807   O852    1.301   .     A
C808   O850    1.297   .     A
C808   O851    1.301   .     A
C808   C831    1.451   .     S
C809   O853    1.298   .     A
C809   O856    1.305   .     A
C809   C827    1.458   .     S
C810   C828    1.465   .     S
C810   O855    1.304   .     A
C810   O854    1.302   .     A
C811   N848    1.388   .     A
C811   N857    1.428   .     S
C812   N860    1.431   .     S
C812   N847    1.390   .     A
C812   C999    1.422   .     S
C813   N863    1.431   .     S
C813   N848    1.360   .     A
C814   N866    1.432   .     S
C814   N847    1.359   .     A
C814   C997    1.422   .     S
C815   H843    1.083   .     S
C815   C832    1.400   .     A
C816   H844    1.083   .     S
C816   C831    1.400   .     A
C816   C880    1.383   .     S
C817   H845    1.083   .     S
C817   C831    1.403   .     A
C817   C877    1.383   .     S
C818   H846    1.083   .     S
C818   C832    1.402   .     A
C819   C823    1.391   .     A
C819   C829    1.403   .     A
C819   H835    1.083   .     S
C820   C824    1.389   .     A
C820   H836    1.083   .     S
C820   C830    1.401   .     A
C821   H837    1.083   .     S
C821   C825    1.392   .     A
C821   C830    1.403   .     A
C822   H838    1.083   .     S
C822   C826    1.390   .     A
C822   C829    1.403   .     A
C823   H839    1.084   .     S
C823   C827    1.402   .     A
C824   H840    1.081   .     S
C824   C828    1.403   .     A
C825   H841    1.082   .     S
C825   C828    1.404   .     A
C826   H842    1.079   .     S
C826   C827    1.399   .     A
C830   C271    1.467   1_556 S
Cu833  O851    1.966   .     S
Cu833  O853    1.952   .     S
Cu833  O849    1.962   .     S
Cu833  Cu834   2.705   .     S
Cu833  N847    2.033   .     S
Cu833  O855    1.959   .     S
Cu834  O852    1.966   .     S
Cu834  O854    1.952   .     S
Cu834  N848    2.033   .     S
Cu834  O856    1.959   .     S
Cu834  O850    1.962   .     S
N857   H858    1.037   .     S
N857   H859    1.041   .     S
N860   H862    1.037   .     S
N860   H861    1.039   .     S
N863   H864    1.045   .     S
N863   H865    1.045   .     S
N866   H868    1.046   .     S
N866   H867    1.046   .     S
C869   O911    1.297   .     A
C869   C894    1.451   .     S
C869   O914    1.301   .     A
C870   O912    1.297   .     A
C870   O913    1.301   .     A
C870   C893    1.451   .     S
C871   O915    1.298   .     A
C871   O918    1.305   .     A
C871   C889    1.458   .     S
C872   C890    1.465   .     S
C872   O917    1.304   .     A
C872   O916    1.302   .     A
C873   N910    1.388   .     A
C873   N919    1.428   .     S
C874   N922    1.431   .     S
C874   N909    1.390   .     A
C874   C1061   1.422   .     S
C875   N925    1.431   .     S
C875   N910    1.360   .     A
C876   N928    1.432   .     S
C876   N909    1.359   .     A
C876   C1059   1.422   .     S
C877   H905    1.083   .     S
C877   C894    1.400   .     A
C878   H906    1.083   .     S
C878   C893    1.400   .     A
C878   C756    1.383   1_655 S
C879   H907    1.083   .     S
C879   C893    1.403   .     A
C879   C753    1.383   1_655 S
C880   H908    1.083   .     S
C880   C894    1.402   .     A
C881   C885    1.391   .     A
C881   C891    1.403   .     A
C881   H897    1.083   .     S
C882   C886    1.389   .     A
C882   H898    1.083   .     S
C882   C892    1.401   .     A
C883   H899    1.083   .     S
C883   C887    1.392   .     A
C883   C892    1.403   .     A
C884   H900    1.083   .     S
C884   C888    1.390   .     A
C884   C891    1.403   .     A
C885   H901    1.084   .     S
C885   C889    1.402   .     A
C886   H902    1.081   .     S
C886   C890    1.403   .     A
C887   H903    1.082   .     S
C887   C890    1.404   .     A
C888   H904    1.079   .     S
C888   C889    1.399   .     A
C892   C333    1.467   1_556 S
Cu895  O913    1.966   .     S
Cu895  O915    1.952   .     S
Cu895  O911    1.962   .     S
Cu895  Cu896   2.705   .     S
Cu895  N909    2.033   .     S
Cu895  O917    1.959   .     S
Cu896  O914    1.966   .     S
Cu896  O916    1.952   .     S
Cu896  N910    2.033   .     S
Cu896  O918    1.959   .     S
Cu896  O912    1.962   .     S
N919   H920    1.037   .     S
N919   H921    1.041   .     S
N922   H924    1.037   .     S
N922   H923    1.039   .     S
N925   H926    1.045   .     S
N925   H927    1.045   .     S
N928   H930    1.046   .     S
N928   H929    1.046   .     S
C931   O973    1.297   .     A
C931   C956    1.451   .     S
C931   O976    1.301   .     A
C932   O974    1.297   .     A
C932   O975    1.301   .     A
C932   C955    1.451   .     S
C933   O977    1.298   .     A
C933   O980    1.305   .     A
C933   C951    1.458   .     S
C934   C952    1.465   .     S
C934   O979    1.304   .     A
C934   O978    1.302   .     A
C935   N972    1.388   .     A
C935   N981    1.428   .     S
C936   N984    1.431   .     S
C936   N971    1.390   .     A
C936   C565    1.422   1_565 S
C937   N987    1.431   .     S
C937   N972    1.360   .     A
C938   N990    1.432   .     S
C938   N971    1.359   .     A
C938   C563    1.422   1_565 S
C939   H967    1.083   .     S
C939   C956    1.400   .     A
C939   C1065   1.383   1_455 S
C940   H968    1.083   .     S
C940   C955    1.400   .     A
C940   C1004   1.383   .     S
C941   H969    1.083   .     S
C941   C955    1.403   .     A
C941   C1001   1.383   .     S
C942   H970    1.083   .     S
C942   C956    1.402   .     A
C942   C1064   1.383   1_455 S
C943   C947    1.391   .     A
C943   C953    1.403   .     A
C943   H959    1.083   .     S
C944   C948    1.389   .     A
C944   H960    1.083   .     S
C944   C954    1.401   .     A
C945   H961    1.083   .     S
C945   C949    1.392   .     A
C945   C954    1.403   .     A
C946   H962    1.083   .     S
C946   C950    1.390   .     A
C946   C953    1.403   .     A
C947   H963    1.084   .     S
C947   C951    1.402   .     A
C948   H964    1.081   .     S
C948   C952    1.403   .     A
C949   H965    1.082   .     S
C949   C952    1.404   .     A
C950   H966    1.079   .     S
C950   C951    1.399   .     A
C954   C395    1.467   1_556 S
Cu957  O975    1.966   .     S
Cu957  O977    1.952   .     S
Cu957  O973    1.962   .     S
Cu957  Cu958   2.705   .     S
Cu957  N971    2.033   .     S
Cu957  O979    1.959   .     S
Cu958  O976    1.966   .     S
Cu958  O978    1.952   .     S
Cu958  N972    2.033   .     S
Cu958  O980    1.959   .     S
Cu958  O974    1.962   .     S
N981   H982    1.037   .     S
N981   H983    1.041   .     S
N984   H986    1.037   .     S
N984   H985    1.039   .     S
N987   H988    1.045   .     S
N987   H989    1.045   .     S
N990   H992    1.046   .     S
N990   H991    1.046   .     S
C993   O1035   1.297   .     A
C993   C1018   1.451   .     S
C993   O1038   1.301   .     A
C994   O1036   1.297   .     A
C994   O1037   1.301   .     A
C994   C1017   1.451   .     S
C995   O1039   1.298   .     A
C995   O1042   1.305   .     A
C995   C1013   1.458   .     S
C996   C1014   1.465   .     S
C996   O1041   1.304   .     A
C996   O1040   1.302   .     A
C997   N1034   1.388   .     A
C997   N1043   1.428   .     S
C998   N1046   1.431   .     S
C998   N1033   1.390   .     A
C998   C627    1.422   1_565 S
C999   N1049   1.431   .     S
C999   N1034   1.360   .     A
C1000  N1052   1.432   .     S
C1000  N1033   1.359   .     A
C1000  C625    1.422   1_565 S
C1001  H1029   1.083   .     S
C1001  C1018   1.400   .     A
C1002  H1030   1.083   .     S
C1002  C1017   1.400   .     A
C1002  C1066   1.383   .     S
C1003  H1031   1.083   .     S
C1003  C1017   1.403   .     A
C1003  C1063   1.383   .     S
C1004  H1032   1.083   .     S
C1004  C1018   1.402   .     A
C1005  C1009   1.391   .     A
C1005  C1015   1.403   .     A
C1005  H1021   1.083   .     S
C1006  C1010   1.389   .     A
C1006  H1022   1.083   .     S
C1006  C1016   1.401   .     A
C1007  H1023   1.083   .     S
C1007  C1011   1.392   .     A
C1007  C1016   1.403   .     A
C1008  H1024   1.083   .     S
C1008  C1012   1.390   .     A
C1008  C1015   1.403   .     A
C1009  H1025   1.084   .     S
C1009  C1013   1.402   .     A
C1010  H1026   1.081   .     S
C1010  C1014   1.403   .     A
C1011  H1027   1.082   .     S
C1011  C1014   1.404   .     A
C1012  H1028   1.079   .     S
C1012  C1013   1.399   .     A
C1016  C457    1.467   1_556 S
Cu1019 O1037   1.966   .     S
Cu1019 O1039   1.952   .     S
Cu1019 O1035   1.962   .     S
Cu1019 Cu1020  2.705   .     S
Cu1019 N1033   2.033   .     S
Cu1019 O1041   1.959   .     S
Cu1020 O1038   1.966   .     S
Cu1020 O1040   1.952   .     S
Cu1020 N1034   2.033   .     S
Cu1020 O1042   1.959   .     S
Cu1020 O1036   1.962   .     S
N1043  H1044   1.037   .     S
N1043  H1045   1.041   .     S
N1046  H1048   1.037   .     S
N1046  H1047   1.039   .     S
N1049  H1050   1.045   .     S
N1049  H1051   1.045   .     S
N1052  H1054   1.046   .     S
N1052  H1053   1.046   .     S
C1055  O1097   1.297   .     A
C1055  C1080   1.451   .     S
C1055  O1100   1.301   .     A
C1056  O1098   1.297   .     A
C1056  O1099   1.301   .     A
C1056  C1079   1.451   .     S
C1057  O1101   1.298   .     A
C1057  O1104   1.305   .     A
C1057  C1075   1.458   .     S
C1058  C1076   1.465   .     S
C1058  O1103   1.304   .     A
C1058  O1102   1.302   .     A
C1059  N1096   1.388   .     A
C1059  N1105   1.428   .     S
C1060  N1108   1.431   .     S
C1060  N1095   1.390   .     A
C1060  C689    1.422   1_565 S
C1061  N1111   1.431   .     S
C1061  N1096   1.360   .     A
C1062  N1114   1.432   .     S
C1062  N1095   1.359   .     A
C1062  C687    1.422   1_565 S
C1063  H1091   1.083   .     S
C1063  C1080   1.400   .     A
C1064  H1092   1.083   .     S
C1064  C1079   1.400   .     A
C1064  C942    1.383   1_655 S
C1065  H1093   1.083   .     S
C1065  C1079   1.403   .     A
C1065  C939    1.383   1_655 S
C1066  H1094   1.083   .     S
C1066  C1080   1.402   .     A
C1067  C1071   1.391   .     A
C1067  C1077   1.403   .     A
C1067  H1083   1.083   .     S
C1068  C1072   1.389   .     A
C1068  H1084   1.083   .     S
C1068  C1078   1.401   .     A
C1069  H1085   1.083   .     S
C1069  C1073   1.392   .     A
C1069  C1078   1.403   .     A
C1070  H1086   1.083   .     S
C1070  C1074   1.390   .     A
C1070  C1077   1.403   .     A
C1071  H1087   1.084   .     S
C1071  C1075   1.402   .     A
C1072  H1088   1.081   .     S
C1072  C1076   1.403   .     A
C1073  H1089   1.082   .     S
C1073  C1076   1.404   .     A
C1074  H1090   1.079   .     S
C1074  C1075   1.399   .     A
C1078  C519    1.467   1_556 S
Cu1081 O1099   1.966   .     S
Cu1081 O1101   1.952   .     S
Cu1081 O1097   1.962   .     S
Cu1081 Cu1082  2.705   .     S
Cu1081 N1095   2.033   .     S
Cu1081 O1103   1.959   .     S
Cu1082 O1100   1.966   .     S
Cu1082 O1102   1.952   .     S
Cu1082 N1096   2.033   .     S
Cu1082 O1104   1.959   .     S
Cu1082 O1098   1.962   .     S
N1105  H1106   1.037   .     S
N1105  H1107   1.041   .     S
N1108  H1110   1.037   .     S
N1108  H1109   1.039   .     S
N1111  H1112   1.045   .     S
N1111  H1113   1.045   .     S
N1114  H1116   1.046   .     S
N1114  H1115   1.046   .     S
