data_str_m2_o1_o17_pcu_sym.191
_audit_creation_date              2020-01-03
_audit_creation_method            'Materials Studio'
_symmetry_space_group_name_H-M    'P1'
_symmetry_Int_Tables_number       1
_symmetry_cell_setting            triclinic
loop_
_symmetry_equiv_pos_as_xyz
  x,y,z
_cell_length_a                    32.4997
_cell_length_b                    28.5453
_cell_length_c                    30.1311
_cell_angle_alpha                 89.9824
_cell_angle_beta                  90.2231
_cell_angle_gamma                 90.0229
loop_
_atom_site_label
_atom_site_type_symbol
_atom_site_fract_x
_atom_site_fract_y
_atom_site_fract_z
_atom_site_U_iso_or_equiv
_atom_site_adp_type
_atom_site_occupancy
C1     C     0.08735   0.16666   0.24998   0.00000  Uiso   1.00
C2     C     0.24598   0.16667   0.25002   0.00000  Uiso   1.00
C3     C     0.12273   0.23504   0.02470   0.00000  Uiso   1.00
C4     C     0.21057   0.09828   0.47530   0.00000  Uiso   1.00
C5     C     0.02126   0.12410   0.24928   0.00000  Uiso   1.00
C6     C     0.31207   0.20924   0.25072   0.00000  Uiso   1.00
C7     C     0.31203   0.12410   0.24930   0.00000  Uiso   1.00
C8     C     0.02131   0.20923   0.25070   0.00000  Uiso   1.00
C9     C     0.29060   0.16667   0.25001   0.00000  Uiso   1.00
C10    C     0.04274   0.16666   0.24999   0.00000  Uiso   1.00
C11    C     0.14087   0.02481   0.22260   0.00000  Uiso   1.00
C12    C     0.19247   0.30853   0.27740   0.00000  Uiso   1.00
C13    C     0.19247   0.02482   0.27740   0.00000  Uiso   1.00
C14    C     0.14087   0.30852   0.22260   0.00000  Uiso   1.00
C15    C     0.16793   0.16667   0.16441   0.00000  Uiso   1.00
C16    C     0.16539   0.16666   0.33559   0.00000  Uiso   1.00
C17    C     0.18610   0.13241   0.40667   0.00000  Uiso   1.00
C18    C     0.14720   0.20091   0.09333   0.00000  Uiso   1.00
C19    C     0.16338   0.16647   0.38391   0.00000  Uiso   1.00
C20    C     0.16993   0.16686   0.11609   0.00000  Uiso   1.00
C21    C     0.14019   0.20028   0.40750   0.00000  Uiso   1.00
C22    C     0.19311   0.13304   0.09250   0.00000  Uiso   1.00
C23    C     0.14234   0.20098   0.45404   0.00000  Uiso   1.00
C24    C     0.19095   0.13234   0.04596   0.00000  Uiso   1.00
C25    C     0.16580   0.16666   0.47668   0.00000  Uiso   1.00
C26    C     0.16749   0.16666   0.02333   0.00000  Uiso   1.00
C27    C     0.18744   0.13218   0.45279   0.00000  Uiso   1.00
C28    C     0.14586   0.20113   0.04722   0.00000  Uiso   1.00
C29    C     0.12089   0.23494   0.47854   0.00000  Uiso   1.00
C30    C     0.21240   0.09837   0.02146   0.00000  Uiso   1.00
Cu31   Cu    0.16667   0.21355   0.25000   0.00000  Uiso   1.00
Cu32   Cu    0.16667   0.11978   0.25000   0.00000  Uiso   1.00
H33    H     0.20358   0.10654   0.38829   0.00000  Uiso   1.00
H34    H     0.12973   0.22679   0.11171   0.00000  Uiso   1.00
H35    H     0.10264   0.26163   0.46219   0.00000  Uiso   1.00
H36    H     0.23066   0.07169   0.03781   0.00000  Uiso   1.00
H37    H     0.10592   0.26161   0.04282   0.00000  Uiso   1.00
H38    H     0.22738   0.07171   0.45718   0.00000  Uiso   1.00
H39    H     0.03726   0.09082   0.24868   0.00000  Uiso   1.00
H40    H     0.29608   0.24251   0.25132   0.00000  Uiso   1.00
H41    H     0.29600   0.09083   0.24873   0.00000  Uiso   1.00
H42    H     0.03733   0.24251   0.25128   0.00000  Uiso   1.00
H43    H     0.12020   0.04351   0.20065   0.00000  Uiso   1.00
H44    H     0.21313   0.28982   0.29935   0.00000  Uiso   1.00
H45    H     0.21313   0.04353   0.29936   0.00000  Uiso   1.00
H46    H     0.12021   0.28980   0.20065   0.00000  Uiso   1.00
N47    N     0.16667   0.28402   0.25000   0.00000  Uiso   1.00
N48    N     0.16667   0.04931   0.25000   0.00000  Uiso   1.00
O49    O     0.10655   0.20625   0.25000   0.00000  Uiso   1.00
O50    O     0.22679   0.12709   0.25001   0.00000  Uiso   1.00
O51    O     0.22679   0.20625   0.25001   0.00000  Uiso   1.00
O52    O     0.10655   0.12709   0.25000   0.00000  Uiso   1.00
O53    O     0.16666   0.20627   0.18513   0.00000  Uiso   1.00
O54    O     0.16668   0.12707   0.31487   0.00000  Uiso   1.00
O55    O     0.16668   0.20627   0.31487   0.00000  Uiso   1.00
O56    O     0.16666   0.12707   0.18513   0.00000  Uiso   1.00
O57    O     0.11482   0.23220   0.38634   0.00000  Uiso   1.00
H58    H     0.10475   0.21834   0.35820   0.00000  Uiso   1.00
O59    O     0.21846   0.10110   0.11367   0.00000  Uiso   1.00
H60    H     0.22860   0.11501   0.14175   0.00000  Uiso   1.00
C61    C     0.42068   0.16666   0.24998   0.00000  Uiso   1.00
C62    C     0.57932   0.16667   0.25002   0.00000  Uiso   1.00
C63    C     0.45606   0.23504   0.02470   0.00000  Uiso   1.00
C64    C     0.54390   0.09828   0.47530   0.00000  Uiso   1.00
C65    C     0.35460   0.12410   0.24928   0.00000  Uiso   1.00
C66    C     0.64540   0.20924   0.25072   0.00000  Uiso   1.00
C67    C     0.64536   0.12410   0.24930   0.00000  Uiso   1.00
C68    C     0.35464   0.20923   0.25070   0.00000  Uiso   1.00
C69    C     0.62393   0.16667   0.25001   0.00000  Uiso   1.00
C70    C     0.37607   0.16666   0.24999   0.00000  Uiso   1.00
C71    C     0.47420   0.02481   0.22260   0.00000  Uiso   1.00
C72    C     0.52580   0.30853   0.27740   0.00000  Uiso   1.00
C73    C     0.52580   0.02482   0.27740   0.00000  Uiso   1.00
C74    C     0.47420   0.30852   0.22260   0.00000  Uiso   1.00
C75    C     0.50127   0.16667   0.16441   0.00000  Uiso   1.00
C76    C     0.49872   0.16666   0.33559   0.00000  Uiso   1.00
C77    C     0.51944   0.13241   0.40667   0.00000  Uiso   1.00
C78    C     0.48054   0.20091   0.09333   0.00000  Uiso   1.00
C79    C     0.49672   0.16647   0.38391   0.00000  Uiso   1.00
C80    C     0.50326   0.16686   0.11609   0.00000  Uiso   1.00
C81    C     0.47352   0.20028   0.40750   0.00000  Uiso   1.00
C82    C     0.52644   0.13304   0.09250   0.00000  Uiso   1.00
C83    C     0.47568   0.20098   0.45404   0.00000  Uiso   1.00
C84    C     0.52428   0.13234   0.04596   0.00000  Uiso   1.00
C85    C     0.49913   0.16666   0.47668   0.00000  Uiso   1.00
C86    C     0.50082   0.16666   0.02333   0.00000  Uiso   1.00
C87    C     0.52077   0.13218   0.45279   0.00000  Uiso   1.00
C88    C     0.47919   0.20113   0.04722   0.00000  Uiso   1.00
C89    C     0.45423   0.23494   0.47854   0.00000  Uiso   1.00
C90    C     0.54573   0.09837   0.02146   0.00000  Uiso   1.00
Cu91   Cu    0.50000   0.21355   0.25000   0.00000  Uiso   1.00
Cu92   Cu    0.50000   0.11978   0.25000   0.00000  Uiso   1.00
H93    H     0.53692   0.10654   0.38829   0.00000  Uiso   1.00
H94    H     0.46306   0.22679   0.11171   0.00000  Uiso   1.00
H95    H     0.43597   0.26163   0.46219   0.00000  Uiso   1.00
H96    H     0.56399   0.07169   0.03781   0.00000  Uiso   1.00
H97    H     0.43926   0.26161   0.04282   0.00000  Uiso   1.00
H98    H     0.56071   0.07171   0.45718   0.00000  Uiso   1.00
H99    H     0.37059   0.09082   0.24868   0.00000  Uiso   1.00
H100   H     0.62941   0.24251   0.25132   0.00000  Uiso   1.00
H101   H     0.62933   0.09083   0.24873   0.00000  Uiso   1.00
H102   H     0.37067   0.24251   0.25128   0.00000  Uiso   1.00
H103   H     0.45353   0.04351   0.20065   0.00000  Uiso   1.00
H104   H     0.54647   0.28982   0.29935   0.00000  Uiso   1.00
H105   H     0.54646   0.04353   0.29936   0.00000  Uiso   1.00
H106   H     0.45354   0.28980   0.20065   0.00000  Uiso   1.00
N107   N     0.50000   0.28402   0.25000   0.00000  Uiso   1.00
N108   N     0.50000   0.04931   0.25000   0.00000  Uiso   1.00
O109   O     0.43988   0.20625   0.25000   0.00000  Uiso   1.00
O110   O     0.56012   0.12709   0.25001   0.00000  Uiso   1.00
O111   O     0.56012   0.20625   0.25001   0.00000  Uiso   1.00
O112   O     0.43988   0.12709   0.25000   0.00000  Uiso   1.00
O113   O     0.49999   0.20627   0.18513   0.00000  Uiso   1.00
O114   O     0.50001   0.12707   0.31487   0.00000  Uiso   1.00
O115   O     0.50001   0.20627   0.31487   0.00000  Uiso   1.00
O116   O     0.49999   0.12707   0.18513   0.00000  Uiso   1.00
O117   O     0.44815   0.23220   0.38634   0.00000  Uiso   1.00
H118   H     0.43809   0.21834   0.35820   0.00000  Uiso   1.00
O119   O     0.55179   0.10110   0.11367   0.00000  Uiso   1.00
H120   H     0.56193   0.11501   0.14175   0.00000  Uiso   1.00
C121   C     0.75402   0.16666   0.24998   0.00000  Uiso   1.00
C122   C     0.91265   0.16667   0.25002   0.00000  Uiso   1.00
C123   C     0.78940   0.23504   0.02470   0.00000  Uiso   1.00
C124   C     0.87723   0.09828   0.47530   0.00000  Uiso   1.00
C125   C     0.68793   0.12410   0.24928   0.00000  Uiso   1.00
C126   C     0.97874   0.20924   0.25072   0.00000  Uiso   1.00
C127   C     0.97870   0.12410   0.24930   0.00000  Uiso   1.00
C128   C     0.68797   0.20923   0.25070   0.00000  Uiso   1.00
C129   C     0.95726   0.16667   0.25001   0.00000  Uiso   1.00
C130   C     0.70940   0.16666   0.24999   0.00000  Uiso   1.00
C131   C     0.80753   0.02481   0.22260   0.00000  Uiso   1.00
C132   C     0.85913   0.30853   0.27740   0.00000  Uiso   1.00
C133   C     0.85913   0.02482   0.27740   0.00000  Uiso   1.00
C134   C     0.80753   0.30852   0.22260   0.00000  Uiso   1.00
C135   C     0.83460   0.16667   0.16441   0.00000  Uiso   1.00
C136   C     0.83206   0.16666   0.33559   0.00000  Uiso   1.00
C137   C     0.85277   0.13241   0.40667   0.00000  Uiso   1.00
C138   C     0.81387   0.20091   0.09333   0.00000  Uiso   1.00
C139   C     0.83005   0.16647   0.38391   0.00000  Uiso   1.00
C140   C     0.83660   0.16686   0.11609   0.00000  Uiso   1.00
C141   C     0.80685   0.20028   0.40750   0.00000  Uiso   1.00
C142   C     0.85977   0.13304   0.09250   0.00000  Uiso   1.00
C143   C     0.80901   0.20098   0.45404   0.00000  Uiso   1.00
C144   C     0.85761   0.13234   0.04596   0.00000  Uiso   1.00
C145   C     0.83247   0.16666   0.47668   0.00000  Uiso   1.00
C146   C     0.83416   0.16666   0.02333   0.00000  Uiso   1.00
C147   C     0.85410   0.13218   0.45279   0.00000  Uiso   1.00
C148   C     0.81252   0.20113   0.04722   0.00000  Uiso   1.00
C149   C     0.78756   0.23494   0.47854   0.00000  Uiso   1.00
C150   C     0.87906   0.09837   0.02146   0.00000  Uiso   1.00
Cu151  Cu    0.83333   0.21355   0.25000   0.00000  Uiso   1.00
Cu152  Cu    0.83333   0.11978   0.25000   0.00000  Uiso   1.00
H153   H     0.87025   0.10654   0.38829   0.00000  Uiso   1.00
H154   H     0.79640   0.22679   0.11171   0.00000  Uiso   1.00
H155   H     0.76930   0.26163   0.46219   0.00000  Uiso   1.00
H156   H     0.89733   0.07169   0.03781   0.00000  Uiso   1.00
H157   H     0.77259   0.26161   0.04282   0.00000  Uiso   1.00
H158   H     0.89404   0.07171   0.45718   0.00000  Uiso   1.00
H159   H     0.70392   0.09082   0.24868   0.00000  Uiso   1.00
H160   H     0.96274   0.24251   0.25132   0.00000  Uiso   1.00
H161   H     0.96267   0.09083   0.24873   0.00000  Uiso   1.00
H162   H     0.70400   0.24251   0.25128   0.00000  Uiso   1.00
H163   H     0.78687   0.04351   0.20065   0.00000  Uiso   1.00
H164   H     0.87980   0.28982   0.29935   0.00000  Uiso   1.00
H165   H     0.87980   0.04353   0.29936   0.00000  Uiso   1.00
H166   H     0.78687   0.28980   0.20065   0.00000  Uiso   1.00
N167   N     0.83333   0.28402   0.25000   0.00000  Uiso   1.00
N168   N     0.83333   0.04931   0.25000   0.00000  Uiso   1.00
O169   O     0.77321   0.20625   0.25000   0.00000  Uiso   1.00
O170   O     0.89345   0.12709   0.25001   0.00000  Uiso   1.00
O171   O     0.89345   0.20625   0.25001   0.00000  Uiso   1.00
O172   O     0.77321   0.12709   0.25000   0.00000  Uiso   1.00
O173   O     0.83332   0.20627   0.18513   0.00000  Uiso   1.00
O174   O     0.83334   0.12707   0.31487   0.00000  Uiso   1.00
O175   O     0.83334   0.20627   0.31487   0.00000  Uiso   1.00
O176   O     0.83332   0.12707   0.18513   0.00000  Uiso   1.00
O177   O     0.78148   0.23220   0.38634   0.00000  Uiso   1.00
H178   H     0.77142   0.21834   0.35820   0.00000  Uiso   1.00
O179   O     0.88513   0.10110   0.11367   0.00000  Uiso   1.00
H180   H     0.89527   0.11501   0.14175   0.00000  Uiso   1.00
C181   C     0.08735   0.49999   0.24998   0.00000  Uiso   1.00
C182   C     0.24598   0.50000   0.25002   0.00000  Uiso   1.00
C183   C     0.12273   0.56837   0.02470   0.00000  Uiso   1.00
C184   C     0.21057   0.43161   0.47530   0.00000  Uiso   1.00
C185   C     0.02126   0.45743   0.24928   0.00000  Uiso   1.00
C186   C     0.31207   0.54257   0.25072   0.00000  Uiso   1.00
C187   C     0.31203   0.45744   0.24930   0.00000  Uiso   1.00
C188   C     0.02131   0.54256   0.25070   0.00000  Uiso   1.00
C189   C     0.29060   0.50001   0.25001   0.00000  Uiso   1.00
C190   C     0.04274   0.49999   0.24999   0.00000  Uiso   1.00
C191   C     0.14087   0.35814   0.22260   0.00000  Uiso   1.00
C192   C     0.19247   0.64186   0.27740   0.00000  Uiso   1.00
C193   C     0.19247   0.35815   0.27740   0.00000  Uiso   1.00
C194   C     0.14087   0.64185   0.22260   0.00000  Uiso   1.00
C195   C     0.16793   0.50001   0.16441   0.00000  Uiso   1.00
C196   C     0.16539   0.49999   0.33559   0.00000  Uiso   1.00
C197   C     0.18610   0.46575   0.40667   0.00000  Uiso   1.00
C198   C     0.14720   0.53425   0.09333   0.00000  Uiso   1.00
C199   C     0.16338   0.49981   0.38391   0.00000  Uiso   1.00
C200   C     0.16993   0.50019   0.11609   0.00000  Uiso   1.00
C201   C     0.14019   0.53361   0.40750   0.00000  Uiso   1.00
C202   C     0.19311   0.46637   0.09250   0.00000  Uiso   1.00
C203   C     0.14234   0.53431   0.45404   0.00000  Uiso   1.00
C204   C     0.19095   0.46567   0.04596   0.00000  Uiso   1.00
C205   C     0.16580   0.49999   0.47668   0.00000  Uiso   1.00
C206   C     0.16749   0.49999   0.02333   0.00000  Uiso   1.00
C207   C     0.18744   0.46552   0.45279   0.00000  Uiso   1.00
C208   C     0.14586   0.53447   0.04722   0.00000  Uiso   1.00
C209   C     0.12089   0.56828   0.47854   0.00000  Uiso   1.00
C210   C     0.21240   0.43170   0.02146   0.00000  Uiso   1.00
Cu211  Cu    0.16667   0.54689   0.25000   0.00000  Uiso   1.00
Cu212  Cu    0.16667   0.45311   0.25000   0.00000  Uiso   1.00
H213   H     0.20358   0.43988   0.38829   0.00000  Uiso   1.00
H214   H     0.12973   0.56012   0.11171   0.00000  Uiso   1.00
H215   H     0.10264   0.59496   0.46219   0.00000  Uiso   1.00
H216   H     0.23066   0.40502   0.03781   0.00000  Uiso   1.00
H217   H     0.10592   0.59495   0.04282   0.00000  Uiso   1.00
H218   H     0.22738   0.40504   0.45718   0.00000  Uiso   1.00
H219   H     0.03726   0.42415   0.24868   0.00000  Uiso   1.00
H220   H     0.29608   0.57585   0.25132   0.00000  Uiso   1.00
H221   H     0.29600   0.42416   0.24873   0.00000  Uiso   1.00
H222   H     0.03733   0.57584   0.25128   0.00000  Uiso   1.00
H223   H     0.12020   0.37685   0.20065   0.00000  Uiso   1.00
H224   H     0.21313   0.62315   0.29935   0.00000  Uiso   1.00
H225   H     0.21313   0.37687   0.29936   0.00000  Uiso   1.00
H226   H     0.12021   0.62313   0.20065   0.00000  Uiso   1.00
N227   N     0.16667   0.61736   0.25000   0.00000  Uiso   1.00
N228   N     0.16667   0.38264   0.25000   0.00000  Uiso   1.00
O229   O     0.10655   0.53958   0.25000   0.00000  Uiso   1.00
O230   O     0.22679   0.46042   0.25001   0.00000  Uiso   1.00
O231   O     0.22679   0.53958   0.25001   0.00000  Uiso   1.00
O232   O     0.10655   0.46042   0.25000   0.00000  Uiso   1.00
O233   O     0.16666   0.53960   0.18513   0.00000  Uiso   1.00
O234   O     0.16668   0.46040   0.31487   0.00000  Uiso   1.00
O235   O     0.16668   0.53960   0.31487   0.00000  Uiso   1.00
O236   O     0.16666   0.46040   0.18513   0.00000  Uiso   1.00
O237   O     0.11482   0.56554   0.38634   0.00000  Uiso   1.00
H238   H     0.10475   0.55168   0.35820   0.00000  Uiso   1.00
O239   O     0.21846   0.43444   0.11367   0.00000  Uiso   1.00
H240   H     0.22860   0.44834   0.14175   0.00000  Uiso   1.00
C241   C     0.42068   0.49999   0.24998   0.00000  Uiso   1.00
C242   C     0.57932   0.50000   0.25002   0.00000  Uiso   1.00
C243   C     0.45606   0.56837   0.02470   0.00000  Uiso   1.00
C244   C     0.54390   0.43161   0.47530   0.00000  Uiso   1.00
C245   C     0.35460   0.45743   0.24928   0.00000  Uiso   1.00
C246   C     0.64540   0.54257   0.25072   0.00000  Uiso   1.00
C247   C     0.64536   0.45744   0.24930   0.00000  Uiso   1.00
C248   C     0.35464   0.54256   0.25070   0.00000  Uiso   1.00
C249   C     0.62393   0.50001   0.25001   0.00000  Uiso   1.00
C250   C     0.37607   0.49999   0.24999   0.00000  Uiso   1.00
C251   C     0.47420   0.35814   0.22260   0.00000  Uiso   1.00
C252   C     0.52580   0.64186   0.27740   0.00000  Uiso   1.00
C253   C     0.52580   0.35815   0.27740   0.00000  Uiso   1.00
C254   C     0.47420   0.64185   0.22260   0.00000  Uiso   1.00
C255   C     0.50127   0.50001   0.16441   0.00000  Uiso   1.00
C256   C     0.49872   0.49999   0.33559   0.00000  Uiso   1.00
C257   C     0.51944   0.46575   0.40667   0.00000  Uiso   1.00
C258   C     0.48054   0.53425   0.09333   0.00000  Uiso   1.00
C259   C     0.49672   0.49981   0.38391   0.00000  Uiso   1.00
C260   C     0.50326   0.50019   0.11609   0.00000  Uiso   1.00
C261   C     0.47352   0.53361   0.40750   0.00000  Uiso   1.00
C262   C     0.52644   0.46637   0.09250   0.00000  Uiso   1.00
C263   C     0.47568   0.53431   0.45404   0.00000  Uiso   1.00
C264   C     0.52428   0.46567   0.04596   0.00000  Uiso   1.00
C265   C     0.49913   0.49999   0.47668   0.00000  Uiso   1.00
C266   C     0.50082   0.49999   0.02333   0.00000  Uiso   1.00
C267   C     0.52077   0.46552   0.45279   0.00000  Uiso   1.00
C268   C     0.47919   0.53447   0.04722   0.00000  Uiso   1.00
C269   C     0.45423   0.56828   0.47854   0.00000  Uiso   1.00
C270   C     0.54573   0.43170   0.02146   0.00000  Uiso   1.00
Cu271  Cu    0.50000   0.54689   0.25000   0.00000  Uiso   1.00
Cu272  Cu    0.50000   0.45311   0.25000   0.00000  Uiso   1.00
H273   H     0.53692   0.43988   0.38829   0.00000  Uiso   1.00
H274   H     0.46306   0.56012   0.11171   0.00000  Uiso   1.00
H275   H     0.43597   0.59496   0.46219   0.00000  Uiso   1.00
H276   H     0.56399   0.40502   0.03781   0.00000  Uiso   1.00
H277   H     0.43926   0.59495   0.04282   0.00000  Uiso   1.00
H278   H     0.56071   0.40504   0.45718   0.00000  Uiso   1.00
H279   H     0.37059   0.42415   0.24868   0.00000  Uiso   1.00
H280   H     0.62941   0.57585   0.25132   0.00000  Uiso   1.00
H281   H     0.62933   0.42416   0.24873   0.00000  Uiso   1.00
H282   H     0.37067   0.57584   0.25128   0.00000  Uiso   1.00
H283   H     0.45353   0.37685   0.20065   0.00000  Uiso   1.00
H284   H     0.54647   0.62315   0.29935   0.00000  Uiso   1.00
H285   H     0.54646   0.37687   0.29936   0.00000  Uiso   1.00
H286   H     0.45354   0.62313   0.20065   0.00000  Uiso   1.00
N287   N     0.50000   0.61736   0.25000   0.00000  Uiso   1.00
N288   N     0.50000   0.38264   0.25000   0.00000  Uiso   1.00
O289   O     0.43988   0.53958   0.25000   0.00000  Uiso   1.00
O290   O     0.56012   0.46042   0.25001   0.00000  Uiso   1.00
O291   O     0.56012   0.53958   0.25001   0.00000  Uiso   1.00
O292   O     0.43988   0.46042   0.25000   0.00000  Uiso   1.00
O293   O     0.49999   0.53960   0.18513   0.00000  Uiso   1.00
O294   O     0.50001   0.46040   0.31487   0.00000  Uiso   1.00
O295   O     0.50001   0.53960   0.31487   0.00000  Uiso   1.00
O296   O     0.49999   0.46040   0.18513   0.00000  Uiso   1.00
O297   O     0.44815   0.56554   0.38634   0.00000  Uiso   1.00
H298   H     0.43809   0.55168   0.35820   0.00000  Uiso   1.00
O299   O     0.55179   0.43444   0.11367   0.00000  Uiso   1.00
H300   H     0.56193   0.44834   0.14175   0.00000  Uiso   1.00
C301   C     0.75402   0.49999   0.24998   0.00000  Uiso   1.00
C302   C     0.91265   0.50000   0.25002   0.00000  Uiso   1.00
C303   C     0.78940   0.56837   0.02470   0.00000  Uiso   1.00
C304   C     0.87723   0.43161   0.47530   0.00000  Uiso   1.00
C305   C     0.68793   0.45743   0.24928   0.00000  Uiso   1.00
C306   C     0.97874   0.54257   0.25072   0.00000  Uiso   1.00
C307   C     0.97870   0.45744   0.24930   0.00000  Uiso   1.00
C308   C     0.68797   0.54256   0.25070   0.00000  Uiso   1.00
C309   C     0.95726   0.50001   0.25001   0.00000  Uiso   1.00
C310   C     0.70940   0.49999   0.24999   0.00000  Uiso   1.00
C311   C     0.80753   0.35814   0.22260   0.00000  Uiso   1.00
C312   C     0.85913   0.64186   0.27740   0.00000  Uiso   1.00
C313   C     0.85913   0.35815   0.27740   0.00000  Uiso   1.00
C314   C     0.80753   0.64185   0.22260   0.00000  Uiso   1.00
C315   C     0.83460   0.50001   0.16441   0.00000  Uiso   1.00
C316   C     0.83206   0.49999   0.33559   0.00000  Uiso   1.00
C317   C     0.85277   0.46575   0.40667   0.00000  Uiso   1.00
C318   C     0.81387   0.53425   0.09333   0.00000  Uiso   1.00
C319   C     0.83005   0.49981   0.38391   0.00000  Uiso   1.00
C320   C     0.83660   0.50019   0.11609   0.00000  Uiso   1.00
C321   C     0.80685   0.53361   0.40750   0.00000  Uiso   1.00
C322   C     0.85977   0.46637   0.09250   0.00000  Uiso   1.00
C323   C     0.80901   0.53431   0.45404   0.00000  Uiso   1.00
C324   C     0.85761   0.46567   0.04596   0.00000  Uiso   1.00
C325   C     0.83247   0.49999   0.47668   0.00000  Uiso   1.00
C326   C     0.83416   0.49999   0.02333   0.00000  Uiso   1.00
C327   C     0.85410   0.46552   0.45279   0.00000  Uiso   1.00
C328   C     0.81252   0.53447   0.04722   0.00000  Uiso   1.00
C329   C     0.78756   0.56828   0.47854   0.00000  Uiso   1.00
C330   C     0.87906   0.43170   0.02146   0.00000  Uiso   1.00
Cu331  Cu    0.83333   0.54689   0.25000   0.00000  Uiso   1.00
Cu332  Cu    0.83333   0.45311   0.25000   0.00000  Uiso   1.00
H333   H     0.87025   0.43988   0.38829   0.00000  Uiso   1.00
H334   H     0.79640   0.56012   0.11171   0.00000  Uiso   1.00
H335   H     0.76930   0.59496   0.46219   0.00000  Uiso   1.00
H336   H     0.89733   0.40502   0.03781   0.00000  Uiso   1.00
H337   H     0.77259   0.59495   0.04282   0.00000  Uiso   1.00
H338   H     0.89404   0.40504   0.45718   0.00000  Uiso   1.00
H339   H     0.70392   0.42415   0.24868   0.00000  Uiso   1.00
H340   H     0.96274   0.57585   0.25132   0.00000  Uiso   1.00
H341   H     0.96267   0.42416   0.24873   0.00000  Uiso   1.00
H342   H     0.70400   0.57584   0.25128   0.00000  Uiso   1.00
H343   H     0.78687   0.37685   0.20065   0.00000  Uiso   1.00
H344   H     0.87980   0.62315   0.29935   0.00000  Uiso   1.00
H345   H     0.87980   0.37687   0.29936   0.00000  Uiso   1.00
H346   H     0.78687   0.62313   0.20065   0.00000  Uiso   1.00
N347   N     0.83333   0.61736   0.25000   0.00000  Uiso   1.00
N348   N     0.83333   0.38264   0.25000   0.00000  Uiso   1.00
O349   O     0.77321   0.53958   0.25000   0.00000  Uiso   1.00
O350   O     0.89345   0.46042   0.25001   0.00000  Uiso   1.00
O351   O     0.89345   0.53958   0.25001   0.00000  Uiso   1.00
O352   O     0.77321   0.46042   0.25000   0.00000  Uiso   1.00
O353   O     0.83332   0.53960   0.18513   0.00000  Uiso   1.00
O354   O     0.83334   0.46040   0.31487   0.00000  Uiso   1.00
O355   O     0.83334   0.53960   0.31487   0.00000  Uiso   1.00
O356   O     0.83332   0.46040   0.18513   0.00000  Uiso   1.00
O357   O     0.78148   0.56554   0.38634   0.00000  Uiso   1.00
H358   H     0.77142   0.55168   0.35820   0.00000  Uiso   1.00
O359   O     0.88513   0.43444   0.11367   0.00000  Uiso   1.00
H360   H     0.89527   0.44834   0.14175   0.00000  Uiso   1.00
C361   C     0.08735   0.83333   0.24998   0.00000  Uiso   1.00
C362   C     0.24598   0.83334   0.25002   0.00000  Uiso   1.00
C363   C     0.12273   0.90171   0.02470   0.00000  Uiso   1.00
C364   C     0.21057   0.76494   0.47530   0.00000  Uiso   1.00
C365   C     0.02126   0.79076   0.24928   0.00000  Uiso   1.00
C366   C     0.31207   0.87590   0.25072   0.00000  Uiso   1.00
C367   C     0.31203   0.79077   0.24930   0.00000  Uiso   1.00
C368   C     0.02131   0.87590   0.25070   0.00000  Uiso   1.00
C369   C     0.29060   0.83334   0.25001   0.00000  Uiso   1.00
C370   C     0.04274   0.83333   0.24999   0.00000  Uiso   1.00
C371   C     0.14087   0.69147   0.22260   0.00000  Uiso   1.00
C372   C     0.19247   0.97519   0.27740   0.00000  Uiso   1.00
C373   C     0.19247   0.69148   0.27740   0.00000  Uiso   1.00
C374   C     0.14087   0.97518   0.22260   0.00000  Uiso   1.00
C375   C     0.16793   0.83334   0.16441   0.00000  Uiso   1.00
C376   C     0.16539   0.83332   0.33559   0.00000  Uiso   1.00
C377   C     0.18610   0.79908   0.40667   0.00000  Uiso   1.00
C378   C     0.14720   0.86758   0.09333   0.00000  Uiso   1.00
C379   C     0.16338   0.83314   0.38391   0.00000  Uiso   1.00
C380   C     0.16993   0.83352   0.11609   0.00000  Uiso   1.00
C381   C     0.14019   0.86695   0.40750   0.00000  Uiso   1.00
C382   C     0.19311   0.79970   0.09250   0.00000  Uiso   1.00
C383   C     0.14234   0.86764   0.45404   0.00000  Uiso   1.00
C384   C     0.19095   0.79900   0.04596   0.00000  Uiso   1.00
C385   C     0.16580   0.83332   0.47668   0.00000  Uiso   1.00
C386   C     0.16749   0.83332   0.02333   0.00000  Uiso   1.00
C387   C     0.18744   0.79885   0.45279   0.00000  Uiso   1.00
C388   C     0.14586   0.86780   0.04722   0.00000  Uiso   1.00
C389   C     0.12089   0.90161   0.47854   0.00000  Uiso   1.00
C390   C     0.21240   0.76504   0.02146   0.00000  Uiso   1.00
Cu391  Cu    0.16667   0.88022   0.25000   0.00000  Uiso   1.00
Cu392  Cu    0.16667   0.78645   0.25000   0.00000  Uiso   1.00
H393   H     0.20358   0.77321   0.38829   0.00000  Uiso   1.00
H394   H     0.12973   0.89345   0.11171   0.00000  Uiso   1.00
H395   H     0.10264   0.92830   0.46219   0.00000  Uiso   1.00
H396   H     0.23066   0.73836   0.03781   0.00000  Uiso   1.00
H397   H     0.10592   0.92828   0.04282   0.00000  Uiso   1.00
H398   H     0.22738   0.73838   0.45718   0.00000  Uiso   1.00
H399   H     0.03726   0.75748   0.24868   0.00000  Uiso   1.00
H400   H     0.29608   0.90918   0.25132   0.00000  Uiso   1.00
H401   H     0.29600   0.75749   0.24873   0.00000  Uiso   1.00
H402   H     0.03733   0.90917   0.25128   0.00000  Uiso   1.00
H403   H     0.12020   0.71018   0.20065   0.00000  Uiso   1.00
H404   H     0.21313   0.95649   0.29935   0.00000  Uiso   1.00
H405   H     0.21313   0.71020   0.29936   0.00000  Uiso   1.00
H406   H     0.12021   0.95647   0.20065   0.00000  Uiso   1.00
N407   N     0.16667   0.95069   0.25000   0.00000  Uiso   1.00
N408   N     0.16667   0.71598   0.25000   0.00000  Uiso   1.00
O409   O     0.10655   0.87291   0.25000   0.00000  Uiso   1.00
O410   O     0.22679   0.79375   0.25001   0.00000  Uiso   1.00
O411   O     0.22679   0.87291   0.25001   0.00000  Uiso   1.00
O412   O     0.10655   0.79375   0.25000   0.00000  Uiso   1.00
O413   O     0.16666   0.87293   0.18513   0.00000  Uiso   1.00
O414   O     0.16668   0.79373   0.31487   0.00000  Uiso   1.00
O415   O     0.16668   0.87293   0.31487   0.00000  Uiso   1.00
O416   O     0.16666   0.79373   0.18513   0.00000  Uiso   1.00
O417   O     0.11482   0.89887   0.38634   0.00000  Uiso   1.00
H418   H     0.10475   0.88501   0.35820   0.00000  Uiso   1.00
O419   O     0.21846   0.76777   0.11367   0.00000  Uiso   1.00
H420   H     0.22860   0.78168   0.14175   0.00000  Uiso   1.00
C421   C     0.42068   0.83333   0.24998   0.00000  Uiso   1.00
C422   C     0.57932   0.83334   0.25002   0.00000  Uiso   1.00
C423   C     0.45606   0.90171   0.02470   0.00000  Uiso   1.00
C424   C     0.54390   0.76494   0.47530   0.00000  Uiso   1.00
C425   C     0.35460   0.79076   0.24928   0.00000  Uiso   1.00
C426   C     0.64540   0.87590   0.25072   0.00000  Uiso   1.00
C427   C     0.64536   0.79077   0.24930   0.00000  Uiso   1.00
C428   C     0.35464   0.87590   0.25070   0.00000  Uiso   1.00
C429   C     0.62393   0.83334   0.25001   0.00000  Uiso   1.00
C430   C     0.37607   0.83333   0.24999   0.00000  Uiso   1.00
C431   C     0.47420   0.69147   0.22260   0.00000  Uiso   1.00
C432   C     0.52580   0.97519   0.27740   0.00000  Uiso   1.00
C433   C     0.52580   0.69148   0.27740   0.00000  Uiso   1.00
C434   C     0.47420   0.97518   0.22260   0.00000  Uiso   1.00
C435   C     0.50127   0.83334   0.16441   0.00000  Uiso   1.00
C436   C     0.49872   0.83332   0.33559   0.00000  Uiso   1.00
C437   C     0.51944   0.79908   0.40667   0.00000  Uiso   1.00
C438   C     0.48054   0.86758   0.09333   0.00000  Uiso   1.00
C439   C     0.49672   0.83314   0.38391   0.00000  Uiso   1.00
C440   C     0.50326   0.83352   0.11609   0.00000  Uiso   1.00
C441   C     0.47352   0.86695   0.40750   0.00000  Uiso   1.00
C442   C     0.52644   0.79970   0.09250   0.00000  Uiso   1.00
C443   C     0.47568   0.86764   0.45404   0.00000  Uiso   1.00
C444   C     0.52428   0.79900   0.04596   0.00000  Uiso   1.00
C445   C     0.49913   0.83332   0.47668   0.00000  Uiso   1.00
C446   C     0.50082   0.83332   0.02333   0.00000  Uiso   1.00
C447   C     0.52077   0.79885   0.45279   0.00000  Uiso   1.00
C448   C     0.47919   0.86780   0.04722   0.00000  Uiso   1.00
C449   C     0.45423   0.90161   0.47854   0.00000  Uiso   1.00
C450   C     0.54573   0.76504   0.02146   0.00000  Uiso   1.00
Cu451  Cu    0.50000   0.88022   0.25000   0.00000  Uiso   1.00
Cu452  Cu    0.50000   0.78645   0.25000   0.00000  Uiso   1.00
H453   H     0.53692   0.77321   0.38829   0.00000  Uiso   1.00
H454   H     0.46306   0.89345   0.11171   0.00000  Uiso   1.00
H455   H     0.43597   0.92830   0.46219   0.00000  Uiso   1.00
H456   H     0.56399   0.73836   0.03781   0.00000  Uiso   1.00
H457   H     0.43926   0.92828   0.04282   0.00000  Uiso   1.00
H458   H     0.56071   0.73838   0.45718   0.00000  Uiso   1.00
H459   H     0.37059   0.75748   0.24868   0.00000  Uiso   1.00
H460   H     0.62941   0.90918   0.25132   0.00000  Uiso   1.00
H461   H     0.62933   0.75749   0.24873   0.00000  Uiso   1.00
H462   H     0.37067   0.90917   0.25128   0.00000  Uiso   1.00
H463   H     0.45353   0.71018   0.20065   0.00000  Uiso   1.00
H464   H     0.54647   0.95649   0.29935   0.00000  Uiso   1.00
H465   H     0.54646   0.71020   0.29936   0.00000  Uiso   1.00
H466   H     0.45354   0.95647   0.20065   0.00000  Uiso   1.00
N467   N     0.50000   0.95069   0.25000   0.00000  Uiso   1.00
N468   N     0.50000   0.71598   0.25000   0.00000  Uiso   1.00
O469   O     0.43988   0.87291   0.25000   0.00000  Uiso   1.00
O470   O     0.56012   0.79375   0.25001   0.00000  Uiso   1.00
O471   O     0.56012   0.87291   0.25001   0.00000  Uiso   1.00
O472   O     0.43988   0.79375   0.25000   0.00000  Uiso   1.00
O473   O     0.49999   0.87293   0.18513   0.00000  Uiso   1.00
O474   O     0.50001   0.79373   0.31487   0.00000  Uiso   1.00
O475   O     0.50001   0.87293   0.31487   0.00000  Uiso   1.00
O476   O     0.49999   0.79373   0.18513   0.00000  Uiso   1.00
O477   O     0.44815   0.89887   0.38634   0.00000  Uiso   1.00
H478   H     0.43809   0.88501   0.35820   0.00000  Uiso   1.00
O479   O     0.55179   0.76777   0.11367   0.00000  Uiso   1.00
H480   H     0.56193   0.78168   0.14175   0.00000  Uiso   1.00
C481   C     0.75402   0.83333   0.24998   0.00000  Uiso   1.00
C482   C     0.91265   0.83334   0.25002   0.00000  Uiso   1.00
C483   C     0.78940   0.90171   0.02470   0.00000  Uiso   1.00
C484   C     0.87723   0.76494   0.47530   0.00000  Uiso   1.00
C485   C     0.68793   0.79076   0.24928   0.00000  Uiso   1.00
C486   C     0.97874   0.87590   0.25072   0.00000  Uiso   1.00
C487   C     0.97870   0.79077   0.24930   0.00000  Uiso   1.00
C488   C     0.68797   0.87590   0.25070   0.00000  Uiso   1.00
C489   C     0.95726   0.83334   0.25001   0.00000  Uiso   1.00
C490   C     0.70940   0.83333   0.24999   0.00000  Uiso   1.00
C491   C     0.80753   0.69147   0.22260   0.00000  Uiso   1.00
C492   C     0.85913   0.97519   0.27740   0.00000  Uiso   1.00
C493   C     0.85913   0.69148   0.27740   0.00000  Uiso   1.00
C494   C     0.80753   0.97518   0.22260   0.00000  Uiso   1.00
C495   C     0.83460   0.83334   0.16441   0.00000  Uiso   1.00
C496   C     0.83206   0.83332   0.33559   0.00000  Uiso   1.00
C497   C     0.85277   0.79908   0.40667   0.00000  Uiso   1.00
C498   C     0.81387   0.86758   0.09333   0.00000  Uiso   1.00
C499   C     0.83005   0.83314   0.38391   0.00000  Uiso   1.00
C500   C     0.83660   0.83352   0.11609   0.00000  Uiso   1.00
C501   C     0.80685   0.86695   0.40750   0.00000  Uiso   1.00
C502   C     0.85977   0.79970   0.09250   0.00000  Uiso   1.00
C503   C     0.80901   0.86764   0.45404   0.00000  Uiso   1.00
C504   C     0.85761   0.79900   0.04596   0.00000  Uiso   1.00
C505   C     0.83247   0.83332   0.47668   0.00000  Uiso   1.00
C506   C     0.83416   0.83332   0.02333   0.00000  Uiso   1.00
C507   C     0.85410   0.79885   0.45279   0.00000  Uiso   1.00
C508   C     0.81252   0.86780   0.04722   0.00000  Uiso   1.00
C509   C     0.78756   0.90161   0.47854   0.00000  Uiso   1.00
C510   C     0.87906   0.76504   0.02146   0.00000  Uiso   1.00
Cu511  Cu    0.83333   0.88022   0.25000   0.00000  Uiso   1.00
Cu512  Cu    0.83333   0.78645   0.25000   0.00000  Uiso   1.00
H513   H     0.87025   0.77321   0.38829   0.00000  Uiso   1.00
H514   H     0.79640   0.89345   0.11171   0.00000  Uiso   1.00
H515   H     0.76930   0.92830   0.46219   0.00000  Uiso   1.00
H516   H     0.89733   0.73836   0.03781   0.00000  Uiso   1.00
H517   H     0.77259   0.92828   0.04282   0.00000  Uiso   1.00
H518   H     0.89404   0.73838   0.45718   0.00000  Uiso   1.00
H519   H     0.70392   0.75748   0.24868   0.00000  Uiso   1.00
H520   H     0.96274   0.90918   0.25132   0.00000  Uiso   1.00
H521   H     0.96267   0.75749   0.24873   0.00000  Uiso   1.00
H522   H     0.70400   0.90917   0.25128   0.00000  Uiso   1.00
H523   H     0.78687   0.71018   0.20065   0.00000  Uiso   1.00
H524   H     0.87980   0.95649   0.29935   0.00000  Uiso   1.00
H525   H     0.87980   0.71020   0.29936   0.00000  Uiso   1.00
H526   H     0.78687   0.95647   0.20065   0.00000  Uiso   1.00
N527   N     0.83333   0.95069   0.25000   0.00000  Uiso   1.00
N528   N     0.83333   0.71598   0.25000   0.00000  Uiso   1.00
O529   O     0.77321   0.87291   0.25000   0.00000  Uiso   1.00
O530   O     0.89345   0.79375   0.25001   0.00000  Uiso   1.00
O531   O     0.89345   0.87291   0.25001   0.00000  Uiso   1.00
O532   O     0.77321   0.79375   0.25000   0.00000  Uiso   1.00
O533   O     0.83332   0.87293   0.18513   0.00000  Uiso   1.00
O534   O     0.83334   0.79373   0.31487   0.00000  Uiso   1.00
O535   O     0.83334   0.87293   0.31487   0.00000  Uiso   1.00
O536   O     0.83332   0.79373   0.18513   0.00000  Uiso   1.00
O537   O     0.78148   0.89887   0.38634   0.00000  Uiso   1.00
H538   H     0.77142   0.88501   0.35820   0.00000  Uiso   1.00
O539   O     0.88513   0.76777   0.11367   0.00000  Uiso   1.00
H540   H     0.89527   0.78168   0.14175   0.00000  Uiso   1.00
C541   C     0.08735   0.16666   0.74998   0.00000  Uiso   1.00
C542   C     0.24598   0.16667   0.75002   0.00000  Uiso   1.00
C543   C     0.12273   0.23504   0.52470   0.00000  Uiso   1.00
C544   C     0.21057   0.09828   0.97530   0.00000  Uiso   1.00
C545   C     0.02126   0.12410   0.74928   0.00000  Uiso   1.00
C546   C     0.31207   0.20924   0.75072   0.00000  Uiso   1.00
C547   C     0.31203   0.12410   0.74930   0.00000  Uiso   1.00
C548   C     0.02131   0.20923   0.75070   0.00000  Uiso   1.00
C549   C     0.29060   0.16667   0.75001   0.00000  Uiso   1.00
C550   C     0.04274   0.16666   0.74999   0.00000  Uiso   1.00
C551   C     0.14087   0.02481   0.72260   0.00000  Uiso   1.00
C552   C     0.19247   0.30853   0.77740   0.00000  Uiso   1.00
C553   C     0.19247   0.02482   0.77740   0.00000  Uiso   1.00
C554   C     0.14087   0.30852   0.72260   0.00000  Uiso   1.00
C555   C     0.16793   0.16667   0.66441   0.00000  Uiso   1.00
C556   C     0.16539   0.16666   0.83559   0.00000  Uiso   1.00
C557   C     0.18610   0.13241   0.90667   0.00000  Uiso   1.00
C558   C     0.14720   0.20091   0.59333   0.00000  Uiso   1.00
C559   C     0.16338   0.16647   0.88391   0.00000  Uiso   1.00
C560   C     0.16993   0.16686   0.61609   0.00000  Uiso   1.00
C561   C     0.14019   0.20028   0.90750   0.00000  Uiso   1.00
C562   C     0.19311   0.13304   0.59250   0.00000  Uiso   1.00
C563   C     0.14234   0.20098   0.95404   0.00000  Uiso   1.00
C564   C     0.19095   0.13234   0.54596   0.00000  Uiso   1.00
C565   C     0.16580   0.16666   0.97668   0.00000  Uiso   1.00
C566   C     0.16749   0.16666   0.52333   0.00000  Uiso   1.00
C567   C     0.18744   0.13218   0.95279   0.00000  Uiso   1.00
C568   C     0.14586   0.20113   0.54722   0.00000  Uiso   1.00
C569   C     0.12089   0.23494   0.97854   0.00000  Uiso   1.00
C570   C     0.21240   0.09837   0.52146   0.00000  Uiso   1.00
Cu571  Cu    0.16667   0.21355   0.75000   0.00000  Uiso   1.00
Cu572  Cu    0.16667   0.11978   0.75000   0.00000  Uiso   1.00
H573   H     0.20358   0.10654   0.88829   0.00000  Uiso   1.00
H574   H     0.12973   0.22679   0.61171   0.00000  Uiso   1.00
H575   H     0.10264   0.26163   0.96219   0.00000  Uiso   1.00
H576   H     0.23066   0.07169   0.53781   0.00000  Uiso   1.00
H577   H     0.10592   0.26161   0.54282   0.00000  Uiso   1.00
H578   H     0.22738   0.07171   0.95718   0.00000  Uiso   1.00
H579   H     0.03726   0.09082   0.74868   0.00000  Uiso   1.00
H580   H     0.29608   0.24251   0.75132   0.00000  Uiso   1.00
H581   H     0.29600   0.09083   0.74873   0.00000  Uiso   1.00
H582   H     0.03733   0.24251   0.75128   0.00000  Uiso   1.00
H583   H     0.12020   0.04351   0.70065   0.00000  Uiso   1.00
H584   H     0.21313   0.28982   0.79935   0.00000  Uiso   1.00
H585   H     0.21313   0.04353   0.79936   0.00000  Uiso   1.00
H586   H     0.12021   0.28980   0.70065   0.00000  Uiso   1.00
N587   N     0.16667   0.28402   0.75000   0.00000  Uiso   1.00
N588   N     0.16667   0.04931   0.75000   0.00000  Uiso   1.00
O589   O     0.10655   0.20625   0.75000   0.00000  Uiso   1.00
O590   O     0.22679   0.12709   0.75001   0.00000  Uiso   1.00
O591   O     0.22679   0.20625   0.75001   0.00000  Uiso   1.00
O592   O     0.10655   0.12709   0.75000   0.00000  Uiso   1.00
O593   O     0.16666   0.20627   0.68513   0.00000  Uiso   1.00
O594   O     0.16668   0.12707   0.81487   0.00000  Uiso   1.00
O595   O     0.16668   0.20627   0.81487   0.00000  Uiso   1.00
O596   O     0.16666   0.12707   0.68513   0.00000  Uiso   1.00
O597   O     0.11482   0.23220   0.88634   0.00000  Uiso   1.00
H598   H     0.10475   0.21834   0.85820   0.00000  Uiso   1.00
O599   O     0.21846   0.10110   0.61367   0.00000  Uiso   1.00
H600   H     0.22860   0.11501   0.64175   0.00000  Uiso   1.00
C601   C     0.42068   0.16666   0.74998   0.00000  Uiso   1.00
C602   C     0.57932   0.16667   0.75002   0.00000  Uiso   1.00
C603   C     0.45606   0.23504   0.52470   0.00000  Uiso   1.00
C604   C     0.54390   0.09828   0.97530   0.00000  Uiso   1.00
C605   C     0.35460   0.12410   0.74928   0.00000  Uiso   1.00
C606   C     0.64540   0.20924   0.75072   0.00000  Uiso   1.00
C607   C     0.64536   0.12410   0.74930   0.00000  Uiso   1.00
C608   C     0.35464   0.20923   0.75070   0.00000  Uiso   1.00
C609   C     0.62393   0.16667   0.75001   0.00000  Uiso   1.00
C610   C     0.37607   0.16666   0.74999   0.00000  Uiso   1.00
C611   C     0.47420   0.02481   0.72260   0.00000  Uiso   1.00
C612   C     0.52580   0.30853   0.77740   0.00000  Uiso   1.00
C613   C     0.52580   0.02482   0.77740   0.00000  Uiso   1.00
C614   C     0.47420   0.30852   0.72260   0.00000  Uiso   1.00
C615   C     0.50127   0.16667   0.66441   0.00000  Uiso   1.00
C616   C     0.49872   0.16666   0.83559   0.00000  Uiso   1.00
C617   C     0.51944   0.13241   0.90667   0.00000  Uiso   1.00
C618   C     0.48054   0.20091   0.59333   0.00000  Uiso   1.00
C619   C     0.49672   0.16647   0.88391   0.00000  Uiso   1.00
C620   C     0.50326   0.16686   0.61609   0.00000  Uiso   1.00
C621   C     0.47352   0.20028   0.90750   0.00000  Uiso   1.00
C622   C     0.52644   0.13304   0.59250   0.00000  Uiso   1.00
C623   C     0.47568   0.20098   0.95404   0.00000  Uiso   1.00
C624   C     0.52428   0.13234   0.54596   0.00000  Uiso   1.00
C625   C     0.49913   0.16666   0.97668   0.00000  Uiso   1.00
C626   C     0.50082   0.16666   0.52333   0.00000  Uiso   1.00
C627   C     0.52077   0.13218   0.95279   0.00000  Uiso   1.00
C628   C     0.47919   0.20113   0.54722   0.00000  Uiso   1.00
C629   C     0.45423   0.23494   0.97854   0.00000  Uiso   1.00
C630   C     0.54573   0.09837   0.52146   0.00000  Uiso   1.00
Cu631  Cu    0.50000   0.21355   0.75000   0.00000  Uiso   1.00
Cu632  Cu    0.50000   0.11978   0.75000   0.00000  Uiso   1.00
H633   H     0.53692   0.10654   0.88829   0.00000  Uiso   1.00
H634   H     0.46306   0.22679   0.61171   0.00000  Uiso   1.00
H635   H     0.43597   0.26163   0.96219   0.00000  Uiso   1.00
H636   H     0.56399   0.07169   0.53781   0.00000  Uiso   1.00
H637   H     0.43926   0.26161   0.54282   0.00000  Uiso   1.00
H638   H     0.56071   0.07171   0.95718   0.00000  Uiso   1.00
H639   H     0.37059   0.09082   0.74868   0.00000  Uiso   1.00
H640   H     0.62941   0.24251   0.75132   0.00000  Uiso   1.00
H641   H     0.62933   0.09083   0.74873   0.00000  Uiso   1.00
H642   H     0.37067   0.24251   0.75128   0.00000  Uiso   1.00
H643   H     0.45353   0.04351   0.70065   0.00000  Uiso   1.00
H644   H     0.54647   0.28982   0.79935   0.00000  Uiso   1.00
H645   H     0.54646   0.04353   0.79936   0.00000  Uiso   1.00
H646   H     0.45354   0.28980   0.70065   0.00000  Uiso   1.00
N647   N     0.50000   0.28402   0.75000   0.00000  Uiso   1.00
N648   N     0.50000   0.04931   0.75000   0.00000  Uiso   1.00
O649   O     0.43988   0.20625   0.75000   0.00000  Uiso   1.00
O650   O     0.56012   0.12709   0.75001   0.00000  Uiso   1.00
O651   O     0.56012   0.20625   0.75001   0.00000  Uiso   1.00
O652   O     0.43988   0.12709   0.75000   0.00000  Uiso   1.00
O653   O     0.49999   0.20627   0.68513   0.00000  Uiso   1.00
O654   O     0.50001   0.12707   0.81487   0.00000  Uiso   1.00
O655   O     0.50001   0.20627   0.81487   0.00000  Uiso   1.00
O656   O     0.49999   0.12707   0.68513   0.00000  Uiso   1.00
O657   O     0.44815   0.23220   0.88634   0.00000  Uiso   1.00
H658   H     0.43809   0.21834   0.85820   0.00000  Uiso   1.00
O659   O     0.55179   0.10110   0.61367   0.00000  Uiso   1.00
H660   H     0.56193   0.11501   0.64175   0.00000  Uiso   1.00
C661   C     0.75402   0.16666   0.74998   0.00000  Uiso   1.00
C662   C     0.91265   0.16667   0.75002   0.00000  Uiso   1.00
C663   C     0.78940   0.23504   0.52470   0.00000  Uiso   1.00
C664   C     0.87723   0.09828   0.97530   0.00000  Uiso   1.00
C665   C     0.68793   0.12410   0.74928   0.00000  Uiso   1.00
C666   C     0.97874   0.20924   0.75072   0.00000  Uiso   1.00
C667   C     0.97870   0.12410   0.74930   0.00000  Uiso   1.00
C668   C     0.68797   0.20923   0.75070   0.00000  Uiso   1.00
C669   C     0.95726   0.16667   0.75001   0.00000  Uiso   1.00
C670   C     0.70940   0.16666   0.74999   0.00000  Uiso   1.00
C671   C     0.80753   0.02481   0.72260   0.00000  Uiso   1.00
C672   C     0.85913   0.30853   0.77740   0.00000  Uiso   1.00
C673   C     0.85913   0.02482   0.77740   0.00000  Uiso   1.00
C674   C     0.80753   0.30852   0.72260   0.00000  Uiso   1.00
C675   C     0.83460   0.16667   0.66441   0.00000  Uiso   1.00
C676   C     0.83206   0.16666   0.83559   0.00000  Uiso   1.00
C677   C     0.85277   0.13241   0.90667   0.00000  Uiso   1.00
C678   C     0.81387   0.20091   0.59333   0.00000  Uiso   1.00
C679   C     0.83005   0.16647   0.88391   0.00000  Uiso   1.00
C680   C     0.83660   0.16686   0.61609   0.00000  Uiso   1.00
C681   C     0.80685   0.20028   0.90750   0.00000  Uiso   1.00
C682   C     0.85977   0.13304   0.59250   0.00000  Uiso   1.00
C683   C     0.80901   0.20098   0.95404   0.00000  Uiso   1.00
C684   C     0.85761   0.13234   0.54596   0.00000  Uiso   1.00
C685   C     0.83247   0.16666   0.97668   0.00000  Uiso   1.00
C686   C     0.83416   0.16666   0.52333   0.00000  Uiso   1.00
C687   C     0.85410   0.13218   0.95279   0.00000  Uiso   1.00
C688   C     0.81252   0.20113   0.54722   0.00000  Uiso   1.00
C689   C     0.78756   0.23494   0.97854   0.00000  Uiso   1.00
C690   C     0.87906   0.09837   0.52146   0.00000  Uiso   1.00
Cu691  Cu    0.83333   0.21355   0.75000   0.00000  Uiso   1.00
Cu692  Cu    0.83333   0.11978   0.75000   0.00000  Uiso   1.00
H693   H     0.87025   0.10654   0.88829   0.00000  Uiso   1.00
H694   H     0.79640   0.22679   0.61171   0.00000  Uiso   1.00
H695   H     0.76930   0.26163   0.96219   0.00000  Uiso   1.00
H696   H     0.89733   0.07169   0.53781   0.00000  Uiso   1.00
H697   H     0.77259   0.26161   0.54282   0.00000  Uiso   1.00
H698   H     0.89404   0.07171   0.95718   0.00000  Uiso   1.00
H699   H     0.70392   0.09082   0.74868   0.00000  Uiso   1.00
H700   H     0.96274   0.24251   0.75132   0.00000  Uiso   1.00
H701   H     0.96267   0.09083   0.74873   0.00000  Uiso   1.00
H702   H     0.70400   0.24251   0.75128   0.00000  Uiso   1.00
H703   H     0.78687   0.04351   0.70065   0.00000  Uiso   1.00
H704   H     0.87980   0.28982   0.79935   0.00000  Uiso   1.00
H705   H     0.87980   0.04353   0.79936   0.00000  Uiso   1.00
H706   H     0.78687   0.28980   0.70065   0.00000  Uiso   1.00
N707   N     0.83333   0.28402   0.75000   0.00000  Uiso   1.00
N708   N     0.83333   0.04931   0.75000   0.00000  Uiso   1.00
O709   O     0.77321   0.20625   0.75000   0.00000  Uiso   1.00
O710   O     0.89345   0.12709   0.75001   0.00000  Uiso   1.00
O711   O     0.89345   0.20625   0.75001   0.00000  Uiso   1.00
O712   O     0.77321   0.12709   0.75000   0.00000  Uiso   1.00
O713   O     0.83332   0.20627   0.68513   0.00000  Uiso   1.00
O714   O     0.83334   0.12707   0.81487   0.00000  Uiso   1.00
O715   O     0.83334   0.20627   0.81487   0.00000  Uiso   1.00
O716   O     0.83332   0.12707   0.68513   0.00000  Uiso   1.00
O717   O     0.78148   0.23220   0.88634   0.00000  Uiso   1.00
H718   H     0.77142   0.21834   0.85820   0.00000  Uiso   1.00
O719   O     0.88513   0.10110   0.61367   0.00000  Uiso   1.00
H720   H     0.89527   0.11501   0.64175   0.00000  Uiso   1.00
C721   C     0.08735   0.49999   0.74998   0.00000  Uiso   1.00
C722   C     0.24598   0.50000   0.75002   0.00000  Uiso   1.00
C723   C     0.12273   0.56837   0.52470   0.00000  Uiso   1.00
C724   C     0.21057   0.43161   0.97530   0.00000  Uiso   1.00
C725   C     0.02126   0.45743   0.74928   0.00000  Uiso   1.00
C726   C     0.31207   0.54257   0.75072   0.00000  Uiso   1.00
C727   C     0.31203   0.45744   0.74930   0.00000  Uiso   1.00
C728   C     0.02131   0.54256   0.75070   0.00000  Uiso   1.00
C729   C     0.29060   0.50001   0.75001   0.00000  Uiso   1.00
C730   C     0.04274   0.49999   0.74999   0.00000  Uiso   1.00
C731   C     0.14087   0.35814   0.72260   0.00000  Uiso   1.00
C732   C     0.19247   0.64186   0.77740   0.00000  Uiso   1.00
C733   C     0.19247   0.35815   0.77740   0.00000  Uiso   1.00
C734   C     0.14087   0.64185   0.72260   0.00000  Uiso   1.00
C735   C     0.16793   0.50001   0.66441   0.00000  Uiso   1.00
C736   C     0.16539   0.49999   0.83559   0.00000  Uiso   1.00
C737   C     0.18610   0.46575   0.90667   0.00000  Uiso   1.00
C738   C     0.14720   0.53425   0.59333   0.00000  Uiso   1.00
C739   C     0.16338   0.49981   0.88391   0.00000  Uiso   1.00
C740   C     0.16993   0.50019   0.61609   0.00000  Uiso   1.00
C741   C     0.14019   0.53361   0.90750   0.00000  Uiso   1.00
C742   C     0.19311   0.46637   0.59250   0.00000  Uiso   1.00
C743   C     0.14234   0.53431   0.95404   0.00000  Uiso   1.00
C744   C     0.19095   0.46567   0.54596   0.00000  Uiso   1.00
C745   C     0.16580   0.49999   0.97668   0.00000  Uiso   1.00
C746   C     0.16749   0.49999   0.52333   0.00000  Uiso   1.00
C747   C     0.18744   0.46552   0.95279   0.00000  Uiso   1.00
C748   C     0.14586   0.53447   0.54722   0.00000  Uiso   1.00
C749   C     0.12089   0.56828   0.97854   0.00000  Uiso   1.00
C750   C     0.21240   0.43170   0.52146   0.00000  Uiso   1.00
Cu751  Cu    0.16667   0.54689   0.75000   0.00000  Uiso   1.00
Cu752  Cu    0.16667   0.45311   0.75000   0.00000  Uiso   1.00
H753   H     0.20358   0.43988   0.88829   0.00000  Uiso   1.00
H754   H     0.12973   0.56012   0.61171   0.00000  Uiso   1.00
H755   H     0.10264   0.59496   0.96219   0.00000  Uiso   1.00
H756   H     0.23066   0.40502   0.53781   0.00000  Uiso   1.00
H757   H     0.10592   0.59495   0.54282   0.00000  Uiso   1.00
H758   H     0.22738   0.40504   0.95718   0.00000  Uiso   1.00
H759   H     0.03726   0.42415   0.74868   0.00000  Uiso   1.00
H760   H     0.29608   0.57585   0.75132   0.00000  Uiso   1.00
H761   H     0.29600   0.42416   0.74873   0.00000  Uiso   1.00
H762   H     0.03733   0.57584   0.75128   0.00000  Uiso   1.00
H763   H     0.12020   0.37685   0.70065   0.00000  Uiso   1.00
H764   H     0.21313   0.62315   0.79935   0.00000  Uiso   1.00
H765   H     0.21313   0.37687   0.79936   0.00000  Uiso   1.00
H766   H     0.12021   0.62313   0.70065   0.00000  Uiso   1.00
N767   N     0.16667   0.61736   0.75000   0.00000  Uiso   1.00
N768   N     0.16667   0.38264   0.75000   0.00000  Uiso   1.00
O769   O     0.10655   0.53958   0.75000   0.00000  Uiso   1.00
O770   O     0.22679   0.46042   0.75001   0.00000  Uiso   1.00
O771   O     0.22679   0.53958   0.75001   0.00000  Uiso   1.00
O772   O     0.10655   0.46042   0.75000   0.00000  Uiso   1.00
O773   O     0.16666   0.53960   0.68513   0.00000  Uiso   1.00
O774   O     0.16668   0.46040   0.81487   0.00000  Uiso   1.00
O775   O     0.16668   0.53960   0.81487   0.00000  Uiso   1.00
O776   O     0.16666   0.46040   0.68513   0.00000  Uiso   1.00
O777   O     0.11482   0.56554   0.88634   0.00000  Uiso   1.00
H778   H     0.10475   0.55168   0.85820   0.00000  Uiso   1.00
O779   O     0.21846   0.43444   0.61367   0.00000  Uiso   1.00
H780   H     0.22860   0.44834   0.64175   0.00000  Uiso   1.00
C781   C     0.42068   0.49999   0.74998   0.00000  Uiso   1.00
C782   C     0.57932   0.50000   0.75002   0.00000  Uiso   1.00
C783   C     0.45606   0.56837   0.52470   0.00000  Uiso   1.00
C784   C     0.54390   0.43161   0.97530   0.00000  Uiso   1.00
C785   C     0.35460   0.45743   0.74928   0.00000  Uiso   1.00
C786   C     0.64540   0.54257   0.75072   0.00000  Uiso   1.00
C787   C     0.64536   0.45744   0.74930   0.00000  Uiso   1.00
C788   C     0.35464   0.54256   0.75070   0.00000  Uiso   1.00
C789   C     0.62393   0.50001   0.75001   0.00000  Uiso   1.00
C790   C     0.37607   0.49999   0.74999   0.00000  Uiso   1.00
C791   C     0.47420   0.35814   0.72260   0.00000  Uiso   1.00
C792   C     0.52580   0.64186   0.77740   0.00000  Uiso   1.00
C793   C     0.52580   0.35815   0.77740   0.00000  Uiso   1.00
C794   C     0.47420   0.64185   0.72260   0.00000  Uiso   1.00
C795   C     0.50127   0.50001   0.66441   0.00000  Uiso   1.00
C796   C     0.49872   0.49999   0.83559   0.00000  Uiso   1.00
C797   C     0.51944   0.46575   0.90667   0.00000  Uiso   1.00
C798   C     0.48054   0.53425   0.59333   0.00000  Uiso   1.00
C799   C     0.49672   0.49981   0.88391   0.00000  Uiso   1.00
C800   C     0.50326   0.50019   0.61609   0.00000  Uiso   1.00
C801   C     0.47352   0.53361   0.90750   0.00000  Uiso   1.00
C802   C     0.52644   0.46637   0.59250   0.00000  Uiso   1.00
C803   C     0.47568   0.53431   0.95404   0.00000  Uiso   1.00
C804   C     0.52428   0.46567   0.54596   0.00000  Uiso   1.00
C805   C     0.49913   0.49999   0.97668   0.00000  Uiso   1.00
C806   C     0.50082   0.49999   0.52333   0.00000  Uiso   1.00
C807   C     0.52077   0.46552   0.95279   0.00000  Uiso   1.00
C808   C     0.47919   0.53447   0.54722   0.00000  Uiso   1.00
C809   C     0.45423   0.56828   0.97854   0.00000  Uiso   1.00
C810   C     0.54573   0.43170   0.52146   0.00000  Uiso   1.00
Cu811  Cu    0.50000   0.54689   0.75000   0.00000  Uiso   1.00
Cu812  Cu    0.50000   0.45311   0.75000   0.00000  Uiso   1.00
H813   H     0.53692   0.43988   0.88829   0.00000  Uiso   1.00
H814   H     0.46306   0.56012   0.61171   0.00000  Uiso   1.00
H815   H     0.43597   0.59496   0.96219   0.00000  Uiso   1.00
H816   H     0.56399   0.40502   0.53781   0.00000  Uiso   1.00
H817   H     0.43926   0.59495   0.54282   0.00000  Uiso   1.00
H818   H     0.56071   0.40504   0.95718   0.00000  Uiso   1.00
H819   H     0.37059   0.42415   0.74868   0.00000  Uiso   1.00
H820   H     0.62941   0.57585   0.75132   0.00000  Uiso   1.00
H821   H     0.62933   0.42416   0.74873   0.00000  Uiso   1.00
H822   H     0.37067   0.57584   0.75128   0.00000  Uiso   1.00
H823   H     0.45353   0.37685   0.70065   0.00000  Uiso   1.00
H824   H     0.54647   0.62315   0.79935   0.00000  Uiso   1.00
H825   H     0.54646   0.37687   0.79936   0.00000  Uiso   1.00
H826   H     0.45354   0.62313   0.70065   0.00000  Uiso   1.00
N827   N     0.50000   0.61736   0.75000   0.00000  Uiso   1.00
N828   N     0.50000   0.38264   0.75000   0.00000  Uiso   1.00
O829   O     0.43988   0.53958   0.75000   0.00000  Uiso   1.00
O830   O     0.56012   0.46042   0.75001   0.00000  Uiso   1.00
O831   O     0.56012   0.53958   0.75001   0.00000  Uiso   1.00
O832   O     0.43988   0.46042   0.75000   0.00000  Uiso   1.00
O833   O     0.49999   0.53960   0.68513   0.00000  Uiso   1.00
O834   O     0.50001   0.46040   0.81487   0.00000  Uiso   1.00
O835   O     0.50001   0.53960   0.81487   0.00000  Uiso   1.00
O836   O     0.49999   0.46040   0.68513   0.00000  Uiso   1.00
O837   O     0.44815   0.56554   0.88634   0.00000  Uiso   1.00
H838   H     0.43809   0.55168   0.85820   0.00000  Uiso   1.00
O839   O     0.55179   0.43444   0.61367   0.00000  Uiso   1.00
H840   H     0.56193   0.44834   0.64175   0.00000  Uiso   1.00
C841   C     0.75402   0.49999   0.74998   0.00000  Uiso   1.00
C842   C     0.91265   0.50000   0.75002   0.00000  Uiso   1.00
C843   C     0.78940   0.56837   0.52470   0.00000  Uiso   1.00
C844   C     0.87723   0.43161   0.97530   0.00000  Uiso   1.00
C845   C     0.68793   0.45743   0.74928   0.00000  Uiso   1.00
C846   C     0.97874   0.54257   0.75072   0.00000  Uiso   1.00
C847   C     0.97870   0.45744   0.74930   0.00000  Uiso   1.00
C848   C     0.68797   0.54256   0.75070   0.00000  Uiso   1.00
C849   C     0.95726   0.50001   0.75001   0.00000  Uiso   1.00
C850   C     0.70940   0.49999   0.74999   0.00000  Uiso   1.00
C851   C     0.80753   0.35814   0.72260   0.00000  Uiso   1.00
C852   C     0.85913   0.64186   0.77740   0.00000  Uiso   1.00
C853   C     0.85913   0.35815   0.77740   0.00000  Uiso   1.00
C854   C     0.80753   0.64185   0.72260   0.00000  Uiso   1.00
C855   C     0.83460   0.50001   0.66441   0.00000  Uiso   1.00
C856   C     0.83206   0.49999   0.83559   0.00000  Uiso   1.00
C857   C     0.85277   0.46575   0.90667   0.00000  Uiso   1.00
C858   C     0.81387   0.53425   0.59333   0.00000  Uiso   1.00
C859   C     0.83005   0.49981   0.88391   0.00000  Uiso   1.00
C860   C     0.83660   0.50019   0.61609   0.00000  Uiso   1.00
C861   C     0.80685   0.53361   0.90750   0.00000  Uiso   1.00
C862   C     0.85977   0.46637   0.59250   0.00000  Uiso   1.00
C863   C     0.80901   0.53431   0.95404   0.00000  Uiso   1.00
C864   C     0.85761   0.46567   0.54596   0.00000  Uiso   1.00
C865   C     0.83247   0.49999   0.97668   0.00000  Uiso   1.00
C866   C     0.83416   0.49999   0.52333   0.00000  Uiso   1.00
C867   C     0.85410   0.46552   0.95279   0.00000  Uiso   1.00
C868   C     0.81252   0.53447   0.54722   0.00000  Uiso   1.00
C869   C     0.78756   0.56828   0.97854   0.00000  Uiso   1.00
C870   C     0.87906   0.43170   0.52146   0.00000  Uiso   1.00
Cu871  Cu    0.83333   0.54689   0.75000   0.00000  Uiso   1.00
Cu872  Cu    0.83333   0.45311   0.75000   0.00000  Uiso   1.00
H873   H     0.87025   0.43988   0.88829   0.00000  Uiso   1.00
H874   H     0.79640   0.56012   0.61171   0.00000  Uiso   1.00
H875   H     0.76930   0.59496   0.96219   0.00000  Uiso   1.00
H876   H     0.89733   0.40502   0.53781   0.00000  Uiso   1.00
H877   H     0.77259   0.59495   0.54282   0.00000  Uiso   1.00
H878   H     0.89404   0.40504   0.95718   0.00000  Uiso   1.00
H879   H     0.70392   0.42415   0.74868   0.00000  Uiso   1.00
H880   H     0.96274   0.57585   0.75132   0.00000  Uiso   1.00
H881   H     0.96267   0.42416   0.74873   0.00000  Uiso   1.00
H882   H     0.70400   0.57584   0.75128   0.00000  Uiso   1.00
H883   H     0.78687   0.37685   0.70065   0.00000  Uiso   1.00
H884   H     0.87980   0.62315   0.79935   0.00000  Uiso   1.00
H885   H     0.87980   0.37687   0.79936   0.00000  Uiso   1.00
H886   H     0.78687   0.62313   0.70065   0.00000  Uiso   1.00
N887   N     0.83333   0.61736   0.75000   0.00000  Uiso   1.00
N888   N     0.83333   0.38264   0.75000   0.00000  Uiso   1.00
O889   O     0.77321   0.53958   0.75000   0.00000  Uiso   1.00
O890   O     0.89345   0.46042   0.75001   0.00000  Uiso   1.00
O891   O     0.89345   0.53958   0.75001   0.00000  Uiso   1.00
O892   O     0.77321   0.46042   0.75000   0.00000  Uiso   1.00
O893   O     0.83332   0.53960   0.68513   0.00000  Uiso   1.00
O894   O     0.83334   0.46040   0.81487   0.00000  Uiso   1.00
O895   O     0.83334   0.53960   0.81487   0.00000  Uiso   1.00
O896   O     0.83332   0.46040   0.68513   0.00000  Uiso   1.00
O897   O     0.78148   0.56554   0.88634   0.00000  Uiso   1.00
H898   H     0.77142   0.55168   0.85820   0.00000  Uiso   1.00
O899   O     0.88513   0.43444   0.61367   0.00000  Uiso   1.00
H900   H     0.89527   0.44834   0.64175   0.00000  Uiso   1.00
C901   C     0.08735   0.83333   0.74998   0.00000  Uiso   1.00
C902   C     0.24598   0.83334   0.75002   0.00000  Uiso   1.00
C903   C     0.12273   0.90171   0.52470   0.00000  Uiso   1.00
C904   C     0.21057   0.76494   0.97530   0.00000  Uiso   1.00
C905   C     0.02126   0.79076   0.74928   0.00000  Uiso   1.00
C906   C     0.31207   0.87590   0.75072   0.00000  Uiso   1.00
C907   C     0.31203   0.79077   0.74930   0.00000  Uiso   1.00
C908   C     0.02131   0.87590   0.75070   0.00000  Uiso   1.00
C909   C     0.29060   0.83334   0.75001   0.00000  Uiso   1.00
C910   C     0.04274   0.83333   0.74999   0.00000  Uiso   1.00
C911   C     0.14087   0.69147   0.72260   0.00000  Uiso   1.00
C912   C     0.19247   0.97519   0.77740   0.00000  Uiso   1.00
C913   C     0.19247   0.69148   0.77740   0.00000  Uiso   1.00
C914   C     0.14087   0.97518   0.72260   0.00000  Uiso   1.00
C915   C     0.16793   0.83334   0.66441   0.00000  Uiso   1.00
C916   C     0.16539   0.83332   0.83559   0.00000  Uiso   1.00
C917   C     0.18610   0.79908   0.90667   0.00000  Uiso   1.00
C918   C     0.14720   0.86758   0.59333   0.00000  Uiso   1.00
C919   C     0.16338   0.83314   0.88391   0.00000  Uiso   1.00
C920   C     0.16993   0.83352   0.61609   0.00000  Uiso   1.00
C921   C     0.14019   0.86695   0.90750   0.00000  Uiso   1.00
C922   C     0.19311   0.79970   0.59250   0.00000  Uiso   1.00
C923   C     0.14234   0.86764   0.95404   0.00000  Uiso   1.00
C924   C     0.19095   0.79900   0.54596   0.00000  Uiso   1.00
C925   C     0.16580   0.83332   0.97668   0.00000  Uiso   1.00
C926   C     0.16749   0.83332   0.52333   0.00000  Uiso   1.00
C927   C     0.18744   0.79885   0.95279   0.00000  Uiso   1.00
C928   C     0.14586   0.86780   0.54722   0.00000  Uiso   1.00
C929   C     0.12089   0.90161   0.97854   0.00000  Uiso   1.00
C930   C     0.21240   0.76504   0.52146   0.00000  Uiso   1.00
Cu931  Cu    0.16667   0.88022   0.75000   0.00000  Uiso   1.00
Cu932  Cu    0.16667   0.78645   0.75000   0.00000  Uiso   1.00
H933   H     0.20358   0.77321   0.88829   0.00000  Uiso   1.00
H934   H     0.12973   0.89345   0.61171   0.00000  Uiso   1.00
H935   H     0.10264   0.92830   0.96219   0.00000  Uiso   1.00
H936   H     0.23066   0.73836   0.53781   0.00000  Uiso   1.00
H937   H     0.10592   0.92828   0.54282   0.00000  Uiso   1.00
H938   H     0.22738   0.73838   0.95718   0.00000  Uiso   1.00
H939   H     0.03726   0.75748   0.74868   0.00000  Uiso   1.00
H940   H     0.29608   0.90918   0.75132   0.00000  Uiso   1.00
H941   H     0.29600   0.75749   0.74873   0.00000  Uiso   1.00
H942   H     0.03733   0.90917   0.75128   0.00000  Uiso   1.00
H943   H     0.12020   0.71018   0.70065   0.00000  Uiso   1.00
H944   H     0.21313   0.95649   0.79935   0.00000  Uiso   1.00
H945   H     0.21313   0.71020   0.79936   0.00000  Uiso   1.00
H946   H     0.12021   0.95647   0.70065   0.00000  Uiso   1.00
N947   N     0.16667   0.95069   0.75000   0.00000  Uiso   1.00
N948   N     0.16667   0.71598   0.75000   0.00000  Uiso   1.00
O949   O     0.10655   0.87291   0.75000   0.00000  Uiso   1.00
O950   O     0.22679   0.79375   0.75001   0.00000  Uiso   1.00
O951   O     0.22679   0.87291   0.75001   0.00000  Uiso   1.00
O952   O     0.10655   0.79375   0.75000   0.00000  Uiso   1.00
O953   O     0.16666   0.87293   0.68513   0.00000  Uiso   1.00
O954   O     0.16668   0.79373   0.81487   0.00000  Uiso   1.00
O955   O     0.16668   0.87293   0.81487   0.00000  Uiso   1.00
O956   O     0.16666   0.79373   0.68513   0.00000  Uiso   1.00
O957   O     0.11482   0.89887   0.88634   0.00000  Uiso   1.00
H958   H     0.10475   0.88501   0.85820   0.00000  Uiso   1.00
O959   O     0.21846   0.76777   0.61367   0.00000  Uiso   1.00
H960   H     0.22860   0.78168   0.64175   0.00000  Uiso   1.00
C961   C     0.42068   0.83333   0.74998   0.00000  Uiso   1.00
C962   C     0.57932   0.83334   0.75002   0.00000  Uiso   1.00
C963   C     0.45606   0.90171   0.52470   0.00000  Uiso   1.00
C964   C     0.54390   0.76494   0.97530   0.00000  Uiso   1.00
C965   C     0.35460   0.79076   0.74928   0.00000  Uiso   1.00
C966   C     0.64540   0.87590   0.75072   0.00000  Uiso   1.00
C967   C     0.64536   0.79077   0.74930   0.00000  Uiso   1.00
C968   C     0.35464   0.87590   0.75070   0.00000  Uiso   1.00
C969   C     0.62393   0.83334   0.75001   0.00000  Uiso   1.00
C970   C     0.37607   0.83333   0.74999   0.00000  Uiso   1.00
C971   C     0.47420   0.69147   0.72260   0.00000  Uiso   1.00
C972   C     0.52580   0.97519   0.77740   0.00000  Uiso   1.00
C973   C     0.52580   0.69148   0.77740   0.00000  Uiso   1.00
C974   C     0.47420   0.97518   0.72260   0.00000  Uiso   1.00
C975   C     0.50127   0.83334   0.66441   0.00000  Uiso   1.00
C976   C     0.49872   0.83332   0.83559   0.00000  Uiso   1.00
C977   C     0.51944   0.79908   0.90667   0.00000  Uiso   1.00
C978   C     0.48054   0.86758   0.59333   0.00000  Uiso   1.00
C979   C     0.49672   0.83314   0.88391   0.00000  Uiso   1.00
C980   C     0.50326   0.83352   0.61609   0.00000  Uiso   1.00
C981   C     0.47352   0.86695   0.90750   0.00000  Uiso   1.00
C982   C     0.52644   0.79970   0.59250   0.00000  Uiso   1.00
C983   C     0.47568   0.86764   0.95404   0.00000  Uiso   1.00
C984   C     0.52428   0.79900   0.54596   0.00000  Uiso   1.00
C985   C     0.49913   0.83332   0.97668   0.00000  Uiso   1.00
C986   C     0.50082   0.83332   0.52333   0.00000  Uiso   1.00
C987   C     0.52077   0.79885   0.95279   0.00000  Uiso   1.00
C988   C     0.47919   0.86780   0.54722   0.00000  Uiso   1.00
C989   C     0.45423   0.90161   0.97854   0.00000  Uiso   1.00
C990   C     0.54573   0.76504   0.52146   0.00000  Uiso   1.00
Cu991  Cu    0.50000   0.88022   0.75000   0.00000  Uiso   1.00
Cu992  Cu    0.50000   0.78645   0.75000   0.00000  Uiso   1.00
H993   H     0.53692   0.77321   0.88829   0.00000  Uiso   1.00
H994   H     0.46306   0.89345   0.61171   0.00000  Uiso   1.00
H995   H     0.43597   0.92830   0.96219   0.00000  Uiso   1.00
H996   H     0.56399   0.73836   0.53781   0.00000  Uiso   1.00
H997   H     0.43926   0.92828   0.54282   0.00000  Uiso   1.00
H998   H     0.56071   0.73838   0.95718   0.00000  Uiso   1.00
H999   H     0.37059   0.75748   0.74868   0.00000  Uiso   1.00
H1000  H     0.62941   0.90918   0.75132   0.00000  Uiso   1.00
H1001  H     0.62933   0.75749   0.74873   0.00000  Uiso   1.00
H1002  H     0.37067   0.90917   0.75128   0.00000  Uiso   1.00
H1003  H     0.45353   0.71018   0.70065   0.00000  Uiso   1.00
H1004  H     0.54647   0.95649   0.79935   0.00000  Uiso   1.00
H1005  H     0.54646   0.71020   0.79936   0.00000  Uiso   1.00
H1006  H     0.45354   0.95647   0.70065   0.00000  Uiso   1.00
N1007  N     0.50000   0.95069   0.75000   0.00000  Uiso   1.00
N1008  N     0.50000   0.71598   0.75000   0.00000  Uiso   1.00
O1009  O     0.43988   0.87291   0.75000   0.00000  Uiso   1.00
O1010  O     0.56012   0.79375   0.75001   0.00000  Uiso   1.00
O1011  O     0.56012   0.87291   0.75001   0.00000  Uiso   1.00
O1012  O     0.43988   0.79375   0.75000   0.00000  Uiso   1.00
O1013  O     0.49999   0.87293   0.68513   0.00000  Uiso   1.00
O1014  O     0.50001   0.79373   0.81487   0.00000  Uiso   1.00
O1015  O     0.50001   0.87293   0.81487   0.00000  Uiso   1.00
O1016  O     0.49999   0.79373   0.68513   0.00000  Uiso   1.00
O1017  O     0.44815   0.89887   0.88634   0.00000  Uiso   1.00
H1018  H     0.43809   0.88501   0.85820   0.00000  Uiso   1.00
O1019  O     0.55179   0.76777   0.61367   0.00000  Uiso   1.00
H1020  H     0.56193   0.78168   0.64175   0.00000  Uiso   1.00
C1021  C     0.75402   0.83333   0.74998   0.00000  Uiso   1.00
C1022  C     0.91265   0.83334   0.75002   0.00000  Uiso   1.00
C1023  C     0.78940   0.90171   0.52470   0.00000  Uiso   1.00
C1024  C     0.87723   0.76494   0.97530   0.00000  Uiso   1.00
C1025  C     0.68793   0.79076   0.74928   0.00000  Uiso   1.00
C1026  C     0.97874   0.87590   0.75072   0.00000  Uiso   1.00
C1027  C     0.97870   0.79077   0.74930   0.00000  Uiso   1.00
C1028  C     0.68797   0.87590   0.75070   0.00000  Uiso   1.00
C1029  C     0.95726   0.83334   0.75001   0.00000  Uiso   1.00
C1030  C     0.70940   0.83333   0.74999   0.00000  Uiso   1.00
C1031  C     0.80753   0.69147   0.72260   0.00000  Uiso   1.00
C1032  C     0.85913   0.97519   0.77740   0.00000  Uiso   1.00
C1033  C     0.85913   0.69148   0.77740   0.00000  Uiso   1.00
C1034  C     0.80753   0.97518   0.72260   0.00000  Uiso   1.00
C1035  C     0.83460   0.83334   0.66441   0.00000  Uiso   1.00
C1036  C     0.83206   0.83332   0.83559   0.00000  Uiso   1.00
C1037  C     0.85277   0.79908   0.90667   0.00000  Uiso   1.00
C1038  C     0.81387   0.86758   0.59333   0.00000  Uiso   1.00
C1039  C     0.83005   0.83314   0.88391   0.00000  Uiso   1.00
C1040  C     0.83660   0.83352   0.61609   0.00000  Uiso   1.00
C1041  C     0.80685   0.86695   0.90750   0.00000  Uiso   1.00
C1042  C     0.85977   0.79970   0.59250   0.00000  Uiso   1.00
C1043  C     0.80901   0.86764   0.95404   0.00000  Uiso   1.00
C1044  C     0.85761   0.79900   0.54596   0.00000  Uiso   1.00
C1045  C     0.83247   0.83332   0.97668   0.00000  Uiso   1.00
C1046  C     0.83416   0.83332   0.52333   0.00000  Uiso   1.00
C1047  C     0.85410   0.79885   0.95279   0.00000  Uiso   1.00
C1048  C     0.81252   0.86780   0.54722   0.00000  Uiso   1.00
C1049  C     0.78756   0.90161   0.97854   0.00000  Uiso   1.00
C1050  C     0.87906   0.76504   0.52146   0.00000  Uiso   1.00
Cu1051 Cu    0.83333   0.88022   0.75000   0.00000  Uiso   1.00
Cu1052 Cu    0.83333   0.78645   0.75000   0.00000  Uiso   1.00
H1053  H     0.87025   0.77321   0.88829   0.00000  Uiso   1.00
H1054  H     0.79640   0.89345   0.61171   0.00000  Uiso   1.00
H1055  H     0.76930   0.92830   0.96219   0.00000  Uiso   1.00
H1056  H     0.89733   0.73836   0.53781   0.00000  Uiso   1.00
H1057  H     0.77259   0.92828   0.54282   0.00000  Uiso   1.00
H1058  H     0.89404   0.73838   0.95718   0.00000  Uiso   1.00
H1059  H     0.70392   0.75748   0.74868   0.00000  Uiso   1.00
H1060  H     0.96274   0.90918   0.75132   0.00000  Uiso   1.00
H1061  H     0.96267   0.75749   0.74873   0.00000  Uiso   1.00
H1062  H     0.70400   0.90917   0.75128   0.00000  Uiso   1.00
H1063  H     0.78687   0.71018   0.70065   0.00000  Uiso   1.00
H1064  H     0.87980   0.95649   0.79935   0.00000  Uiso   1.00
H1065  H     0.87980   0.71020   0.79936   0.00000  Uiso   1.00
H1066  H     0.78687   0.95647   0.70065   0.00000  Uiso   1.00
N1067  N     0.83333   0.95069   0.75000   0.00000  Uiso   1.00
N1068  N     0.83333   0.71598   0.75000   0.00000  Uiso   1.00
O1069  O     0.77321   0.87291   0.75000   0.00000  Uiso   1.00
O1070  O     0.89345   0.79375   0.75001   0.00000  Uiso   1.00
O1071  O     0.89345   0.87291   0.75001   0.00000  Uiso   1.00
O1072  O     0.77321   0.79375   0.75000   0.00000  Uiso   1.00
O1073  O     0.83332   0.87293   0.68513   0.00000  Uiso   1.00
O1074  O     0.83334   0.79373   0.81487   0.00000  Uiso   1.00
O1075  O     0.83334   0.87293   0.81487   0.00000  Uiso   1.00
O1076  O     0.83332   0.79373   0.68513   0.00000  Uiso   1.00
O1077  O     0.78148   0.89887   0.88634   0.00000  Uiso   1.00
H1078  H     0.77142   0.88501   0.85820   0.00000  Uiso   1.00
O1079  O     0.88513   0.76777   0.61367   0.00000  Uiso   1.00
H1080  H     0.89527   0.78168   0.64175   0.00000  Uiso   1.00
loop_
_geom_bond_atom_site_label_1
_geom_bond_atom_site_label_2
_geom_bond_distance
_geom_bond_site_symmetry_2
_ccdc_geom_bond_type
C1     O52     1.291   .     A
C1     O49     1.291   .     A
C1     C10     1.450   .     S
C2     O51     1.291   .     A
C2     O50     1.291   .     A
C2     C9      1.450   .     S
C3     C28     1.399   .     A
C3     H37     1.084   .     S
C3     C569    1.392   1_554 S
C4     C27     1.399   .     A
C4     H38     1.084   .     S
C4     C570    1.392   .     S
C5     H39     1.083   .     S
C5     C10     1.401   .     A
C5     C127    1.383   1_455 S
C6     C9      1.401   .     A
C6     H40     1.083   .     S
C6     C68     1.383   .     S
C7     C9      1.401   .     A
C7     H41     1.083   .     S
C7     C65     1.383   .     S
C8     H42     1.083   .     S
C8     C10     1.401   .     A
C8     C126    1.383   1_455 S
C11    N48     1.367   .     A
C11    H43     1.082   .     S
C11    C374    1.416   1_545 S
C12    N47     1.367   .     A
C12    H44     1.082   .     S
C12    C193    1.416   .     S
C13    N48     1.367   .     A
C13    H45     1.082   .     S
C13    C372    1.416   1_545 S
C14    N47     1.367   .     A
C14    H46     1.082   .     S
C14    C191    1.416   .     S
C15    O56     1.292   .     A
C15    C20     1.458   .     S
C15    O53     1.292   .     A
C16    O55     1.292   .     A
C16    C19     1.458   .     S
C16    O54     1.292   .     A
C17    H33     1.085   .     S
C17    C19     1.399   .     A
C17    C27     1.390   .     A
C18    H34     1.085   .     S
C18    C28     1.390   .     A
C18    C20     1.399   .     A
C19    C21     1.418   .     A
C20    C22     1.418   .     A
C21    O57     1.383   .     S
C21    C23     1.404   .     A
C22    C24     1.404   .     A
C22    O59     1.383   .     S
C23    C29     1.406   .     A
C23    C25     1.415   .     A
C24    C30     1.406   .     A
C24    C26     1.415   .     A
C25    C27     1.409   .     A
C25    C566    1.406   .     S
C26    C28     1.409   .     A
C26    C565    1.406   1_554 S
C29    H35     1.083   .     S
C29    C543    1.392   .     S
C30    H36     1.083   .     S
C30    C544    1.392   1_554 S
Cu31   Cu32    2.677   .     S
Cu31   N47     2.012   .     S
Cu31   O53     1.966   .     S
Cu31   O49     1.965   .     S
Cu31   O51     1.965   .     S
Cu31   O55     1.966   .     S
Cu32   N48     2.012   .     S
Cu32   O50     1.965   .     S
Cu32   O54     1.966   .     S
Cu32   O52     1.965   .     S
Cu32   O56     1.966   .     S
O57    H58     0.990   .     S
O59    H60     0.990   .     S
C61    O112    1.291   .     A
C61    O109    1.291   .     A
C61    C70     1.450   .     S
C62    O111    1.291   .     A
C62    O110    1.291   .     A
C62    C69     1.450   .     S
C63    C88     1.399   .     A
C63    H97     1.084   .     S
C63    C629    1.392   1_554 S
C64    C87     1.399   .     A
C64    H98     1.084   .     S
C64    C630    1.392   .     S
C65    H99     1.083   .     S
C65    C70     1.401   .     A
C66    C69     1.401   .     A
C66    H100    1.083   .     S
C66    C128    1.383   .     S
C67    C69     1.401   .     A
C67    H101    1.083   .     S
C67    C125    1.383   .     S
C68    H102    1.083   .     S
C68    C70     1.401   .     A
C71    N108    1.367   .     A
C71    H103    1.082   .     S
C71    C434    1.416   1_545 S
C72    N107    1.367   .     A
C72    H104    1.082   .     S
C72    C253    1.416   .     S
C73    N108    1.367   .     A
C73    H105    1.082   .     S
C73    C432    1.416   1_545 S
C74    N107    1.367   .     A
C74    H106    1.082   .     S
C74    C251    1.416   .     S
C75    O116    1.292   .     A
C75    C80     1.458   .     S
C75    O113    1.292   .     A
C76    O115    1.292   .     A
C76    C79     1.458   .     S
C76    O114    1.292   .     A
C77    H93     1.085   .     S
C77    C79     1.399   .     A
C77    C87     1.390   .     A
C78    H94     1.085   .     S
C78    C88     1.390   .     A
C78    C80     1.399   .     A
C79    C81     1.418   .     A
C80    C82     1.418   .     A
C81    O117    1.383   .     S
C81    C83     1.404   .     A
C82    C84     1.404   .     A
C82    O119    1.383   .     S
C83    C89     1.406   .     A
C83    C85     1.415   .     A
C84    C90     1.406   .     A
C84    C86     1.415   .     A
C85    C87     1.409   .     A
C85    C626    1.406   .     S
C86    C88     1.409   .     A
C86    C625    1.406   1_554 S
C89    H95     1.083   .     S
C89    C603    1.392   .     S
C90    H96     1.083   .     S
C90    C604    1.392   1_554 S
Cu91   Cu92    2.677   .     S
Cu91   N107    2.012   .     S
Cu91   O113    1.966   .     S
Cu91   O109    1.965   .     S
Cu91   O111    1.965   .     S
Cu91   O115    1.966   .     S
Cu92   N108    2.012   .     S
Cu92   O110    1.965   .     S
Cu92   O114    1.966   .     S
Cu92   O112    1.965   .     S
Cu92   O116    1.966   .     S
O117   H118    0.990   .     S
O119   H120    0.990   .     S
C121   O172    1.291   .     A
C121   O169    1.291   .     A
C121   C130    1.450   .     S
C122   O171    1.291   .     A
C122   O170    1.291   .     A
C122   C129    1.450   .     S
C123   C148    1.399   .     A
C123   H157    1.084   .     S
C123   C689    1.392   1_554 S
C124   C147    1.399   .     A
C124   H158    1.084   .     S
C124   C690    1.392   .     S
C125   H159    1.083   .     S
C125   C130    1.401   .     A
C126   C129    1.401   .     A
C126   H160    1.083   .     S
C126   C8      1.383   1_655 S
C127   C129    1.401   .     A
C127   H161    1.083   .     S
C127   C5      1.383   1_655 S
C128   H162    1.083   .     S
C128   C130    1.401   .     A
C131   N168    1.367   .     A
C131   H163    1.082   .     S
C131   C494    1.416   1_545 S
C132   N167    1.367   .     A
C132   H164    1.082   .     S
C132   C313    1.416   .     S
C133   N168    1.367   .     A
C133   H165    1.082   .     S
C133   C492    1.416   1_545 S
C134   N167    1.367   .     A
C134   H166    1.082   .     S
C134   C311    1.416   .     S
C135   O176    1.292   .     A
C135   C140    1.458   .     S
C135   O173    1.292   .     A
C136   O175    1.292   .     A
C136   C139    1.458   .     S
C136   O174    1.292   .     A
C137   H153    1.085   .     S
C137   C139    1.399   .     A
C137   C147    1.390   .     A
C138   H154    1.085   .     S
C138   C148    1.390   .     A
C138   C140    1.399   .     A
C139   C141    1.418   .     A
C140   C142    1.418   .     A
C141   O177    1.383   .     S
C141   C143    1.404   .     A
C142   C144    1.404   .     A
C142   O179    1.383   .     S
C143   C149    1.406   .     A
C143   C145    1.415   .     A
C144   C150    1.406   .     A
C144   C146    1.415   .     A
C145   C147    1.409   .     A
C145   C686    1.406   .     S
C146   C148    1.409   .     A
C146   C685    1.406   1_554 S
C149   H155    1.083   .     S
C149   C663    1.392   .     S
C150   H156    1.083   .     S
C150   C664    1.392   1_554 S
Cu151  Cu152   2.677   .     S
Cu151  N167    2.012   .     S
Cu151  O173    1.966   .     S
Cu151  O169    1.965   .     S
Cu151  O171    1.965   .     S
Cu151  O175    1.966   .     S
Cu152  N168    2.012   .     S
Cu152  O170    1.965   .     S
Cu152  O174    1.966   .     S
Cu152  O172    1.965   .     S
Cu152  O176    1.966   .     S
O177   H178    0.990   .     S
O179   H180    0.990   .     S
C181   O232    1.291   .     A
C181   O229    1.291   .     A
C181   C190    1.450   .     S
C182   O231    1.291   .     A
C182   O230    1.291   .     A
C182   C189    1.450   .     S
C183   C208    1.399   .     A
C183   H217    1.084   .     S
C183   C749    1.392   1_554 S
C184   C207    1.399   .     A
C184   H218    1.084   .     S
C184   C750    1.392   .     S
C185   H219    1.083   .     S
C185   C190    1.401   .     A
C185   C307    1.383   1_455 S
C186   C189    1.401   .     A
C186   H220    1.083   .     S
C186   C248    1.383   .     S
C187   C189    1.401   .     A
C187   H221    1.083   .     S
C187   C245    1.383   .     S
C188   H222    1.083   .     S
C188   C190    1.401   .     A
C188   C306    1.383   1_455 S
C191   N228    1.367   .     A
C191   H223    1.082   .     S
C192   N227    1.367   .     A
C192   H224    1.082   .     S
C192   C373    1.416   .     S
C193   N228    1.367   .     A
C193   H225    1.082   .     S
C194   N227    1.367   .     A
C194   H226    1.082   .     S
C194   C371    1.416   .     S
C195   O236    1.292   .     A
C195   C200    1.458   .     S
C195   O233    1.292   .     A
C196   O235    1.292   .     A
C196   C199    1.458   .     S
C196   O234    1.292   .     A
C197   H213    1.085   .     S
C197   C199    1.399   .     A
C197   C207    1.390   .     A
C198   H214    1.085   .     S
C198   C208    1.390   .     A
C198   C200    1.399   .     A
C199   C201    1.418   .     A
C200   C202    1.418   .     A
C201   O237    1.383   .     S
C201   C203    1.404   .     A
C202   C204    1.404   .     A
C202   O239    1.383   .     S
C203   C209    1.406   .     A
C203   C205    1.415   .     A
C204   C210    1.406   .     A
C204   C206    1.415   .     A
C205   C207    1.409   .     A
C205   C746    1.406   .     S
C206   C208    1.409   .     A
C206   C745    1.406   1_554 S
C209   H215    1.083   .     S
C209   C723    1.392   .     S
C210   H216    1.083   .     S
C210   C724    1.392   1_554 S
Cu211  Cu212   2.677   .     S
Cu211  N227    2.012   .     S
Cu211  O233    1.966   .     S
Cu211  O229    1.965   .     S
Cu211  O231    1.965   .     S
Cu211  O235    1.966   .     S
Cu212  N228    2.012   .     S
Cu212  O230    1.965   .     S
Cu212  O234    1.966   .     S
Cu212  O232    1.965   .     S
Cu212  O236    1.966   .     S
O237   H238    0.990   .     S
O239   H240    0.990   .     S
C241   O292    1.291   .     A
C241   O289    1.291   .     A
C241   C250    1.450   .     S
C242   O291    1.291   .     A
C242   O290    1.291   .     A
C242   C249    1.450   .     S
C243   C268    1.399   .     A
C243   H277    1.084   .     S
C243   C809    1.392   1_554 S
C244   C267    1.399   .     A
C244   H278    1.084   .     S
C244   C810    1.392   .     S
C245   H279    1.083   .     S
C245   C250    1.401   .     A
C246   C249    1.401   .     A
C246   H280    1.083   .     S
C246   C308    1.383   .     S
C247   C249    1.401   .     A
C247   H281    1.083   .     S
C247   C305    1.383   .     S
C248   H282    1.083   .     S
C248   C250    1.401   .     A
C251   N288    1.367   .     A
C251   H283    1.082   .     S
C252   N287    1.367   .     A
C252   H284    1.082   .     S
C252   C433    1.416   .     S
C253   N288    1.367   .     A
C253   H285    1.082   .     S
C254   N287    1.367   .     A
C254   H286    1.082   .     S
C254   C431    1.416   .     S
C255   O296    1.292   .     A
C255   C260    1.458   .     S
C255   O293    1.292   .     A
C256   O295    1.292   .     A
C256   C259    1.458   .     S
C256   O294    1.292   .     A
C257   H273    1.085   .     S
C257   C259    1.399   .     A
C257   C267    1.390   .     A
C258   H274    1.085   .     S
C258   C268    1.390   .     A
C258   C260    1.399   .     A
C259   C261    1.418   .     A
C260   C262    1.418   .     A
C261   O297    1.383   .     S
C261   C263    1.404   .     A
C262   C264    1.404   .     A
C262   O299    1.383   .     S
C263   C269    1.406   .     A
C263   C265    1.415   .     A
C264   C270    1.406   .     A
C264   C266    1.415   .     A
C265   C267    1.409   .     A
C265   C806    1.406   .     S
C266   C268    1.409   .     A
C266   C805    1.406   1_554 S
C269   H275    1.083   .     S
C269   C783    1.392   .     S
C270   H276    1.083   .     S
C270   C784    1.392   1_554 S
Cu271  Cu272   2.677   .     S
Cu271  N287    2.012   .     S
Cu271  O293    1.966   .     S
Cu271  O289    1.965   .     S
Cu271  O291    1.965   .     S
Cu271  O295    1.966   .     S
Cu272  N288    2.012   .     S
Cu272  O290    1.965   .     S
Cu272  O294    1.966   .     S
Cu272  O292    1.965   .     S
Cu272  O296    1.966   .     S
O297   H298    0.990   .     S
O299   H300    0.990   .     S
C301   O352    1.291   .     A
C301   O349    1.291   .     A
C301   C310    1.450   .     S
C302   O351    1.291   .     A
C302   O350    1.291   .     A
C302   C309    1.450   .     S
C303   C328    1.399   .     A
C303   H337    1.084   .     S
C303   C869    1.392   1_554 S
C304   C327    1.399   .     A
C304   H338    1.084   .     S
C304   C870    1.392   .     S
C305   H339    1.083   .     S
C305   C310    1.401   .     A
C306   C309    1.401   .     A
C306   H340    1.083   .     S
C306   C188    1.383   1_655 S
C307   C309    1.401   .     A
C307   H341    1.083   .     S
C307   C185    1.383   1_655 S
C308   H342    1.083   .     S
C308   C310    1.401   .     A
C311   N348    1.367   .     A
C311   H343    1.082   .     S
C312   N347    1.367   .     A
C312   H344    1.082   .     S
C312   C493    1.416   .     S
C313   N348    1.367   .     A
C313   H345    1.082   .     S
C314   N347    1.367   .     A
C314   H346    1.082   .     S
C314   C491    1.416   .     S
C315   O356    1.292   .     A
C315   C320    1.458   .     S
C315   O353    1.292   .     A
C316   O355    1.292   .     A
C316   C319    1.458   .     S
C316   O354    1.292   .     A
C317   H333    1.085   .     S
C317   C319    1.399   .     A
C317   C327    1.390   .     A
C318   H334    1.085   .     S
C318   C328    1.390   .     A
C318   C320    1.399   .     A
C319   C321    1.418   .     A
C320   C322    1.418   .     A
C321   O357    1.383   .     S
C321   C323    1.404   .     A
C322   C324    1.404   .     A
C322   O359    1.383   .     S
C323   C329    1.406   .     A
C323   C325    1.415   .     A
C324   C330    1.406   .     A
C324   C326    1.415   .     A
C325   C327    1.409   .     A
C325   C866    1.406   .     S
C326   C328    1.409   .     A
C326   C865    1.406   1_554 S
C329   H335    1.083   .     S
C329   C843    1.392   .     S
C330   H336    1.083   .     S
C330   C844    1.392   1_554 S
Cu331  Cu332   2.677   .     S
Cu331  N347    2.012   .     S
Cu331  O353    1.966   .     S
Cu331  O349    1.965   .     S
Cu331  O351    1.965   .     S
Cu331  O355    1.966   .     S
Cu332  N348    2.012   .     S
Cu332  O350    1.965   .     S
Cu332  O354    1.966   .     S
Cu332  O352    1.965   .     S
Cu332  O356    1.966   .     S
O357   H358    0.990   .     S
O359   H360    0.990   .     S
C361   O412    1.291   .     A
C361   O409    1.291   .     A
C361   C370    1.450   .     S
C362   O411    1.291   .     A
C362   O410    1.291   .     A
C362   C369    1.450   .     S
C363   C388    1.399   .     A
C363   H397    1.084   .     S
C363   C929    1.392   1_554 S
C364   C387    1.399   .     A
C364   H398    1.084   .     S
C364   C930    1.392   .     S
C365   H399    1.083   .     S
C365   C370    1.401   .     A
C365   C487    1.383   1_455 S
C366   C369    1.401   .     A
C366   H400    1.083   .     S
C366   C428    1.383   .     S
C367   C369    1.401   .     A
C367   H401    1.083   .     S
C367   C425    1.383   .     S
C368   H402    1.083   .     S
C368   C370    1.401   .     A
C368   C486    1.383   1_455 S
C371   N408    1.367   .     A
C371   H403    1.082   .     S
C372   N407    1.367   .     A
C372   H404    1.082   .     S
C372   C13     1.416   1_565 S
C373   N408    1.367   .     A
C373   H405    1.082   .     S
C374   N407    1.367   .     A
C374   H406    1.082   .     S
C374   C11     1.416   1_565 S
C375   O416    1.292   .     A
C375   C380    1.458   .     S
C375   O413    1.292   .     A
C376   O415    1.292   .     A
C376   C379    1.458   .     S
C376   O414    1.292   .     A
C377   H393    1.085   .     S
C377   C379    1.399   .     A
C377   C387    1.390   .     A
C378   H394    1.085   .     S
C378   C388    1.390   .     A
C378   C380    1.399   .     A
C379   C381    1.418   .     A
C380   C382    1.418   .     A
C381   O417    1.383   .     S
C381   C383    1.404   .     A
C382   C384    1.404   .     A
C382   O419    1.383   .     S
C383   C389    1.406   .     A
C383   C385    1.415   .     A
C384   C390    1.406   .     A
C384   C386    1.415   .     A
C385   C387    1.409   .     A
C385   C926    1.406   .     S
C386   C388    1.409   .     A
C386   C925    1.406   1_554 S
C389   H395    1.083   .     S
C389   C903    1.392   .     S
C390   H396    1.083   .     S
C390   C904    1.392   1_554 S
Cu391  Cu392   2.677   .     S
Cu391  N407    2.012   .     S
Cu391  O413    1.966   .     S
Cu391  O409    1.965   .     S
Cu391  O411    1.965   .     S
Cu391  O415    1.966   .     S
Cu392  N408    2.012   .     S
Cu392  O410    1.965   .     S
Cu392  O414    1.966   .     S
Cu392  O412    1.965   .     S
Cu392  O416    1.966   .     S
O417   H418    0.990   .     S
O419   H420    0.990   .     S
C421   O472    1.291   .     A
C421   O469    1.291   .     A
C421   C430    1.450   .     S
C422   O471    1.291   .     A
C422   O470    1.291   .     A
C422   C429    1.450   .     S
C423   C448    1.399   .     A
C423   H457    1.084   .     S
C423   C989    1.392   1_554 S
C424   C447    1.399   .     A
C424   H458    1.084   .     S
C424   C990    1.392   .     S
C425   H459    1.083   .     S
C425   C430    1.401   .     A
C426   C429    1.401   .     A
C426   H460    1.083   .     S
C426   C488    1.383   .     S
C427   C429    1.401   .     A
C427   H461    1.083   .     S
C427   C485    1.383   .     S
C428   H462    1.083   .     S
C428   C430    1.401   .     A
C431   N468    1.367   .     A
C431   H463    1.082   .     S
C432   N467    1.367   .     A
C432   H464    1.082   .     S
C432   C73     1.416   1_565 S
C433   N468    1.367   .     A
C433   H465    1.082   .     S
C434   N467    1.367   .     A
C434   H466    1.082   .     S
C434   C71     1.416   1_565 S
C435   O476    1.292   .     A
C435   C440    1.458   .     S
C435   O473    1.292   .     A
C436   O475    1.292   .     A
C436   C439    1.458   .     S
C436   O474    1.292   .     A
C437   H453    1.085   .     S
C437   C439    1.399   .     A
C437   C447    1.390   .     A
C438   H454    1.085   .     S
C438   C448    1.390   .     A
C438   C440    1.399   .     A
C439   C441    1.418   .     A
C440   C442    1.418   .     A
C441   O477    1.383   .     S
C441   C443    1.404   .     A
C442   C444    1.404   .     A
C442   O479    1.383   .     S
C443   C449    1.406   .     A
C443   C445    1.415   .     A
C444   C450    1.406   .     A
C444   C446    1.415   .     A
C445   C447    1.409   .     A
C445   C986    1.406   .     S
C446   C448    1.409   .     A
C446   C985    1.406   1_554 S
C449   H455    1.083   .     S
C449   C963    1.392   .     S
C450   H456    1.083   .     S
C450   C964    1.392   1_554 S
Cu451  Cu452   2.677   .     S
Cu451  N467    2.012   .     S
Cu451  O473    1.966   .     S
Cu451  O469    1.965   .     S
Cu451  O471    1.965   .     S
Cu451  O475    1.966   .     S
Cu452  N468    2.012   .     S
Cu452  O470    1.965   .     S
Cu452  O474    1.966   .     S
Cu452  O472    1.965   .     S
Cu452  O476    1.966   .     S
O477   H478    0.990   .     S
O479   H480    0.990   .     S
C481   O532    1.291   .     A
C481   O529    1.291   .     A
C481   C490    1.450   .     S
C482   O531    1.291   .     A
C482   O530    1.291   .     A
C482   C489    1.450   .     S
C483   C508    1.399   .     A
C483   H517    1.084   .     S
C483   C1049   1.392   1_554 S
C484   C507    1.399   .     A
C484   H518    1.084   .     S
C484   C1050   1.392   .     S
C485   H519    1.083   .     S
C485   C490    1.401   .     A
C486   C489    1.401   .     A
C486   H520    1.083   .     S
C486   C368    1.383   1_655 S
C487   C489    1.401   .     A
C487   H521    1.083   .     S
C487   C365    1.383   1_655 S
C488   H522    1.083   .     S
C488   C490    1.401   .     A
C491   N528    1.367   .     A
C491   H523    1.082   .     S
C492   N527    1.367   .     A
C492   H524    1.082   .     S
C492   C133    1.416   1_565 S
C493   N528    1.367   .     A
C493   H525    1.082   .     S
C494   N527    1.367   .     A
C494   H526    1.082   .     S
C494   C131    1.416   1_565 S
C495   O536    1.292   .     A
C495   C500    1.458   .     S
C495   O533    1.292   .     A
C496   O535    1.292   .     A
C496   C499    1.458   .     S
C496   O534    1.292   .     A
C497   H513    1.085   .     S
C497   C499    1.399   .     A
C497   C507    1.390   .     A
C498   H514    1.085   .     S
C498   C508    1.390   .     A
C498   C500    1.399   .     A
C499   C501    1.418   .     A
C500   C502    1.418   .     A
C501   O537    1.383   .     S
C501   C503    1.404   .     A
C502   C504    1.404   .     A
C502   O539    1.383   .     S
C503   C509    1.406   .     A
C503   C505    1.415   .     A
C504   C510    1.406   .     A
C504   C506    1.415   .     A
C505   C507    1.409   .     A
C505   C1046   1.406   .     S
C506   C508    1.409   .     A
C506   C1045   1.406   1_554 S
C509   H515    1.083   .     S
C509   C1023   1.392   .     S
C510   H516    1.083   .     S
C510   C1024   1.392   1_554 S
Cu511  Cu512   2.677   .     S
Cu511  N527    2.012   .     S
Cu511  O533    1.966   .     S
Cu511  O529    1.965   .     S
Cu511  O531    1.965   .     S
Cu511  O535    1.966   .     S
Cu512  N528    2.012   .     S
Cu512  O530    1.965   .     S
Cu512  O534    1.966   .     S
Cu512  O532    1.965   .     S
Cu512  O536    1.966   .     S
O537   H538    0.990   .     S
O539   H540    0.990   .     S
C541   O592    1.291   .     A
C541   O589    1.291   .     A
C541   C550    1.450   .     S
C542   O591    1.291   .     A
C542   O590    1.291   .     A
C542   C549    1.450   .     S
C543   C568    1.399   .     A
C543   H577    1.084   .     S
C544   C567    1.399   .     A
C544   H578    1.084   .     S
C544   C30     1.392   1_556 S
C545   H579    1.083   .     S
C545   C550    1.401   .     A
C545   C667    1.383   1_455 S
C546   C549    1.401   .     A
C546   H580    1.083   .     S
C546   C608    1.383   .     S
C547   C549    1.401   .     A
C547   H581    1.083   .     S
C547   C605    1.383   .     S
C548   H582    1.083   .     S
C548   C550    1.401   .     A
C548   C666    1.383   1_455 S
C551   N588    1.367   .     A
C551   H583    1.082   .     S
C551   C914    1.416   1_545 S
C552   N587    1.367   .     A
C552   H584    1.082   .     S
C552   C733    1.416   .     S
C553   N588    1.367   .     A
C553   H585    1.082   .     S
C553   C912    1.416   1_545 S
C554   N587    1.367   .     A
C554   H586    1.082   .     S
C554   C731    1.416   .     S
C555   O596    1.292   .     A
C555   C560    1.458   .     S
C555   O593    1.292   .     A
C556   O595    1.292   .     A
C556   C559    1.458   .     S
C556   O594    1.292   .     A
C557   H573    1.085   .     S
C557   C559    1.399   .     A
C557   C567    1.390   .     A
C558   H574    1.085   .     S
C558   C568    1.390   .     A
C558   C560    1.399   .     A
C559   C561    1.418   .     A
C560   C562    1.418   .     A
C561   O597    1.383   .     S
C561   C563    1.404   .     A
C562   C564    1.404   .     A
C562   O599    1.383   .     S
C563   C569    1.406   .     A
C563   C565    1.415   .     A
C564   C570    1.406   .     A
C564   C566    1.415   .     A
C565   C567    1.409   .     A
C565   C26     1.406   1_556 S
C566   C568    1.409   .     A
C569   H575    1.083   .     S
C569   C3      1.392   1_556 S
C570   H576    1.083   .     S
Cu571  Cu572   2.677   .     S
Cu571  N587    2.012   .     S
Cu571  O593    1.966   .     S
Cu571  O589    1.965   .     S
Cu571  O591    1.965   .     S
Cu571  O595    1.966   .     S
Cu572  N588    2.012   .     S
Cu572  O590    1.965   .     S
Cu572  O594    1.966   .     S
Cu572  O592    1.965   .     S
Cu572  O596    1.966   .     S
O597   H598    0.990   .     S
O599   H600    0.990   .     S
C601   O652    1.291   .     A
C601   O649    1.291   .     A
C601   C610    1.450   .     S
C602   O651    1.291   .     A
C602   O650    1.291   .     A
C602   C609    1.450   .     S
C603   C628    1.399   .     A
C603   H637    1.084   .     S
C604   C627    1.399   .     A
C604   H638    1.084   .     S
C604   C90     1.392   1_556 S
C605   H639    1.083   .     S
C605   C610    1.401   .     A
C606   C609    1.401   .     A
C606   H640    1.083   .     S
C606   C668    1.383   .     S
C607   C609    1.401   .     A
C607   H641    1.083   .     S
C607   C665    1.383   .     S
C608   H642    1.083   .     S
C608   C610    1.401   .     A
C611   N648    1.367   .     A
C611   H643    1.082   .     S
C611   C974    1.416   1_545 S
C612   N647    1.367   .     A
C612   H644    1.082   .     S
C612   C793    1.416   .     S
C613   N648    1.367   .     A
C613   H645    1.082   .     S
C613   C972    1.416   1_545 S
C614   N647    1.367   .     A
C614   H646    1.082   .     S
C614   C791    1.416   .     S
C615   O656    1.292   .     A
C615   C620    1.458   .     S
C615   O653    1.292   .     A
C616   O655    1.292   .     A
C616   C619    1.458   .     S
C616   O654    1.292   .     A
C617   H633    1.085   .     S
C617   C619    1.399   .     A
C617   C627    1.390   .     A
C618   H634    1.085   .     S
C618   C628    1.390   .     A
C618   C620    1.399   .     A
C619   C621    1.418   .     A
C620   C622    1.418   .     A
C621   O657    1.383   .     S
C621   C623    1.404   .     A
C622   C624    1.404   .     A
C622   O659    1.383   .     S
C623   C629    1.406   .     A
C623   C625    1.415   .     A
C624   C630    1.406   .     A
C624   C626    1.415   .     A
C625   C627    1.409   .     A
C625   C86     1.406   1_556 S
C626   C628    1.409   .     A
C629   H635    1.083   .     S
C629   C63     1.392   1_556 S
C630   H636    1.083   .     S
Cu631  Cu632   2.677   .     S
Cu631  N647    2.012   .     S
Cu631  O653    1.966   .     S
Cu631  O649    1.965   .     S
Cu631  O651    1.965   .     S
Cu631  O655    1.966   .     S
Cu632  N648    2.012   .     S
Cu632  O650    1.965   .     S
Cu632  O654    1.966   .     S
Cu632  O652    1.965   .     S
Cu632  O656    1.966   .     S
O657   H658    0.990   .     S
O659   H660    0.990   .     S
C661   O712    1.291   .     A
C661   O709    1.291   .     A
C661   C670    1.450   .     S
C662   O711    1.291   .     A
C662   O710    1.291   .     A
C662   C669    1.450   .     S
C663   C688    1.399   .     A
C663   H697    1.084   .     S
C664   C687    1.399   .     A
C664   H698    1.084   .     S
C664   C150    1.392   1_556 S
C665   H699    1.083   .     S
C665   C670    1.401   .     A
C666   C669    1.401   .     A
C666   H700    1.083   .     S
C666   C548    1.383   1_655 S
C667   C669    1.401   .     A
C667   H701    1.083   .     S
C667   C545    1.383   1_655 S
C668   H702    1.083   .     S
C668   C670    1.401   .     A
C671   N708    1.367   .     A
C671   H703    1.082   .     S
C671   C1034   1.416   1_545 S
C672   N707    1.367   .     A
C672   H704    1.082   .     S
C672   C853    1.416   .     S
C673   N708    1.367   .     A
C673   H705    1.082   .     S
C673   C1032   1.416   1_545 S
C674   N707    1.367   .     A
C674   H706    1.082   .     S
C674   C851    1.416   .     S
C675   O716    1.292   .     A
C675   C680    1.458   .     S
C675   O713    1.292   .     A
C676   O715    1.292   .     A
C676   C679    1.458   .     S
C676   O714    1.292   .     A
C677   H693    1.085   .     S
C677   C679    1.399   .     A
C677   C687    1.390   .     A
C678   H694    1.085   .     S
C678   C688    1.390   .     A
C678   C680    1.399   .     A
C679   C681    1.418   .     A
C680   C682    1.418   .     A
C681   O717    1.383   .     S
C681   C683    1.404   .     A
C682   C684    1.404   .     A
C682   O719    1.383   .     S
C683   C689    1.406   .     A
C683   C685    1.415   .     A
C684   C690    1.406   .     A
C684   C686    1.415   .     A
C685   C687    1.409   .     A
C685   C146    1.406   1_556 S
C686   C688    1.409   .     A
C689   H695    1.083   .     S
C689   C123    1.392   1_556 S
C690   H696    1.083   .     S
Cu691  Cu692   2.677   .     S
Cu691  N707    2.012   .     S
Cu691  O713    1.966   .     S
Cu691  O709    1.965   .     S
Cu691  O711    1.965   .     S
Cu691  O715    1.966   .     S
Cu692  N708    2.012   .     S
Cu692  O710    1.965   .     S
Cu692  O714    1.966   .     S
Cu692  O712    1.965   .     S
Cu692  O716    1.966   .     S
O717   H718    0.990   .     S
O719   H720    0.990   .     S
C721   O772    1.291   .     A
C721   O769    1.291   .     A
C721   C730    1.450   .     S
C722   O771    1.291   .     A
C722   O770    1.291   .     A
C722   C729    1.450   .     S
C723   C748    1.399   .     A
C723   H757    1.084   .     S
C724   C747    1.399   .     A
C724   H758    1.084   .     S
C724   C210    1.392   1_556 S
C725   H759    1.083   .     S
C725   C730    1.401   .     A
C725   C847    1.383   1_455 S
C726   C729    1.401   .     A
C726   H760    1.083   .     S
C726   C788    1.383   .     S
C727   C729    1.401   .     A
C727   H761    1.083   .     S
C727   C785    1.383   .     S
C728   H762    1.083   .     S
C728   C730    1.401   .     A
C728   C846    1.383   1_455 S
C731   N768    1.367   .     A
C731   H763    1.082   .     S
C732   N767    1.367   .     A
C732   H764    1.082   .     S
C732   C913    1.416   .     S
C733   N768    1.367   .     A
C733   H765    1.082   .     S
C734   N767    1.367   .     A
C734   H766    1.082   .     S
C734   C911    1.416   .     S
C735   O776    1.292   .     A
C735   C740    1.458   .     S
C735   O773    1.292   .     A
C736   O775    1.292   .     A
C736   C739    1.458   .     S
C736   O774    1.292   .     A
C737   H753    1.085   .     S
C737   C739    1.399   .     A
C737   C747    1.390   .     A
C738   H754    1.085   .     S
C738   C748    1.390   .     A
C738   C740    1.399   .     A
C739   C741    1.418   .     A
C740   C742    1.418   .     A
C741   O777    1.383   .     S
C741   C743    1.404   .     A
C742   C744    1.404   .     A
C742   O779    1.383   .     S
C743   C749    1.406   .     A
C743   C745    1.415   .     A
C744   C750    1.406   .     A
C744   C746    1.415   .     A
C745   C747    1.409   .     A
C745   C206    1.406   1_556 S
C746   C748    1.409   .     A
C749   H755    1.083   .     S
C749   C183    1.392   1_556 S
C750   H756    1.083   .     S
Cu751  Cu752   2.677   .     S
Cu751  N767    2.012   .     S
Cu751  O773    1.966   .     S
Cu751  O769    1.965   .     S
Cu751  O771    1.965   .     S
Cu751  O775    1.966   .     S
Cu752  N768    2.012   .     S
Cu752  O770    1.965   .     S
Cu752  O774    1.966   .     S
Cu752  O772    1.965   .     S
Cu752  O776    1.966   .     S
O777   H778    0.990   .     S
O779   H780    0.990   .     S
C781   O832    1.291   .     A
C781   O829    1.291   .     A
C781   C790    1.450   .     S
C782   O831    1.291   .     A
C782   O830    1.291   .     A
C782   C789    1.450   .     S
C783   C808    1.399   .     A
C783   H817    1.084   .     S
C784   C807    1.399   .     A
C784   H818    1.084   .     S
C784   C270    1.392   1_556 S
C785   H819    1.083   .     S
C785   C790    1.401   .     A
C786   C789    1.401   .     A
C786   H820    1.083   .     S
C786   C848    1.383   .     S
C787   C789    1.401   .     A
C787   H821    1.083   .     S
C787   C845    1.383   .     S
C788   H822    1.083   .     S
C788   C790    1.401   .     A
C791   N828    1.367   .     A
C791   H823    1.082   .     S
C792   N827    1.367   .     A
C792   H824    1.082   .     S
C792   C973    1.416   .     S
C793   N828    1.367   .     A
C793   H825    1.082   .     S
C794   N827    1.367   .     A
C794   H826    1.082   .     S
C794   C971    1.416   .     S
C795   O836    1.292   .     A
C795   C800    1.458   .     S
C795   O833    1.292   .     A
C796   O835    1.292   .     A
C796   C799    1.458   .     S
C796   O834    1.292   .     A
C797   H813    1.085   .     S
C797   C799    1.399   .     A
C797   C807    1.390   .     A
C798   H814    1.085   .     S
C798   C808    1.390   .     A
C798   C800    1.399   .     A
C799   C801    1.418   .     A
C800   C802    1.418   .     A
C801   O837    1.383   .     S
C801   C803    1.404   .     A
C802   C804    1.404   .     A
C802   O839    1.383   .     S
C803   C809    1.406   .     A
C803   C805    1.415   .     A
C804   C810    1.406   .     A
C804   C806    1.415   .     A
C805   C807    1.409   .     A
C805   C266    1.406   1_556 S
C806   C808    1.409   .     A
C809   H815    1.083   .     S
C809   C243    1.392   1_556 S
C810   H816    1.083   .     S
Cu811  Cu812   2.677   .     S
Cu811  N827    2.012   .     S
Cu811  O833    1.966   .     S
Cu811  O829    1.965   .     S
Cu811  O831    1.965   .     S
Cu811  O835    1.966   .     S
Cu812  N828    2.012   .     S
Cu812  O830    1.965   .     S
Cu812  O834    1.966   .     S
Cu812  O832    1.965   .     S
Cu812  O836    1.966   .     S
O837   H838    0.990   .     S
O839   H840    0.990   .     S
C841   O892    1.291   .     A
C841   O889    1.291   .     A
C841   C850    1.450   .     S
C842   O891    1.291   .     A
C842   O890    1.291   .     A
C842   C849    1.450   .     S
C843   C868    1.399   .     A
C843   H877    1.084   .     S
C844   C867    1.399   .     A
C844   H878    1.084   .     S
C844   C330    1.392   1_556 S
C845   H879    1.083   .     S
C845   C850    1.401   .     A
C846   C849    1.401   .     A
C846   H880    1.083   .     S
C846   C728    1.383   1_655 S
C847   C849    1.401   .     A
C847   H881    1.083   .     S
C847   C725    1.383   1_655 S
C848   H882    1.083   .     S
C848   C850    1.401   .     A
C851   N888    1.367   .     A
C851   H883    1.082   .     S
C852   N887    1.367   .     A
C852   H884    1.082   .     S
C852   C1033   1.416   .     S
C853   N888    1.367   .     A
C853   H885    1.082   .     S
C854   N887    1.367   .     A
C854   H886    1.082   .     S
C854   C1031   1.416   .     S
C855   O896    1.292   .     A
C855   C860    1.458   .     S
C855   O893    1.292   .     A
C856   O895    1.292   .     A
C856   C859    1.458   .     S
C856   O894    1.292   .     A
C857   H873    1.085   .     S
C857   C859    1.399   .     A
C857   C867    1.390   .     A
C858   H874    1.085   .     S
C858   C868    1.390   .     A
C858   C860    1.399   .     A
C859   C861    1.418   .     A
C860   C862    1.418   .     A
C861   O897    1.383   .     S
C861   C863    1.404   .     A
C862   C864    1.404   .     A
C862   O899    1.383   .     S
C863   C869    1.406   .     A
C863   C865    1.415   .     A
C864   C870    1.406   .     A
C864   C866    1.415   .     A
C865   C867    1.409   .     A
C865   C326    1.406   1_556 S
C866   C868    1.409   .     A
C869   H875    1.083   .     S
C869   C303    1.392   1_556 S
C870   H876    1.083   .     S
Cu871  Cu872   2.677   .     S
Cu871  N887    2.012   .     S
Cu871  O893    1.966   .     S
Cu871  O889    1.965   .     S
Cu871  O891    1.965   .     S
Cu871  O895    1.966   .     S
Cu872  N888    2.012   .     S
Cu872  O890    1.965   .     S
Cu872  O894    1.966   .     S
Cu872  O892    1.965   .     S
Cu872  O896    1.966   .     S
O897   H898    0.990   .     S
O899   H900    0.990   .     S
C901   O952    1.291   .     A
C901   O949    1.291   .     A
C901   C910    1.450   .     S
C902   O951    1.291   .     A
C902   O950    1.291   .     A
C902   C909    1.450   .     S
C903   C928    1.399   .     A
C903   H937    1.084   .     S
C904   C927    1.399   .     A
C904   H938    1.084   .     S
C904   C390    1.392   1_556 S
C905   H939    1.083   .     S
C905   C910    1.401   .     A
C905   C1027   1.383   1_455 S
C906   C909    1.401   .     A
C906   H940    1.083   .     S
C906   C968    1.383   .     S
C907   C909    1.401   .     A
C907   H941    1.083   .     S
C907   C965    1.383   .     S
C908   H942    1.083   .     S
C908   C910    1.401   .     A
C908   C1026   1.383   1_455 S
C911   N948    1.367   .     A
C911   H943    1.082   .     S
C912   N947    1.367   .     A
C912   H944    1.082   .     S
C912   C553    1.416   1_565 S
C913   N948    1.367   .     A
C913   H945    1.082   .     S
C914   N947    1.367   .     A
C914   H946    1.082   .     S
C914   C551    1.416   1_565 S
C915   O956    1.292   .     A
C915   C920    1.458   .     S
C915   O953    1.292   .     A
C916   O955    1.292   .     A
C916   C919    1.458   .     S
C916   O954    1.292   .     A
C917   H933    1.085   .     S
C917   C919    1.399   .     A
C917   C927    1.390   .     A
C918   H934    1.085   .     S
C918   C928    1.390   .     A
C918   C920    1.399   .     A
C919   C921    1.418   .     A
C920   C922    1.418   .     A
C921   O957    1.383   .     S
C921   C923    1.404   .     A
C922   C924    1.404   .     A
C922   O959    1.383   .     S
C923   C929    1.406   .     A
C923   C925    1.415   .     A
C924   C930    1.406   .     A
C924   C926    1.415   .     A
C925   C927    1.409   .     A
C925   C386    1.406   1_556 S
C926   C928    1.409   .     A
C929   H935    1.083   .     S
C929   C363    1.392   1_556 S
C930   H936    1.083   .     S
Cu931  Cu932   2.677   .     S
Cu931  N947    2.012   .     S
Cu931  O953    1.966   .     S
Cu931  O949    1.965   .     S
Cu931  O951    1.965   .     S
Cu931  O955    1.966   .     S
Cu932  N948    2.012   .     S
Cu932  O950    1.965   .     S
Cu932  O954    1.966   .     S
Cu932  O952    1.965   .     S
Cu932  O956    1.966   .     S
O957   H958    0.990   .     S
O959   H960    0.990   .     S
C961   O1012   1.291   .     A
C961   O1009   1.291   .     A
C961   C970    1.450   .     S
C962   O1011   1.291   .     A
C962   O1010   1.291   .     A
C962   C969    1.450   .     S
C963   C988    1.399   .     A
C963   H997    1.084   .     S
C964   C987    1.399   .     A
C964   H998    1.084   .     S
C964   C450    1.392   1_556 S
C965   H999    1.083   .     S
C965   C970    1.401   .     A
C966   C969    1.401   .     A
C966   H1000   1.083   .     S
C966   C1028   1.383   .     S
C967   C969    1.401   .     A
C967   H1001   1.083   .     S
C967   C1025   1.383   .     S
C968   H1002   1.083   .     S
C968   C970    1.401   .     A
C971   N1008   1.367   .     A
C971   H1003   1.082   .     S
C972   N1007   1.367   .     A
C972   H1004   1.082   .     S
C972   C613    1.416   1_565 S
C973   N1008   1.367   .     A
C973   H1005   1.082   .     S
C974   N1007   1.367   .     A
C974   H1006   1.082   .     S
C974   C611    1.416   1_565 S
C975   O1016   1.292   .     A
C975   C980    1.458   .     S
C975   O1013   1.292   .     A
C976   O1015   1.292   .     A
C976   C979    1.458   .     S
C976   O1014   1.292   .     A
C977   H993    1.085   .     S
C977   C979    1.399   .     A
C977   C987    1.390   .     A
C978   H994    1.085   .     S
C978   C988    1.390   .     A
C978   C980    1.399   .     A
C979   C981    1.418   .     A
C980   C982    1.418   .     A
C981   O1017   1.383   .     S
C981   C983    1.404   .     A
C982   C984    1.404   .     A
C982   O1019   1.383   .     S
C983   C989    1.406   .     A
C983   C985    1.415   .     A
C984   C990    1.406   .     A
C984   C986    1.415   .     A
C985   C987    1.409   .     A
C985   C446    1.406   1_556 S
C986   C988    1.409   .     A
C989   H995    1.083   .     S
C989   C423    1.392   1_556 S
C990   H996    1.083   .     S
Cu991  Cu992   2.677   .     S
Cu991  N1007   2.012   .     S
Cu991  O1013   1.966   .     S
Cu991  O1009   1.965   .     S
Cu991  O1011   1.965   .     S
Cu991  O1015   1.966   .     S
Cu992  N1008   2.012   .     S
Cu992  O1010   1.965   .     S
Cu992  O1014   1.966   .     S
Cu992  O1012   1.965   .     S
Cu992  O1016   1.966   .     S
O1017  H1018   0.990   .     S
O1019  H1020   0.990   .     S
C1021  O1072   1.291   .     A
C1021  O1069   1.291   .     A
C1021  C1030   1.450   .     S
C1022  O1071   1.291   .     A
C1022  O1070   1.291   .     A
C1022  C1029   1.450   .     S
C1023  C1048   1.399   .     A
C1023  H1057   1.084   .     S
C1024  C1047   1.399   .     A
C1024  H1058   1.084   .     S
C1024  C510    1.392   1_556 S
C1025  H1059   1.083   .     S
C1025  C1030   1.401   .     A
C1026  C1029   1.401   .     A
C1026  H1060   1.083   .     S
C1026  C908    1.383   1_655 S
C1027  C1029   1.401   .     A
C1027  H1061   1.083   .     S
C1027  C905    1.383   1_655 S
C1028  H1062   1.083   .     S
C1028  C1030   1.401   .     A
C1031  N1068   1.367   .     A
C1031  H1063   1.082   .     S
C1032  N1067   1.367   .     A
C1032  H1064   1.082   .     S
C1032  C673    1.416   1_565 S
C1033  N1068   1.367   .     A
C1033  H1065   1.082   .     S
C1034  N1067   1.367   .     A
C1034  H1066   1.082   .     S
C1034  C671    1.416   1_565 S
C1035  O1076   1.292   .     A
C1035  C1040   1.458   .     S
C1035  O1073   1.292   .     A
C1036  O1075   1.292   .     A
C1036  C1039   1.458   .     S
C1036  O1074   1.292   .     A
C1037  H1053   1.085   .     S
C1037  C1039   1.399   .     A
C1037  C1047   1.390   .     A
C1038  H1054   1.085   .     S
C1038  C1048   1.390   .     A
C1038  C1040   1.399   .     A
C1039  C1041   1.418   .     A
C1040  C1042   1.418   .     A
C1041  O1077   1.383   .     S
C1041  C1043   1.404   .     A
C1042  C1044   1.404   .     A
C1042  O1079   1.383   .     S
C1043  C1049   1.406   .     A
C1043  C1045   1.415   .     A
C1044  C1050   1.406   .     A
C1044  C1046   1.415   .     A
C1045  C1047   1.409   .     A
C1045  C506    1.406   1_556 S
C1046  C1048   1.409   .     A
C1049  H1055   1.083   .     S
C1049  C483    1.392   1_556 S
C1050  H1056   1.083   .     S
Cu1051 Cu1052  2.677   .     S
Cu1051 N1067   2.012   .     S
Cu1051 O1073   1.966   .     S
Cu1051 O1069   1.965   .     S
Cu1051 O1071   1.965   .     S
Cu1051 O1075   1.966   .     S
Cu1052 N1068   2.012   .     S
Cu1052 O1070   1.965   .     S
Cu1052 O1074   1.966   .     S
Cu1052 O1072   1.965   .     S
Cu1052 O1076   1.966   .     S
O1077  H1078   0.990   .     S
O1079  H1080   0.990   .     S
