data_str_m2_o2_o10_pcu_sym.70
_audit_creation_date              2020-01-03
_audit_creation_method            'Materials Studio'
_symmetry_space_group_name_H-M    'P1'
_symmetry_Int_Tables_number       1
_symmetry_cell_setting            triclinic
loop_
_symmetry_equiv_pos_as_xyz
  x,y,z
_cell_length_a                    26.1710
_cell_length_b                    30.1428
_cell_length_c                    27.8843
_cell_angle_alpha                 90.7114
_cell_angle_beta                  98.3589
_cell_angle_gamma                 91.0493
loop_
_atom_site_label
_atom_site_type_symbol
_atom_site_fract_x
_atom_site_fract_y
_atom_site_fract_z
_atom_site_U_iso_or_equiv
_atom_site_adp_type
_atom_site_occupancy
Br1    Br    0.08033   0.01642   0.17171   0.00000  Uiso   1.00
Br2    Br    0.25235   0.48081   0.19211   0.00000  Uiso   1.00
Br3    Br    0.08169   0.18575   0.12134   0.00000  Uiso   1.00
Br4    Br    0.24273   0.32200   0.37711   0.00000  Uiso   1.00
C5     C     0.16793   0.16508   0.24994   0.00000  Uiso   1.00
C6     C     0.19609   0.28075   0.45068   0.00000  Uiso   1.00
C7     C     0.16765   0.24962   0.02745   0.00000  Uiso   1.00
C8     C     0.16724   0.24925   0.47271   0.00000  Uiso   1.00
C9     C     0.06791   0.25000   0.23750   0.00000  Uiso   1.00
C10    C     0.26543   0.25008   0.26251   0.00000  Uiso   1.00
C11    C     0.01250   0.25005   0.23072   0.00000  Uiso   1.00
C12    C     0.32083   0.25011   0.26930   0.00000  Uiso   1.00
C13    C     0.20542   0.04753   0.28107   0.00000  Uiso   1.00
C14    C     0.13167   0.45367   0.27339   0.00000  Uiso   1.00
C15    C     0.20714   0.09400   0.28178   0.00000  Uiso   1.00
C16    C     0.16557   0.33493   0.25011   0.00000  Uiso   1.00
C17    C     0.12937   0.40722   0.27401   0.00000  Uiso   1.00
C18    C     0.16997   0.11679   0.24973   0.00000  Uiso   1.00
C19    C     0.16479   0.38328   0.25040   0.00000  Uiso   1.00
C20    C     0.13315   0.09312   0.21729   0.00000  Uiso   1.00
C21    C     0.20061   0.40579   0.22626   0.00000  Uiso   1.00
C22    C     0.13190   0.04700   0.21680   0.00000  Uiso   1.00
C23    C     0.20243   0.45188   0.22578   0.00000  Uiso   1.00
C24    C     0.16815   0.02420   0.24891   0.00000  Uiso   1.00
C25    C     0.16771   0.47583   0.24937   0.00000  Uiso   1.00
C26    C     0.24895   0.11790   0.31447   0.00000  Uiso   1.00
C27    C     0.20484   0.27399   0.05999   0.00000  Uiso   1.00
C28    C     0.08843   0.38460   0.29709   0.00000  Uiso   1.00
C29    C     0.13818   0.21771   0.44124   0.00000  Uiso   1.00
C30    C     0.20310   0.27428   0.11030   0.00000  Uiso   1.00
C31    C     0.13781   0.21915   0.39069   0.00000  Uiso   1.00
C32    C     0.13119   0.22489   0.09874   0.00000  Uiso   1.00
C33    C     0.19654   0.28009   0.40045   0.00000  Uiso   1.00
C34    C     0.13046   0.22539   0.04838   0.00000  Uiso   1.00
Cu35   Cu    0.16667   0.25000   0.29822   0.00000  Uiso   1.00
Cu36   Cu    0.16667   0.25001   0.20179   0.00000  Uiso   1.00
H37    H     0.32557   0.25001   0.19380   0.00000  Uiso   1.00
H38    H     0.11483   0.19495   0.36752   0.00000  Uiso   1.00
H39    H     0.10027   0.20643   0.02630   0.00000  Uiso   1.00
H40    H     0.21875   0.30634   0.47179   0.00000  Uiso   1.00
H41    H     0.25515   0.15334   0.31142   0.00000  Uiso   1.00
H42    H     0.08118   0.34919   0.29239   0.00000  Uiso   1.00
H43    H     0.00777   0.25016   0.30621   0.00000  Uiso   1.00
H44    H     0.23343   0.02917   0.30516   0.00000  Uiso   1.00
H45    H     0.10483   0.47292   0.29090   0.00000  Uiso   1.00
H46    H     0.10464   0.11057   0.19289   0.00000  Uiso   1.00
H47    H     0.22765   0.38740   0.20813   0.00000  Uiso   1.00
H48    H     0.23586   0.29259   0.04755   0.00000  Uiso   1.00
H49    H     0.11601   0.19139   0.45481   0.00000  Uiso   1.00
H50    H     0.23164   0.29359   0.13420   0.00000  Uiso   1.00
N51    N     0.16667   0.25001   0.12935   0.00000  Uiso   1.00
N52    N     0.16667   0.24999   0.37066   0.00000  Uiso   1.00
O53    O     0.16667   0.18572   0.29072   0.00000  Uiso   1.00
O54    O     0.06160   0.40547   0.32139   0.00000  Uiso   1.00
O55    O     0.16666   0.31428   0.20929   0.00000  Uiso   1.00
O56    O     0.16667   0.18573   0.20928   0.00000  Uiso   1.00
O57    O     0.16666   0.31427   0.29072   0.00000  Uiso   1.00
O58    O     0.09161   0.25000   0.28132   0.00000  Uiso   1.00
O59    O     0.24172   0.25000   0.21868   0.00000  Uiso   1.00
O60    O     0.09161   0.25000   0.19989   0.00000  Uiso   1.00
O61    O     0.24172   0.25000   0.30012   0.00000  Uiso   1.00
O62    O     0.27761   0.09809   0.34511   0.00000  Uiso   1.00
Br63   Br    0.41366   0.01642   0.17171   0.00000  Uiso   1.00
Br64   Br    0.58569   0.48081   0.19211   0.00000  Uiso   1.00
Br65   Br    0.41502   0.18575   0.12134   0.00000  Uiso   1.00
Br66   Br    0.57606   0.32200   0.37711   0.00000  Uiso   1.00
C67    C     0.50127   0.16508   0.24994   0.00000  Uiso   1.00
C68    C     0.52943   0.28075   0.45068   0.00000  Uiso   1.00
C69    C     0.50099   0.24962   0.02745   0.00000  Uiso   1.00
C70    C     0.50057   0.24925   0.47271   0.00000  Uiso   1.00
C71    C     0.40124   0.25000   0.23750   0.00000  Uiso   1.00
C72    C     0.59876   0.25008   0.26251   0.00000  Uiso   1.00
C73    C     0.34584   0.25005   0.23072   0.00000  Uiso   1.00
C74    C     0.65417   0.25011   0.26930   0.00000  Uiso   1.00
C75    C     0.53875   0.04753   0.28107   0.00000  Uiso   1.00
C76    C     0.46500   0.45367   0.27339   0.00000  Uiso   1.00
C77    C     0.54047   0.09400   0.28178   0.00000  Uiso   1.00
C78    C     0.49890   0.33493   0.25011   0.00000  Uiso   1.00
C79    C     0.46271   0.40722   0.27401   0.00000  Uiso   1.00
C80    C     0.50331   0.11679   0.24973   0.00000  Uiso   1.00
C81    C     0.49812   0.38328   0.25040   0.00000  Uiso   1.00
C82    C     0.46648   0.09312   0.21729   0.00000  Uiso   1.00
C83    C     0.53394   0.40579   0.22626   0.00000  Uiso   1.00
C84    C     0.46523   0.04700   0.21680   0.00000  Uiso   1.00
C85    C     0.53576   0.45188   0.22578   0.00000  Uiso   1.00
C86    C     0.50148   0.02420   0.24891   0.00000  Uiso   1.00
C87    C     0.50105   0.47583   0.24937   0.00000  Uiso   1.00
C88    C     0.58228   0.11790   0.31447   0.00000  Uiso   1.00
C89    C     0.53817   0.27399   0.05999   0.00000  Uiso   1.00
C90    C     0.42176   0.38460   0.29709   0.00000  Uiso   1.00
C91    C     0.47151   0.21771   0.44124   0.00000  Uiso   1.00
C92    C     0.53644   0.27428   0.11030   0.00000  Uiso   1.00
C93    C     0.47115   0.21915   0.39069   0.00000  Uiso   1.00
C94    C     0.46452   0.22489   0.09874   0.00000  Uiso   1.00
C95    C     0.52988   0.28009   0.40045   0.00000  Uiso   1.00
C96    C     0.46379   0.22539   0.04838   0.00000  Uiso   1.00
Cu97   Cu    0.50000   0.25000   0.29822   0.00000  Uiso   1.00
Cu98   Cu    0.50000   0.25001   0.20179   0.00000  Uiso   1.00
H99    H     0.65890   0.25001   0.19380   0.00000  Uiso   1.00
H100   H     0.44817   0.19495   0.36752   0.00000  Uiso   1.00
H101   H     0.43360   0.20643   0.02630   0.00000  Uiso   1.00
H102   H     0.55208   0.30634   0.47179   0.00000  Uiso   1.00
H103   H     0.58848   0.15334   0.31142   0.00000  Uiso   1.00
H104   H     0.41451   0.34919   0.29239   0.00000  Uiso   1.00
H105   H     0.34110   0.25016   0.30621   0.00000  Uiso   1.00
H106   H     0.56676   0.02917   0.30516   0.00000  Uiso   1.00
H107   H     0.43817   0.47292   0.29090   0.00000  Uiso   1.00
H108   H     0.43797   0.11057   0.19289   0.00000  Uiso   1.00
H109   H     0.56098   0.38740   0.20813   0.00000  Uiso   1.00
H110   H     0.56919   0.29259   0.04755   0.00000  Uiso   1.00
H111   H     0.44934   0.19139   0.45481   0.00000  Uiso   1.00
H112   H     0.56497   0.29359   0.13420   0.00000  Uiso   1.00
N113   N     0.50000   0.25001   0.12935   0.00000  Uiso   1.00
N114   N     0.50000   0.24999   0.37066   0.00000  Uiso   1.00
O115   O     0.50000   0.18572   0.29072   0.00000  Uiso   1.00
O116   O     0.39494   0.40547   0.32139   0.00000  Uiso   1.00
O117   O     0.50000   0.31428   0.20929   0.00000  Uiso   1.00
O118   O     0.50000   0.18573   0.20928   0.00000  Uiso   1.00
O119   O     0.50000   0.31427   0.29072   0.00000  Uiso   1.00
O120   O     0.42495   0.25000   0.28132   0.00000  Uiso   1.00
O121   O     0.57505   0.25000   0.21868   0.00000  Uiso   1.00
O122   O     0.42495   0.25000   0.19989   0.00000  Uiso   1.00
O123   O     0.57505   0.25000   0.30012   0.00000  Uiso   1.00
O124   O     0.61094   0.09809   0.34511   0.00000  Uiso   1.00
Br125  Br    0.74700   0.01642   0.17171   0.00000  Uiso   1.00
Br126  Br    0.91902   0.48081   0.19211   0.00000  Uiso   1.00
Br127  Br    0.74835   0.18575   0.12134   0.00000  Uiso   1.00
Br128  Br    0.90940   0.32200   0.37711   0.00000  Uiso   1.00
C129   C     0.83460   0.16508   0.24994   0.00000  Uiso   1.00
C130   C     0.86276   0.28075   0.45068   0.00000  Uiso   1.00
C131   C     0.83432   0.24962   0.02745   0.00000  Uiso   1.00
C132   C     0.83390   0.24925   0.47271   0.00000  Uiso   1.00
C133   C     0.73458   0.25000   0.23750   0.00000  Uiso   1.00
C134   C     0.93209   0.25008   0.26251   0.00000  Uiso   1.00
C135   C     0.67917   0.25005   0.23072   0.00000  Uiso   1.00
C136   C     0.98750   0.25011   0.26930   0.00000  Uiso   1.00
C137   C     0.87209   0.04753   0.28107   0.00000  Uiso   1.00
C138   C     0.79834   0.45367   0.27339   0.00000  Uiso   1.00
C139   C     0.87380   0.09400   0.28178   0.00000  Uiso   1.00
C140   C     0.83223   0.33493   0.25011   0.00000  Uiso   1.00
C141   C     0.79604   0.40722   0.27401   0.00000  Uiso   1.00
C142   C     0.83664   0.11679   0.24973   0.00000  Uiso   1.00
C143   C     0.83146   0.38328   0.25040   0.00000  Uiso   1.00
C144   C     0.79982   0.09312   0.21729   0.00000  Uiso   1.00
C145   C     0.86727   0.40579   0.22626   0.00000  Uiso   1.00
C146   C     0.79857   0.04700   0.21680   0.00000  Uiso   1.00
C147   C     0.86909   0.45188   0.22578   0.00000  Uiso   1.00
C148   C     0.83481   0.02420   0.24891   0.00000  Uiso   1.00
C149   C     0.83438   0.47583   0.24937   0.00000  Uiso   1.00
C150   C     0.91562   0.11790   0.31447   0.00000  Uiso   1.00
C151   C     0.87151   0.27399   0.05999   0.00000  Uiso   1.00
C152   C     0.75510   0.38460   0.29709   0.00000  Uiso   1.00
C153   C     0.80485   0.21771   0.44124   0.00000  Uiso   1.00
C154   C     0.86977   0.27428   0.11030   0.00000  Uiso   1.00
C155   C     0.80448   0.21915   0.39069   0.00000  Uiso   1.00
C156   C     0.79785   0.22489   0.09874   0.00000  Uiso   1.00
C157   C     0.86321   0.28009   0.40045   0.00000  Uiso   1.00
C158   C     0.79713   0.22539   0.04838   0.00000  Uiso   1.00
Cu159  Cu    0.83333   0.25000   0.29822   0.00000  Uiso   1.00
Cu160  Cu    0.83333   0.25001   0.20179   0.00000  Uiso   1.00
H161   H     0.99223   0.25001   0.19380   0.00000  Uiso   1.00
H162   H     0.78150   0.19495   0.36752   0.00000  Uiso   1.00
H163   H     0.76694   0.20643   0.02630   0.00000  Uiso   1.00
H164   H     0.88541   0.30634   0.47179   0.00000  Uiso   1.00
H165   H     0.92182   0.15334   0.31142   0.00000  Uiso   1.00
H166   H     0.74785   0.34919   0.29239   0.00000  Uiso   1.00
H167   H     0.67444   0.25016   0.30621   0.00000  Uiso   1.00
H168   H     0.90009   0.02917   0.30516   0.00000  Uiso   1.00
H169   H     0.77150   0.47292   0.29090   0.00000  Uiso   1.00
H170   H     0.77130   0.11057   0.19289   0.00000  Uiso   1.00
H171   H     0.89431   0.38740   0.20813   0.00000  Uiso   1.00
H172   H     0.90252   0.29259   0.04755   0.00000  Uiso   1.00
H173   H     0.78268   0.19139   0.45481   0.00000  Uiso   1.00
H174   H     0.89831   0.29359   0.13420   0.00000  Uiso   1.00
N175   N     0.83333   0.25001   0.12935   0.00000  Uiso   1.00
N176   N     0.83333   0.24999   0.37066   0.00000  Uiso   1.00
O177   O     0.83334   0.18572   0.29072   0.00000  Uiso   1.00
O178   O     0.72827   0.40547   0.32139   0.00000  Uiso   1.00
O179   O     0.83333   0.31428   0.20929   0.00000  Uiso   1.00
O180   O     0.83334   0.18573   0.20928   0.00000  Uiso   1.00
O181   O     0.83333   0.31427   0.29072   0.00000  Uiso   1.00
O182   O     0.75828   0.25000   0.28132   0.00000  Uiso   1.00
O183   O     0.90839   0.25000   0.21868   0.00000  Uiso   1.00
O184   O     0.75828   0.25000   0.19989   0.00000  Uiso   1.00
O185   O     0.90839   0.25000   0.30012   0.00000  Uiso   1.00
O186   O     0.94427   0.09809   0.34511   0.00000  Uiso   1.00
Br187  Br    0.08033   0.51642   0.17171   0.00000  Uiso   1.00
Br188  Br    0.25235   0.98081   0.19211   0.00000  Uiso   1.00
Br189  Br    0.08169   0.68575   0.12134   0.00000  Uiso   1.00
Br190  Br    0.24273   0.82200   0.37711   0.00000  Uiso   1.00
C191   C     0.16793   0.66508   0.24994   0.00000  Uiso   1.00
C192   C     0.19609   0.78075   0.45068   0.00000  Uiso   1.00
C193   C     0.16765   0.74962   0.02745   0.00000  Uiso   1.00
C194   C     0.16724   0.74925   0.47271   0.00000  Uiso   1.00
C195   C     0.06791   0.75000   0.23750   0.00000  Uiso   1.00
C196   C     0.26543   0.75008   0.26251   0.00000  Uiso   1.00
C197   C     0.01250   0.75005   0.23072   0.00000  Uiso   1.00
C198   C     0.32083   0.75011   0.26930   0.00000  Uiso   1.00
C199   C     0.20542   0.54753   0.28107   0.00000  Uiso   1.00
C200   C     0.13167   0.95367   0.27339   0.00000  Uiso   1.00
C201   C     0.20714   0.59400   0.28178   0.00000  Uiso   1.00
C202   C     0.16557   0.83493   0.25011   0.00000  Uiso   1.00
C203   C     0.12937   0.90722   0.27401   0.00000  Uiso   1.00
C204   C     0.16997   0.61679   0.24973   0.00000  Uiso   1.00
C205   C     0.16479   0.88328   0.25040   0.00000  Uiso   1.00
C206   C     0.13315   0.59312   0.21729   0.00000  Uiso   1.00
C207   C     0.20061   0.90579   0.22626   0.00000  Uiso   1.00
C208   C     0.13190   0.54700   0.21680   0.00000  Uiso   1.00
C209   C     0.20243   0.95188   0.22578   0.00000  Uiso   1.00
C210   C     0.16815   0.52420   0.24891   0.00000  Uiso   1.00
C211   C     0.16771   0.97583   0.24937   0.00000  Uiso   1.00
C212   C     0.24895   0.61790   0.31447   0.00000  Uiso   1.00
C213   C     0.20484   0.77399   0.05999   0.00000  Uiso   1.00
C214   C     0.08843   0.88460   0.29709   0.00000  Uiso   1.00
C215   C     0.13818   0.71771   0.44124   0.00000  Uiso   1.00
C216   C     0.20310   0.77428   0.11030   0.00000  Uiso   1.00
C217   C     0.13781   0.71915   0.39069   0.00000  Uiso   1.00
C218   C     0.13119   0.72489   0.09874   0.00000  Uiso   1.00
C219   C     0.19654   0.78009   0.40045   0.00000  Uiso   1.00
C220   C     0.13046   0.72539   0.04838   0.00000  Uiso   1.00
Cu221  Cu    0.16667   0.75000   0.29822   0.00000  Uiso   1.00
Cu222  Cu    0.16667   0.75001   0.20179   0.00000  Uiso   1.00
H223   H     0.32557   0.75001   0.19380   0.00000  Uiso   1.00
H224   H     0.11483   0.69495   0.36752   0.00000  Uiso   1.00
H225   H     0.10027   0.70643   0.02630   0.00000  Uiso   1.00
H226   H     0.21875   0.80634   0.47179   0.00000  Uiso   1.00
H227   H     0.25515   0.65334   0.31142   0.00000  Uiso   1.00
H228   H     0.08118   0.84919   0.29239   0.00000  Uiso   1.00
H229   H     0.00777   0.75016   0.30621   0.00000  Uiso   1.00
H230   H     0.23343   0.52917   0.30516   0.00000  Uiso   1.00
H231   H     0.10483   0.97292   0.29090   0.00000  Uiso   1.00
H232   H     0.10464   0.61057   0.19289   0.00000  Uiso   1.00
H233   H     0.22765   0.88740   0.20813   0.00000  Uiso   1.00
H234   H     0.23586   0.79259   0.04755   0.00000  Uiso   1.00
H235   H     0.11601   0.69139   0.45481   0.00000  Uiso   1.00
H236   H     0.23164   0.79359   0.13420   0.00000  Uiso   1.00
N237   N     0.16667   0.75001   0.12935   0.00000  Uiso   1.00
N238   N     0.16667   0.74999   0.37066   0.00000  Uiso   1.00
O239   O     0.16667   0.68572   0.29072   0.00000  Uiso   1.00
O240   O     0.06160   0.90547   0.32139   0.00000  Uiso   1.00
O241   O     0.16666   0.81428   0.20929   0.00000  Uiso   1.00
O242   O     0.16667   0.68573   0.20928   0.00000  Uiso   1.00
O243   O     0.16666   0.81427   0.29072   0.00000  Uiso   1.00
O244   O     0.09161   0.75000   0.28132   0.00000  Uiso   1.00
O245   O     0.24172   0.75000   0.21868   0.00000  Uiso   1.00
O246   O     0.09161   0.75000   0.19989   0.00000  Uiso   1.00
O247   O     0.24172   0.75000   0.30012   0.00000  Uiso   1.00
O248   O     0.27761   0.59809   0.34511   0.00000  Uiso   1.00
Br249  Br    0.41366   0.51642   0.17171   0.00000  Uiso   1.00
Br250  Br    0.58569   0.98081   0.19211   0.00000  Uiso   1.00
Br251  Br    0.41502   0.68575   0.12134   0.00000  Uiso   1.00
Br252  Br    0.57606   0.82200   0.37711   0.00000  Uiso   1.00
C253   C     0.50127   0.66508   0.24994   0.00000  Uiso   1.00
C254   C     0.52943   0.78075   0.45068   0.00000  Uiso   1.00
C255   C     0.50099   0.74962   0.02745   0.00000  Uiso   1.00
C256   C     0.50057   0.74925   0.47271   0.00000  Uiso   1.00
C257   C     0.40124   0.75000   0.23750   0.00000  Uiso   1.00
C258   C     0.59876   0.75008   0.26251   0.00000  Uiso   1.00
C259   C     0.34584   0.75005   0.23072   0.00000  Uiso   1.00
C260   C     0.65417   0.75011   0.26930   0.00000  Uiso   1.00
C261   C     0.53875   0.54753   0.28107   0.00000  Uiso   1.00
C262   C     0.46500   0.95367   0.27339   0.00000  Uiso   1.00
C263   C     0.54047   0.59400   0.28178   0.00000  Uiso   1.00
C264   C     0.49890   0.83493   0.25011   0.00000  Uiso   1.00
C265   C     0.46271   0.90722   0.27401   0.00000  Uiso   1.00
C266   C     0.50331   0.61679   0.24973   0.00000  Uiso   1.00
C267   C     0.49812   0.88328   0.25040   0.00000  Uiso   1.00
C268   C     0.46648   0.59312   0.21729   0.00000  Uiso   1.00
C269   C     0.53394   0.90579   0.22626   0.00000  Uiso   1.00
C270   C     0.46523   0.54700   0.21680   0.00000  Uiso   1.00
C271   C     0.53576   0.95188   0.22578   0.00000  Uiso   1.00
C272   C     0.50148   0.52420   0.24891   0.00000  Uiso   1.00
C273   C     0.50105   0.97583   0.24937   0.00000  Uiso   1.00
C274   C     0.58228   0.61790   0.31447   0.00000  Uiso   1.00
C275   C     0.53817   0.77399   0.05999   0.00000  Uiso   1.00
C276   C     0.42176   0.88460   0.29709   0.00000  Uiso   1.00
C277   C     0.47151   0.71771   0.44124   0.00000  Uiso   1.00
C278   C     0.53644   0.77428   0.11030   0.00000  Uiso   1.00
C279   C     0.47115   0.71915   0.39069   0.00000  Uiso   1.00
C280   C     0.46452   0.72489   0.09874   0.00000  Uiso   1.00
C281   C     0.52988   0.78009   0.40045   0.00000  Uiso   1.00
C282   C     0.46379   0.72539   0.04838   0.00000  Uiso   1.00
Cu283  Cu    0.50000   0.75000   0.29822   0.00000  Uiso   1.00
Cu284  Cu    0.50000   0.75001   0.20179   0.00000  Uiso   1.00
H285   H     0.65890   0.75001   0.19380   0.00000  Uiso   1.00
H286   H     0.44817   0.69495   0.36752   0.00000  Uiso   1.00
H287   H     0.43360   0.70643   0.02630   0.00000  Uiso   1.00
H288   H     0.55208   0.80634   0.47179   0.00000  Uiso   1.00
H289   H     0.58848   0.65334   0.31142   0.00000  Uiso   1.00
H290   H     0.41451   0.84919   0.29239   0.00000  Uiso   1.00
H291   H     0.34110   0.75016   0.30621   0.00000  Uiso   1.00
H292   H     0.56676   0.52917   0.30516   0.00000  Uiso   1.00
H293   H     0.43817   0.97292   0.29090   0.00000  Uiso   1.00
H294   H     0.43797   0.61057   0.19289   0.00000  Uiso   1.00
H295   H     0.56098   0.88740   0.20813   0.00000  Uiso   1.00
H296   H     0.56919   0.79259   0.04755   0.00000  Uiso   1.00
H297   H     0.44934   0.69139   0.45481   0.00000  Uiso   1.00
H298   H     0.56497   0.79359   0.13420   0.00000  Uiso   1.00
N299   N     0.50000   0.75001   0.12935   0.00000  Uiso   1.00
N300   N     0.50000   0.74999   0.37066   0.00000  Uiso   1.00
O301   O     0.50000   0.68572   0.29072   0.00000  Uiso   1.00
O302   O     0.39494   0.90547   0.32139   0.00000  Uiso   1.00
O303   O     0.50000   0.81428   0.20929   0.00000  Uiso   1.00
O304   O     0.50000   0.68573   0.20928   0.00000  Uiso   1.00
O305   O     0.50000   0.81427   0.29072   0.00000  Uiso   1.00
O306   O     0.42495   0.75000   0.28132   0.00000  Uiso   1.00
O307   O     0.57505   0.75000   0.21868   0.00000  Uiso   1.00
O308   O     0.42495   0.75000   0.19989   0.00000  Uiso   1.00
O309   O     0.57505   0.75000   0.30012   0.00000  Uiso   1.00
O310   O     0.61094   0.59809   0.34511   0.00000  Uiso   1.00
Br311  Br    0.74700   0.51642   0.17171   0.00000  Uiso   1.00
Br312  Br    0.91902   0.98081   0.19211   0.00000  Uiso   1.00
Br313  Br    0.74835   0.68575   0.12134   0.00000  Uiso   1.00
Br314  Br    0.90940   0.82200   0.37711   0.00000  Uiso   1.00
C315   C     0.83460   0.66508   0.24994   0.00000  Uiso   1.00
C316   C     0.86276   0.78075   0.45068   0.00000  Uiso   1.00
C317   C     0.83432   0.74962   0.02745   0.00000  Uiso   1.00
C318   C     0.83390   0.74925   0.47271   0.00000  Uiso   1.00
C319   C     0.73458   0.75000   0.23750   0.00000  Uiso   1.00
C320   C     0.93209   0.75008   0.26251   0.00000  Uiso   1.00
C321   C     0.67917   0.75005   0.23072   0.00000  Uiso   1.00
C322   C     0.98750   0.75011   0.26930   0.00000  Uiso   1.00
C323   C     0.87209   0.54753   0.28107   0.00000  Uiso   1.00
C324   C     0.79834   0.95367   0.27339   0.00000  Uiso   1.00
C325   C     0.87380   0.59400   0.28178   0.00000  Uiso   1.00
C326   C     0.83223   0.83493   0.25011   0.00000  Uiso   1.00
C327   C     0.79604   0.90722   0.27401   0.00000  Uiso   1.00
C328   C     0.83664   0.61679   0.24973   0.00000  Uiso   1.00
C329   C     0.83146   0.88328   0.25040   0.00000  Uiso   1.00
C330   C     0.79982   0.59312   0.21729   0.00000  Uiso   1.00
C331   C     0.86727   0.90579   0.22626   0.00000  Uiso   1.00
C332   C     0.79857   0.54700   0.21680   0.00000  Uiso   1.00
C333   C     0.86909   0.95188   0.22578   0.00000  Uiso   1.00
C334   C     0.83481   0.52420   0.24891   0.00000  Uiso   1.00
C335   C     0.83438   0.97583   0.24937   0.00000  Uiso   1.00
C336   C     0.91562   0.61790   0.31447   0.00000  Uiso   1.00
C337   C     0.87151   0.77399   0.05999   0.00000  Uiso   1.00
C338   C     0.75510   0.88460   0.29709   0.00000  Uiso   1.00
C339   C     0.80485   0.71771   0.44124   0.00000  Uiso   1.00
C340   C     0.86977   0.77428   0.11030   0.00000  Uiso   1.00
C341   C     0.80448   0.71915   0.39069   0.00000  Uiso   1.00
C342   C     0.79785   0.72489   0.09874   0.00000  Uiso   1.00
C343   C     0.86321   0.78009   0.40045   0.00000  Uiso   1.00
C344   C     0.79713   0.72539   0.04838   0.00000  Uiso   1.00
Cu345  Cu    0.83333   0.75000   0.29822   0.00000  Uiso   1.00
Cu346  Cu    0.83333   0.75001   0.20179   0.00000  Uiso   1.00
H347   H     0.99223   0.75001   0.19380   0.00000  Uiso   1.00
H348   H     0.78150   0.69495   0.36752   0.00000  Uiso   1.00
H349   H     0.76694   0.70643   0.02630   0.00000  Uiso   1.00
H350   H     0.88541   0.80634   0.47179   0.00000  Uiso   1.00
H351   H     0.92182   0.65334   0.31142   0.00000  Uiso   1.00
H352   H     0.74785   0.84919   0.29239   0.00000  Uiso   1.00
H353   H     0.67444   0.75016   0.30621   0.00000  Uiso   1.00
H354   H     0.90009   0.52917   0.30516   0.00000  Uiso   1.00
H355   H     0.77150   0.97292   0.29090   0.00000  Uiso   1.00
H356   H     0.77130   0.61057   0.19289   0.00000  Uiso   1.00
H357   H     0.89431   0.88740   0.20813   0.00000  Uiso   1.00
H358   H     0.90252   0.79259   0.04755   0.00000  Uiso   1.00
H359   H     0.78268   0.69139   0.45481   0.00000  Uiso   1.00
H360   H     0.89831   0.79359   0.13420   0.00000  Uiso   1.00
N361   N     0.83333   0.75001   0.12935   0.00000  Uiso   1.00
N362   N     0.83333   0.74999   0.37066   0.00000  Uiso   1.00
O363   O     0.83334   0.68572   0.29072   0.00000  Uiso   1.00
O364   O     0.72827   0.90547   0.32139   0.00000  Uiso   1.00
O365   O     0.83333   0.81428   0.20929   0.00000  Uiso   1.00
O366   O     0.83334   0.68573   0.20928   0.00000  Uiso   1.00
O367   O     0.83333   0.81427   0.29072   0.00000  Uiso   1.00
O368   O     0.75828   0.75000   0.28132   0.00000  Uiso   1.00
O369   O     0.90839   0.75000   0.21868   0.00000  Uiso   1.00
O370   O     0.75828   0.75000   0.19989   0.00000  Uiso   1.00
O371   O     0.90839   0.75000   0.30012   0.00000  Uiso   1.00
O372   O     0.94427   0.59809   0.34511   0.00000  Uiso   1.00
Br373  Br    0.08033   0.01642   0.67171   0.00000  Uiso   1.00
Br374  Br    0.25235   0.48081   0.69211   0.00000  Uiso   1.00
Br375  Br    0.08169   0.18575   0.62134   0.00000  Uiso   1.00
Br376  Br    0.24273   0.32200   0.87711   0.00000  Uiso   1.00
C377   C     0.16793   0.16508   0.74994   0.00000  Uiso   1.00
C378   C     0.19609   0.28075   0.95068   0.00000  Uiso   1.00
C379   C     0.16765   0.24962   0.52745   0.00000  Uiso   1.00
C380   C     0.16724   0.24925   0.97271   0.00000  Uiso   1.00
C381   C     0.06791   0.25000   0.73750   0.00000  Uiso   1.00
C382   C     0.26543   0.25008   0.76251   0.00000  Uiso   1.00
C383   C     0.01250   0.25005   0.73072   0.00000  Uiso   1.00
C384   C     0.32083   0.25011   0.76930   0.00000  Uiso   1.00
C385   C     0.20542   0.04753   0.78107   0.00000  Uiso   1.00
C386   C     0.13167   0.45367   0.77339   0.00000  Uiso   1.00
C387   C     0.20714   0.09400   0.78178   0.00000  Uiso   1.00
C388   C     0.16557   0.33493   0.75011   0.00000  Uiso   1.00
C389   C     0.12937   0.40722   0.77401   0.00000  Uiso   1.00
C390   C     0.16997   0.11679   0.74973   0.00000  Uiso   1.00
C391   C     0.16479   0.38328   0.75040   0.00000  Uiso   1.00
C392   C     0.13315   0.09312   0.71729   0.00000  Uiso   1.00
C393   C     0.20061   0.40579   0.72626   0.00000  Uiso   1.00
C394   C     0.13190   0.04700   0.71680   0.00000  Uiso   1.00
C395   C     0.20243   0.45188   0.72578   0.00000  Uiso   1.00
C396   C     0.16815   0.02420   0.74891   0.00000  Uiso   1.00
C397   C     0.16771   0.47583   0.74937   0.00000  Uiso   1.00
C398   C     0.24895   0.11790   0.81447   0.00000  Uiso   1.00
C399   C     0.20484   0.27399   0.55999   0.00000  Uiso   1.00
C400   C     0.08843   0.38460   0.79709   0.00000  Uiso   1.00
C401   C     0.13818   0.21771   0.94124   0.00000  Uiso   1.00
C402   C     0.20310   0.27428   0.61030   0.00000  Uiso   1.00
C403   C     0.13781   0.21915   0.89069   0.00000  Uiso   1.00
C404   C     0.13119   0.22489   0.59874   0.00000  Uiso   1.00
C405   C     0.19654   0.28009   0.90045   0.00000  Uiso   1.00
C406   C     0.13046   0.22539   0.54838   0.00000  Uiso   1.00
Cu407  Cu    0.16667   0.25000   0.79822   0.00000  Uiso   1.00
Cu408  Cu    0.16667   0.25001   0.70179   0.00000  Uiso   1.00
H409   H     0.32557   0.25001   0.69380   0.00000  Uiso   1.00
H410   H     0.11483   0.19495   0.86752   0.00000  Uiso   1.00
H411   H     0.10027   0.20643   0.52630   0.00000  Uiso   1.00
H412   H     0.21875   0.30634   0.97179   0.00000  Uiso   1.00
H413   H     0.25515   0.15334   0.81142   0.00000  Uiso   1.00
H414   H     0.08118   0.34919   0.79239   0.00000  Uiso   1.00
H415   H     0.00777   0.25016   0.80621   0.00000  Uiso   1.00
H416   H     0.23343   0.02917   0.80516   0.00000  Uiso   1.00
H417   H     0.10483   0.47292   0.79090   0.00000  Uiso   1.00
H418   H     0.10464   0.11057   0.69289   0.00000  Uiso   1.00
H419   H     0.22765   0.38740   0.70813   0.00000  Uiso   1.00
H420   H     0.23586   0.29259   0.54755   0.00000  Uiso   1.00
H421   H     0.11601   0.19139   0.95481   0.00000  Uiso   1.00
H422   H     0.23164   0.29359   0.63420   0.00000  Uiso   1.00
N423   N     0.16667   0.25001   0.62935   0.00000  Uiso   1.00
N424   N     0.16667   0.24999   0.87066   0.00000  Uiso   1.00
O425   O     0.16667   0.18572   0.79072   0.00000  Uiso   1.00
O426   O     0.06160   0.40547   0.82139   0.00000  Uiso   1.00
O427   O     0.16666   0.31428   0.70929   0.00000  Uiso   1.00
O428   O     0.16667   0.18573   0.70928   0.00000  Uiso   1.00
O429   O     0.16666   0.31427   0.79072   0.00000  Uiso   1.00
O430   O     0.09161   0.25000   0.78132   0.00000  Uiso   1.00
O431   O     0.24172   0.25000   0.71868   0.00000  Uiso   1.00
O432   O     0.09161   0.25000   0.69989   0.00000  Uiso   1.00
O433   O     0.24172   0.25000   0.80012   0.00000  Uiso   1.00
O434   O     0.27761   0.09809   0.84511   0.00000  Uiso   1.00
Br435  Br    0.41366   0.01642   0.67171   0.00000  Uiso   1.00
Br436  Br    0.58569   0.48081   0.69211   0.00000  Uiso   1.00
Br437  Br    0.41502   0.18575   0.62134   0.00000  Uiso   1.00
Br438  Br    0.57606   0.32200   0.87711   0.00000  Uiso   1.00
C439   C     0.50127   0.16508   0.74994   0.00000  Uiso   1.00
C440   C     0.52943   0.28075   0.95068   0.00000  Uiso   1.00
C441   C     0.50099   0.24962   0.52745   0.00000  Uiso   1.00
C442   C     0.50057   0.24925   0.97271   0.00000  Uiso   1.00
C443   C     0.40124   0.25000   0.73750   0.00000  Uiso   1.00
C444   C     0.59876   0.25008   0.76251   0.00000  Uiso   1.00
C445   C     0.34584   0.25005   0.73072   0.00000  Uiso   1.00
C446   C     0.65417   0.25011   0.76930   0.00000  Uiso   1.00
C447   C     0.53875   0.04753   0.78107   0.00000  Uiso   1.00
C448   C     0.46500   0.45367   0.77339   0.00000  Uiso   1.00
C449   C     0.54047   0.09400   0.78178   0.00000  Uiso   1.00
C450   C     0.49890   0.33493   0.75011   0.00000  Uiso   1.00
C451   C     0.46271   0.40722   0.77401   0.00000  Uiso   1.00
C452   C     0.50331   0.11679   0.74973   0.00000  Uiso   1.00
C453   C     0.49812   0.38328   0.75040   0.00000  Uiso   1.00
C454   C     0.46648   0.09312   0.71729   0.00000  Uiso   1.00
C455   C     0.53394   0.40579   0.72626   0.00000  Uiso   1.00
C456   C     0.46523   0.04700   0.71680   0.00000  Uiso   1.00
C457   C     0.53576   0.45188   0.72578   0.00000  Uiso   1.00
C458   C     0.50148   0.02420   0.74891   0.00000  Uiso   1.00
C459   C     0.50105   0.47583   0.74937   0.00000  Uiso   1.00
C460   C     0.58228   0.11790   0.81447   0.00000  Uiso   1.00
C461   C     0.53817   0.27399   0.55999   0.00000  Uiso   1.00
C462   C     0.42176   0.38460   0.79709   0.00000  Uiso   1.00
C463   C     0.47151   0.21771   0.94124   0.00000  Uiso   1.00
C464   C     0.53644   0.27428   0.61030   0.00000  Uiso   1.00
C465   C     0.47115   0.21915   0.89069   0.00000  Uiso   1.00
C466   C     0.46452   0.22489   0.59874   0.00000  Uiso   1.00
C467   C     0.52988   0.28009   0.90045   0.00000  Uiso   1.00
C468   C     0.46379   0.22539   0.54838   0.00000  Uiso   1.00
Cu469  Cu    0.50000   0.25000   0.79822   0.00000  Uiso   1.00
Cu470  Cu    0.50000   0.25001   0.70179   0.00000  Uiso   1.00
H471   H     0.65890   0.25001   0.69380   0.00000  Uiso   1.00
H472   H     0.44817   0.19495   0.86752   0.00000  Uiso   1.00
H473   H     0.43360   0.20643   0.52630   0.00000  Uiso   1.00
H474   H     0.55208   0.30634   0.97179   0.00000  Uiso   1.00
H475   H     0.58848   0.15334   0.81142   0.00000  Uiso   1.00
H476   H     0.41451   0.34919   0.79239   0.00000  Uiso   1.00
H477   H     0.34110   0.25016   0.80621   0.00000  Uiso   1.00
H478   H     0.56676   0.02917   0.80516   0.00000  Uiso   1.00
H479   H     0.43817   0.47292   0.79090   0.00000  Uiso   1.00
H480   H     0.43797   0.11057   0.69289   0.00000  Uiso   1.00
H481   H     0.56098   0.38740   0.70813   0.00000  Uiso   1.00
H482   H     0.56919   0.29259   0.54755   0.00000  Uiso   1.00
H483   H     0.44934   0.19139   0.95481   0.00000  Uiso   1.00
H484   H     0.56497   0.29359   0.63420   0.00000  Uiso   1.00
N485   N     0.50000   0.25001   0.62935   0.00000  Uiso   1.00
N486   N     0.50000   0.24999   0.87066   0.00000  Uiso   1.00
O487   O     0.50000   0.18572   0.79072   0.00000  Uiso   1.00
O488   O     0.39494   0.40547   0.82139   0.00000  Uiso   1.00
O489   O     0.50000   0.31428   0.70929   0.00000  Uiso   1.00
O490   O     0.50000   0.18573   0.70928   0.00000  Uiso   1.00
O491   O     0.50000   0.31427   0.79072   0.00000  Uiso   1.00
O492   O     0.42495   0.25000   0.78132   0.00000  Uiso   1.00
O493   O     0.57505   0.25000   0.71868   0.00000  Uiso   1.00
O494   O     0.42495   0.25000   0.69989   0.00000  Uiso   1.00
O495   O     0.57505   0.25000   0.80012   0.00000  Uiso   1.00
O496   O     0.61094   0.09809   0.84511   0.00000  Uiso   1.00
Br497  Br    0.74700   0.01642   0.67171   0.00000  Uiso   1.00
Br498  Br    0.91902   0.48081   0.69211   0.00000  Uiso   1.00
Br499  Br    0.74835   0.18575   0.62134   0.00000  Uiso   1.00
Br500  Br    0.90940   0.32200   0.87711   0.00000  Uiso   1.00
C501   C     0.83460   0.16508   0.74994   0.00000  Uiso   1.00
C502   C     0.86276   0.28075   0.95068   0.00000  Uiso   1.00
C503   C     0.83432   0.24962   0.52745   0.00000  Uiso   1.00
C504   C     0.83390   0.24925   0.97271   0.00000  Uiso   1.00
C505   C     0.73458   0.25000   0.73750   0.00000  Uiso   1.00
C506   C     0.93209   0.25008   0.76251   0.00000  Uiso   1.00
C507   C     0.67917   0.25005   0.73072   0.00000  Uiso   1.00
C508   C     0.98750   0.25011   0.76930   0.00000  Uiso   1.00
C509   C     0.87209   0.04753   0.78107   0.00000  Uiso   1.00
C510   C     0.79834   0.45367   0.77339   0.00000  Uiso   1.00
C511   C     0.87380   0.09400   0.78178   0.00000  Uiso   1.00
C512   C     0.83223   0.33493   0.75011   0.00000  Uiso   1.00
C513   C     0.79604   0.40722   0.77401   0.00000  Uiso   1.00
C514   C     0.83664   0.11679   0.74973   0.00000  Uiso   1.00
C515   C     0.83146   0.38328   0.75040   0.00000  Uiso   1.00
C516   C     0.79982   0.09312   0.71729   0.00000  Uiso   1.00
C517   C     0.86727   0.40579   0.72626   0.00000  Uiso   1.00
C518   C     0.79857   0.04700   0.71680   0.00000  Uiso   1.00
C519   C     0.86909   0.45188   0.72578   0.00000  Uiso   1.00
C520   C     0.83481   0.02420   0.74891   0.00000  Uiso   1.00
C521   C     0.83438   0.47583   0.74937   0.00000  Uiso   1.00
C522   C     0.91562   0.11790   0.81447   0.00000  Uiso   1.00
C523   C     0.87151   0.27399   0.55999   0.00000  Uiso   1.00
C524   C     0.75510   0.38460   0.79709   0.00000  Uiso   1.00
C525   C     0.80485   0.21771   0.94124   0.00000  Uiso   1.00
C526   C     0.86977   0.27428   0.61030   0.00000  Uiso   1.00
C527   C     0.80448   0.21915   0.89069   0.00000  Uiso   1.00
C528   C     0.79785   0.22489   0.59874   0.00000  Uiso   1.00
C529   C     0.86321   0.28009   0.90045   0.00000  Uiso   1.00
C530   C     0.79713   0.22539   0.54838   0.00000  Uiso   1.00
Cu531  Cu    0.83333   0.25000   0.79822   0.00000  Uiso   1.00
Cu532  Cu    0.83333   0.25001   0.70179   0.00000  Uiso   1.00
H533   H     0.99223   0.25001   0.69380   0.00000  Uiso   1.00
H534   H     0.78150   0.19495   0.86752   0.00000  Uiso   1.00
H535   H     0.76694   0.20643   0.52630   0.00000  Uiso   1.00
H536   H     0.88541   0.30634   0.97179   0.00000  Uiso   1.00
H537   H     0.92182   0.15334   0.81142   0.00000  Uiso   1.00
H538   H     0.74785   0.34919   0.79239   0.00000  Uiso   1.00
H539   H     0.67444   0.25016   0.80621   0.00000  Uiso   1.00
H540   H     0.90009   0.02917   0.80516   0.00000  Uiso   1.00
H541   H     0.77150   0.47292   0.79090   0.00000  Uiso   1.00
H542   H     0.77130   0.11057   0.69289   0.00000  Uiso   1.00
H543   H     0.89431   0.38740   0.70813   0.00000  Uiso   1.00
H544   H     0.90252   0.29259   0.54755   0.00000  Uiso   1.00
H545   H     0.78268   0.19139   0.95481   0.00000  Uiso   1.00
H546   H     0.89831   0.29359   0.63420   0.00000  Uiso   1.00
N547   N     0.83333   0.25001   0.62935   0.00000  Uiso   1.00
N548   N     0.83333   0.24999   0.87066   0.00000  Uiso   1.00
O549   O     0.83334   0.18572   0.79072   0.00000  Uiso   1.00
O550   O     0.72827   0.40547   0.82139   0.00000  Uiso   1.00
O551   O     0.83333   0.31428   0.70929   0.00000  Uiso   1.00
O552   O     0.83334   0.18573   0.70928   0.00000  Uiso   1.00
O553   O     0.83333   0.31427   0.79072   0.00000  Uiso   1.00
O554   O     0.75828   0.25000   0.78132   0.00000  Uiso   1.00
O555   O     0.90839   0.25000   0.71868   0.00000  Uiso   1.00
O556   O     0.75828   0.25000   0.69989   0.00000  Uiso   1.00
O557   O     0.90839   0.25000   0.80012   0.00000  Uiso   1.00
O558   O     0.94427   0.09809   0.84511   0.00000  Uiso   1.00
Br559  Br    0.08033   0.51642   0.67171   0.00000  Uiso   1.00
Br560  Br    0.25235   0.98081   0.69211   0.00000  Uiso   1.00
Br561  Br    0.08169   0.68575   0.62134   0.00000  Uiso   1.00
Br562  Br    0.24273   0.82200   0.87711   0.00000  Uiso   1.00
C563   C     0.16793   0.66508   0.74994   0.00000  Uiso   1.00
C564   C     0.19609   0.78075   0.95068   0.00000  Uiso   1.00
C565   C     0.16765   0.74962   0.52745   0.00000  Uiso   1.00
C566   C     0.16724   0.74925   0.97271   0.00000  Uiso   1.00
C567   C     0.06791   0.75000   0.73750   0.00000  Uiso   1.00
C568   C     0.26543   0.75008   0.76251   0.00000  Uiso   1.00
C569   C     0.01250   0.75005   0.73072   0.00000  Uiso   1.00
C570   C     0.32083   0.75011   0.76930   0.00000  Uiso   1.00
C571   C     0.20542   0.54753   0.78107   0.00000  Uiso   1.00
C572   C     0.13167   0.95367   0.77339   0.00000  Uiso   1.00
C573   C     0.20714   0.59400   0.78178   0.00000  Uiso   1.00
C574   C     0.16557   0.83493   0.75011   0.00000  Uiso   1.00
C575   C     0.12937   0.90722   0.77401   0.00000  Uiso   1.00
C576   C     0.16997   0.61679   0.74973   0.00000  Uiso   1.00
C577   C     0.16479   0.88328   0.75040   0.00000  Uiso   1.00
C578   C     0.13315   0.59312   0.71729   0.00000  Uiso   1.00
C579   C     0.20061   0.90579   0.72626   0.00000  Uiso   1.00
C580   C     0.13190   0.54700   0.71680   0.00000  Uiso   1.00
C581   C     0.20243   0.95188   0.72578   0.00000  Uiso   1.00
C582   C     0.16815   0.52420   0.74891   0.00000  Uiso   1.00
C583   C     0.16771   0.97583   0.74937   0.00000  Uiso   1.00
C584   C     0.24895   0.61790   0.81447   0.00000  Uiso   1.00
C585   C     0.20484   0.77399   0.55999   0.00000  Uiso   1.00
C586   C     0.08843   0.88460   0.79709   0.00000  Uiso   1.00
C587   C     0.13818   0.71771   0.94124   0.00000  Uiso   1.00
C588   C     0.20310   0.77428   0.61030   0.00000  Uiso   1.00
C589   C     0.13781   0.71915   0.89069   0.00000  Uiso   1.00
C590   C     0.13119   0.72489   0.59874   0.00000  Uiso   1.00
C591   C     0.19654   0.78009   0.90045   0.00000  Uiso   1.00
C592   C     0.13046   0.72539   0.54838   0.00000  Uiso   1.00
Cu593  Cu    0.16667   0.75000   0.79822   0.00000  Uiso   1.00
Cu594  Cu    0.16667   0.75001   0.70179   0.00000  Uiso   1.00
H595   H     0.32557   0.75001   0.69380   0.00000  Uiso   1.00
H596   H     0.11483   0.69495   0.86752   0.00000  Uiso   1.00
H597   H     0.10027   0.70643   0.52630   0.00000  Uiso   1.00
H598   H     0.21875   0.80634   0.97179   0.00000  Uiso   1.00
H599   H     0.25515   0.65334   0.81142   0.00000  Uiso   1.00
H600   H     0.08118   0.84919   0.79239   0.00000  Uiso   1.00
H601   H     0.00777   0.75016   0.80621   0.00000  Uiso   1.00
H602   H     0.23343   0.52917   0.80516   0.00000  Uiso   1.00
H603   H     0.10483   0.97292   0.79090   0.00000  Uiso   1.00
H604   H     0.10464   0.61057   0.69289   0.00000  Uiso   1.00
H605   H     0.22765   0.88740   0.70813   0.00000  Uiso   1.00
H606   H     0.23586   0.79259   0.54755   0.00000  Uiso   1.00
H607   H     0.11601   0.69139   0.95481   0.00000  Uiso   1.00
H608   H     0.23164   0.79359   0.63420   0.00000  Uiso   1.00
N609   N     0.16667   0.75001   0.62935   0.00000  Uiso   1.00
N610   N     0.16667   0.74999   0.87066   0.00000  Uiso   1.00
O611   O     0.16667   0.68572   0.79072   0.00000  Uiso   1.00
O612   O     0.06160   0.90547   0.82139   0.00000  Uiso   1.00
O613   O     0.16666   0.81428   0.70929   0.00000  Uiso   1.00
O614   O     0.16667   0.68573   0.70928   0.00000  Uiso   1.00
O615   O     0.16666   0.81427   0.79072   0.00000  Uiso   1.00
O616   O     0.09161   0.75000   0.78132   0.00000  Uiso   1.00
O617   O     0.24172   0.75000   0.71868   0.00000  Uiso   1.00
O618   O     0.09161   0.75000   0.69989   0.00000  Uiso   1.00
O619   O     0.24172   0.75000   0.80012   0.00000  Uiso   1.00
O620   O     0.27761   0.59809   0.84511   0.00000  Uiso   1.00
Br621  Br    0.41366   0.51642   0.67171   0.00000  Uiso   1.00
Br622  Br    0.58569   0.98081   0.69211   0.00000  Uiso   1.00
Br623  Br    0.41502   0.68575   0.62134   0.00000  Uiso   1.00
Br624  Br    0.57606   0.82200   0.87711   0.00000  Uiso   1.00
C625   C     0.50127   0.66508   0.74994   0.00000  Uiso   1.00
C626   C     0.52943   0.78075   0.95068   0.00000  Uiso   1.00
C627   C     0.50099   0.74962   0.52745   0.00000  Uiso   1.00
C628   C     0.50057   0.74925   0.97271   0.00000  Uiso   1.00
C629   C     0.40124   0.75000   0.73750   0.00000  Uiso   1.00
C630   C     0.59876   0.75008   0.76251   0.00000  Uiso   1.00
C631   C     0.34584   0.75005   0.73072   0.00000  Uiso   1.00
C632   C     0.65417   0.75011   0.76930   0.00000  Uiso   1.00
C633   C     0.53875   0.54753   0.78107   0.00000  Uiso   1.00
C634   C     0.46500   0.95367   0.77339   0.00000  Uiso   1.00
C635   C     0.54047   0.59400   0.78178   0.00000  Uiso   1.00
C636   C     0.49890   0.83493   0.75011   0.00000  Uiso   1.00
C637   C     0.46271   0.90722   0.77401   0.00000  Uiso   1.00
C638   C     0.50331   0.61679   0.74973   0.00000  Uiso   1.00
C639   C     0.49812   0.88328   0.75040   0.00000  Uiso   1.00
C640   C     0.46648   0.59312   0.71729   0.00000  Uiso   1.00
C641   C     0.53394   0.90579   0.72626   0.00000  Uiso   1.00
C642   C     0.46523   0.54700   0.71680   0.00000  Uiso   1.00
C643   C     0.53576   0.95188   0.72578   0.00000  Uiso   1.00
C644   C     0.50148   0.52420   0.74891   0.00000  Uiso   1.00
C645   C     0.50105   0.97583   0.74937   0.00000  Uiso   1.00
C646   C     0.58228   0.61790   0.81447   0.00000  Uiso   1.00
C647   C     0.53817   0.77399   0.55999   0.00000  Uiso   1.00
C648   C     0.42176   0.88460   0.79709   0.00000  Uiso   1.00
C649   C     0.47151   0.71771   0.94124   0.00000  Uiso   1.00
C650   C     0.53644   0.77428   0.61030   0.00000  Uiso   1.00
C651   C     0.47115   0.71915   0.89069   0.00000  Uiso   1.00
C652   C     0.46452   0.72489   0.59874   0.00000  Uiso   1.00
C653   C     0.52988   0.78009   0.90045   0.00000  Uiso   1.00
C654   C     0.46379   0.72539   0.54838   0.00000  Uiso   1.00
Cu655  Cu    0.50000   0.75000   0.79822   0.00000  Uiso   1.00
Cu656  Cu    0.50000   0.75001   0.70179   0.00000  Uiso   1.00
H657   H     0.65890   0.75001   0.69380   0.00000  Uiso   1.00
H658   H     0.44817   0.69495   0.86752   0.00000  Uiso   1.00
H659   H     0.43360   0.70643   0.52630   0.00000  Uiso   1.00
H660   H     0.55208   0.80634   0.97179   0.00000  Uiso   1.00
H661   H     0.58848   0.65334   0.81142   0.00000  Uiso   1.00
H662   H     0.41451   0.84919   0.79239   0.00000  Uiso   1.00
H663   H     0.34110   0.75016   0.80621   0.00000  Uiso   1.00
H664   H     0.56676   0.52917   0.80516   0.00000  Uiso   1.00
H665   H     0.43817   0.97292   0.79090   0.00000  Uiso   1.00
H666   H     0.43797   0.61057   0.69289   0.00000  Uiso   1.00
H667   H     0.56098   0.88740   0.70813   0.00000  Uiso   1.00
H668   H     0.56919   0.79259   0.54755   0.00000  Uiso   1.00
H669   H     0.44934   0.69139   0.95481   0.00000  Uiso   1.00
H670   H     0.56497   0.79359   0.63420   0.00000  Uiso   1.00
N671   N     0.50000   0.75001   0.62935   0.00000  Uiso   1.00
N672   N     0.50000   0.74999   0.87066   0.00000  Uiso   1.00
O673   O     0.50000   0.68572   0.79072   0.00000  Uiso   1.00
O674   O     0.39494   0.90547   0.82139   0.00000  Uiso   1.00
O675   O     0.50000   0.81428   0.70929   0.00000  Uiso   1.00
O676   O     0.50000   0.68573   0.70928   0.00000  Uiso   1.00
O677   O     0.50000   0.81427   0.79072   0.00000  Uiso   1.00
O678   O     0.42495   0.75000   0.78132   0.00000  Uiso   1.00
O679   O     0.57505   0.75000   0.71868   0.00000  Uiso   1.00
O680   O     0.42495   0.75000   0.69989   0.00000  Uiso   1.00
O681   O     0.57505   0.75000   0.80012   0.00000  Uiso   1.00
O682   O     0.61094   0.59809   0.84511   0.00000  Uiso   1.00
Br683  Br    0.74700   0.51642   0.67171   0.00000  Uiso   1.00
Br684  Br    0.91902   0.98081   0.69211   0.00000  Uiso   1.00
Br685  Br    0.74835   0.68575   0.62134   0.00000  Uiso   1.00
Br686  Br    0.90940   0.82200   0.87711   0.00000  Uiso   1.00
C687   C     0.83460   0.66508   0.74994   0.00000  Uiso   1.00
C688   C     0.86276   0.78075   0.95068   0.00000  Uiso   1.00
C689   C     0.83432   0.74962   0.52745   0.00000  Uiso   1.00
C690   C     0.83390   0.74925   0.97271   0.00000  Uiso   1.00
C691   C     0.73458   0.75000   0.73750   0.00000  Uiso   1.00
C692   C     0.93209   0.75008   0.76251   0.00000  Uiso   1.00
C693   C     0.67917   0.75005   0.73072   0.00000  Uiso   1.00
C694   C     0.98750   0.75011   0.76930   0.00000  Uiso   1.00
C695   C     0.87209   0.54753   0.78107   0.00000  Uiso   1.00
C696   C     0.79834   0.95367   0.77339   0.00000  Uiso   1.00
C697   C     0.87380   0.59400   0.78178   0.00000  Uiso   1.00
C698   C     0.83223   0.83493   0.75011   0.00000  Uiso   1.00
C699   C     0.79604   0.90722   0.77401   0.00000  Uiso   1.00
C700   C     0.83664   0.61679   0.74973   0.00000  Uiso   1.00
C701   C     0.83146   0.88328   0.75040   0.00000  Uiso   1.00
C702   C     0.79982   0.59312   0.71729   0.00000  Uiso   1.00
C703   C     0.86727   0.90579   0.72626   0.00000  Uiso   1.00
C704   C     0.79857   0.54700   0.71680   0.00000  Uiso   1.00
C705   C     0.86909   0.95188   0.72578   0.00000  Uiso   1.00
C706   C     0.83481   0.52420   0.74891   0.00000  Uiso   1.00
C707   C     0.83438   0.97583   0.74937   0.00000  Uiso   1.00
C708   C     0.91562   0.61790   0.81447   0.00000  Uiso   1.00
C709   C     0.87151   0.77399   0.55999   0.00000  Uiso   1.00
C710   C     0.75510   0.88460   0.79709   0.00000  Uiso   1.00
C711   C     0.80485   0.71771   0.94124   0.00000  Uiso   1.00
C712   C     0.86977   0.77428   0.61030   0.00000  Uiso   1.00
C713   C     0.80448   0.71915   0.89069   0.00000  Uiso   1.00
C714   C     0.79785   0.72489   0.59874   0.00000  Uiso   1.00
C715   C     0.86321   0.78009   0.90045   0.00000  Uiso   1.00
C716   C     0.79713   0.72539   0.54838   0.00000  Uiso   1.00
Cu717  Cu    0.83333   0.75000   0.79822   0.00000  Uiso   1.00
Cu718  Cu    0.83333   0.75001   0.70179   0.00000  Uiso   1.00
H719   H     0.99223   0.75001   0.69380   0.00000  Uiso   1.00
H720   H     0.78150   0.69495   0.86752   0.00000  Uiso   1.00
H721   H     0.76694   0.70643   0.52630   0.00000  Uiso   1.00
H722   H     0.88541   0.80634   0.97179   0.00000  Uiso   1.00
H723   H     0.92182   0.65334   0.81142   0.00000  Uiso   1.00
H724   H     0.74785   0.84919   0.79239   0.00000  Uiso   1.00
H725   H     0.67444   0.75016   0.80621   0.00000  Uiso   1.00
H726   H     0.90009   0.52917   0.80516   0.00000  Uiso   1.00
H727   H     0.77150   0.97292   0.79090   0.00000  Uiso   1.00
H728   H     0.77130   0.61057   0.69289   0.00000  Uiso   1.00
H729   H     0.89431   0.88740   0.70813   0.00000  Uiso   1.00
H730   H     0.90252   0.79259   0.54755   0.00000  Uiso   1.00
H731   H     0.78268   0.69139   0.95481   0.00000  Uiso   1.00
H732   H     0.89831   0.79359   0.63420   0.00000  Uiso   1.00
N733   N     0.83333   0.75001   0.62935   0.00000  Uiso   1.00
N734   N     0.83333   0.74999   0.87066   0.00000  Uiso   1.00
O735   O     0.83334   0.68572   0.79072   0.00000  Uiso   1.00
O736   O     0.72827   0.90547   0.82139   0.00000  Uiso   1.00
O737   O     0.83333   0.81428   0.70929   0.00000  Uiso   1.00
O738   O     0.83334   0.68573   0.70928   0.00000  Uiso   1.00
O739   O     0.83333   0.81427   0.79072   0.00000  Uiso   1.00
O740   O     0.75828   0.75000   0.78132   0.00000  Uiso   1.00
O741   O     0.90839   0.75000   0.71868   0.00000  Uiso   1.00
O742   O     0.75828   0.75000   0.69989   0.00000  Uiso   1.00
O743   O     0.90839   0.75000   0.80012   0.00000  Uiso   1.00
O744   O     0.94427   0.59809   0.84511   0.00000  Uiso   1.00
loop_
_geom_bond_atom_site_label_1
_geom_bond_atom_site_label_2
_geom_bond_distance
_geom_bond_site_symmetry_2
_ccdc_geom_bond_type
Br1    C22     1.919   .     S
Br2    C23     1.920   .     S
Br3    C32     1.915   .     S
Br4    C33     1.916   .     S
C5     O56     1.297   .     A
C5     O53     1.294   .     A
C5     C18     1.458   .     S
C6     C33     1.402   .     A
C6     H40     1.079   .     S
C6     C8      1.404   .     A
C7     C34     1.404   .     A
C7     C27     1.418   .     A
C7     C380    1.525   1_554 S
C8     C29     1.418   .     A
C8     C379    1.525   .     S
C9     O60     1.294   .     A
C9     C11     1.435   .     S
C9     O58     1.287   .     A
C10    O59     1.288   .     A
C10    C12     1.435   .     S
C10    O61     1.294   .     A
C11    C136    1.338   1_455 S
C11    H161    1.087   1_455 S
C12    C73     1.338   .     S
C12    H105    1.087   .     S
C13    C15     1.400   .     A
C13    C24     1.398   .     A
C13    H44     1.084   .     S
C14    C17     1.401   .     A
C14    H45     1.084   .     S
C14    C25     1.399   .     A
C15    C18     1.415   .     A
C15    C26     1.487   .     S
C16    O55     1.295   .     A
C16    O57     1.296   .     A
C16    C19     1.458   .     S
C17    C19     1.415   .     A
C17    C28     1.488   .     S
C18    C20     1.400   .     A
C19    C21     1.401   .     A
C20    C22     1.390   .     A
C20    H46     1.083   .     S
C21    C23     1.389   .     A
C21    H47     1.084   .     S
C22    C24     1.402   .     A
C23    C25     1.402   .     A
C24    C211    1.458   1_545 S
C25    C210    1.458   .     S
C26    O62     1.221   .     D
C26    H41     1.084   .     S
C27    H48     1.079   .     S
C27    C30     1.410   .     A
C28    H42     1.084   .     S
C28    O54     1.221   .     D
C29    C31     1.409   .     A
C29    H49     1.079   .     S
C30    N51     1.363   .     A
C30    H50     1.082   .     S
C31    H38     1.082   .     S
C31    N52     1.363   .     A
C32    N51     1.375   .     A
C32    C34     1.402   .     A
C33    N52     1.375   .     A
C34    H39     1.079   .     S
Cu35   O53     1.946   .     S
Cu35   Cu36    2.689   .     S
Cu35   O57     1.951   .     S
Cu35   O58     1.952   .     S
Cu35   O61     1.957   .     S
Cu35   N52     2.020   .     S
Cu36   O56     1.951   .     S
Cu36   O59     1.952   .     S
Cu36   O55     1.946   .     S
Cu36   O60     1.957   .     S
Cu36   N51     2.020   .     S
H37    C73     1.087   .     S
H43    C136    1.087   1_455 S
Br63   C84     1.919   .     S
Br64   C85     1.920   .     S
Br65   C94     1.915   .     S
Br66   C95     1.916   .     S
C67    O118    1.297   .     A
C67    O115    1.294   .     A
C67    C80     1.458   .     S
C68    C95     1.402   .     A
C68    H102    1.079   .     S
C68    C70     1.404   .     A
C69    C96     1.404   .     A
C69    C89     1.418   .     A
C69    C442    1.525   1_554 S
C70    C91     1.418   .     A
C70    C441    1.525   .     S
C71    O122    1.294   .     A
C71    C73     1.435   .     S
C71    O120    1.287   .     A
C72    O121    1.288   .     A
C72    C74     1.435   .     S
C72    O123    1.294   .     A
C74    C135    1.338   .     S
C74    H167    1.087   .     S
C75    C77     1.400   .     A
C75    C86     1.398   .     A
C75    H106    1.084   .     S
C76    C79     1.401   .     A
C76    H107    1.084   .     S
C76    C87     1.399   .     A
C77    C80     1.415   .     A
C77    C88     1.487   .     S
C78    O117    1.295   .     A
C78    O119    1.296   .     A
C78    C81     1.458   .     S
C79    C81     1.415   .     A
C79    C90     1.488   .     S
C80    C82     1.400   .     A
C81    C83     1.401   .     A
C82    C84     1.390   .     A
C82    H108    1.083   .     S
C83    C85     1.389   .     A
C83    H109    1.084   .     S
C84    C86     1.402   .     A
C85    C87     1.402   .     A
C86    C273    1.458   1_545 S
C87    C272    1.458   .     S
C88    O124    1.221   .     D
C88    H103    1.084   .     S
C89    H110    1.079   .     S
C89    C92     1.410   .     A
C90    H104    1.084   .     S
C90    O116    1.221   .     D
C91    C93     1.409   .     A
C91    H111    1.079   .     S
C92    N113    1.363   .     A
C92    H112    1.082   .     S
C93    H100    1.082   .     S
C93    N114    1.363   .     A
C94    N113    1.375   .     A
C94    C96     1.402   .     A
C95    N114    1.375   .     A
C96    H101    1.079   .     S
Cu97   O115    1.946   .     S
Cu97   Cu98    2.689   .     S
Cu97   O119    1.951   .     S
Cu97   O120    1.952   .     S
Cu97   O123    1.957   .     S
Cu97   N114    2.020   .     S
Cu98   O118    1.951   .     S
Cu98   O121    1.952   .     S
Cu98   O117    1.946   .     S
Cu98   O122    1.957   .     S
Cu98   N113    2.020   .     S
H99    C135    1.087   .     S
Br125  C146    1.919   .     S
Br126  C147    1.920   .     S
Br127  C156    1.915   .     S
Br128  C157    1.916   .     S
C129   O180    1.297   .     A
C129   O177    1.294   .     A
C129   C142    1.458   .     S
C130   C157    1.402   .     A
C130   H164    1.079   .     S
C130   C132    1.404   .     A
C131   C158    1.404   .     A
C131   C151    1.418   .     A
C131   C504    1.525   1_554 S
C132   C153    1.418   .     A
C132   C503    1.525   .     S
C133   O184    1.294   .     A
C133   C135    1.435   .     S
C133   O182    1.287   .     A
C134   O183    1.288   .     A
C134   C136    1.435   .     S
C134   O185    1.294   .     A
C136   C11     1.338   1_655 S
C136   H43     1.087   1_655 S
C137   C139    1.400   .     A
C137   C148    1.398   .     A
C137   H168    1.084   .     S
C138   C141    1.401   .     A
C138   H169    1.084   .     S
C138   C149    1.399   .     A
C139   C142    1.415   .     A
C139   C150    1.487   .     S
C140   O179    1.295   .     A
C140   O181    1.296   .     A
C140   C143    1.458   .     S
C141   C143    1.415   .     A
C141   C152    1.488   .     S
C142   C144    1.400   .     A
C143   C145    1.401   .     A
C144   C146    1.390   .     A
C144   H170    1.083   .     S
C145   C147    1.389   .     A
C145   H171    1.084   .     S
C146   C148    1.402   .     A
C147   C149    1.402   .     A
C148   C335    1.458   1_545 S
C149   C334    1.458   .     S
C150   O186    1.221   .     D
C150   H165    1.084   .     S
C151   H172    1.079   .     S
C151   C154    1.410   .     A
C152   H166    1.084   .     S
C152   O178    1.221   .     D
C153   C155    1.409   .     A
C153   H173    1.079   .     S
C154   N175    1.363   .     A
C154   H174    1.082   .     S
C155   H162    1.082   .     S
C155   N176    1.363   .     A
C156   N175    1.375   .     A
C156   C158    1.402   .     A
C157   N176    1.375   .     A
C158   H163    1.079   .     S
Cu159  O177    1.946   .     S
Cu159  Cu160   2.689   .     S
Cu159  O181    1.951   .     S
Cu159  O182    1.952   .     S
Cu159  O185    1.957   .     S
Cu159  N176    2.020   .     S
Cu160  O180    1.951   .     S
Cu160  O183    1.952   .     S
Cu160  O179    1.946   .     S
Cu160  O184    1.957   .     S
Cu160  N175    2.020   .     S
H161   C11     1.087   1_655 S
Br187  C208    1.919   .     S
Br188  C209    1.920   .     S
Br189  C218    1.915   .     S
Br190  C219    1.916   .     S
C191   O242    1.297   .     A
C191   O239    1.294   .     A
C191   C204    1.458   .     S
C192   C219    1.402   .     A
C192   H226    1.079   .     S
C192   C194    1.404   .     A
C193   C220    1.404   .     A
C193   C213    1.418   .     A
C193   C566    1.525   1_554 S
C194   C215    1.418   .     A
C194   C565    1.525   .     S
C195   O246    1.294   .     A
C195   C197    1.435   .     S
C195   O244    1.287   .     A
C196   O245    1.288   .     A
C196   C198    1.435   .     S
C196   O247    1.294   .     A
C197   C322    1.338   1_455 S
C197   H347    1.087   1_455 S
C198   C259    1.338   .     S
C198   H291    1.087   .     S
C199   C201    1.400   .     A
C199   C210    1.398   .     A
C199   H230    1.084   .     S
C200   C203    1.401   .     A
C200   H231    1.084   .     S
C200   C211    1.399   .     A
C201   C204    1.415   .     A
C201   C212    1.487   .     S
C202   O241    1.295   .     A
C202   O243    1.296   .     A
C202   C205    1.458   .     S
C203   C205    1.415   .     A
C203   C214    1.488   .     S
C204   C206    1.400   .     A
C205   C207    1.401   .     A
C206   C208    1.390   .     A
C206   H232    1.083   .     S
C207   C209    1.389   .     A
C207   H233    1.084   .     S
C208   C210    1.402   .     A
C209   C211    1.402   .     A
C211   C24     1.458   1_565 S
C212   O248    1.221   .     D
C212   H227    1.084   .     S
C213   H234    1.079   .     S
C213   C216    1.410   .     A
C214   H228    1.084   .     S
C214   O240    1.221   .     D
C215   C217    1.409   .     A
C215   H235    1.079   .     S
C216   N237    1.363   .     A
C216   H236    1.082   .     S
C217   H224    1.082   .     S
C217   N238    1.363   .     A
C218   N237    1.375   .     A
C218   C220    1.402   .     A
C219   N238    1.375   .     A
C220   H225    1.079   .     S
Cu221  O239    1.946   .     S
Cu221  Cu222   2.689   .     S
Cu221  O243    1.951   .     S
Cu221  O244    1.952   .     S
Cu221  O247    1.957   .     S
Cu221  N238    2.020   .     S
Cu222  O242    1.951   .     S
Cu222  O245    1.952   .     S
Cu222  O241    1.946   .     S
Cu222  O246    1.957   .     S
Cu222  N237    2.020   .     S
H223   C259    1.087   .     S
H229   C322    1.087   1_455 S
Br249  C270    1.919   .     S
Br250  C271    1.920   .     S
Br251  C280    1.915   .     S
Br252  C281    1.916   .     S
C253   O304    1.297   .     A
C253   O301    1.294   .     A
C253   C266    1.458   .     S
C254   C281    1.402   .     A
C254   H288    1.079   .     S
C254   C256    1.404   .     A
C255   C282    1.404   .     A
C255   C275    1.418   .     A
C255   C628    1.525   1_554 S
C256   C277    1.418   .     A
C256   C627    1.525   .     S
C257   O308    1.294   .     A
C257   C259    1.435   .     S
C257   O306    1.287   .     A
C258   O307    1.288   .     A
C258   C260    1.435   .     S
C258   O309    1.294   .     A
C260   C321    1.338   .     S
C260   H353    1.087   .     S
C261   C263    1.400   .     A
C261   C272    1.398   .     A
C261   H292    1.084   .     S
C262   C265    1.401   .     A
C262   H293    1.084   .     S
C262   C273    1.399   .     A
C263   C266    1.415   .     A
C263   C274    1.487   .     S
C264   O303    1.295   .     A
C264   O305    1.296   .     A
C264   C267    1.458   .     S
C265   C267    1.415   .     A
C265   C276    1.488   .     S
C266   C268    1.400   .     A
C267   C269    1.401   .     A
C268   C270    1.390   .     A
C268   H294    1.083   .     S
C269   C271    1.389   .     A
C269   H295    1.084   .     S
C270   C272    1.402   .     A
C271   C273    1.402   .     A
C273   C86     1.458   1_565 S
C274   O310    1.221   .     D
C274   H289    1.084   .     S
C275   H296    1.079   .     S
C275   C278    1.410   .     A
C276   H290    1.084   .     S
C276   O302    1.221   .     D
C277   C279    1.409   .     A
C277   H297    1.079   .     S
C278   N299    1.363   .     A
C278   H298    1.082   .     S
C279   H286    1.082   .     S
C279   N300    1.363   .     A
C280   N299    1.375   .     A
C280   C282    1.402   .     A
C281   N300    1.375   .     A
C282   H287    1.079   .     S
Cu283  O301    1.946   .     S
Cu283  Cu284   2.689   .     S
Cu283  O305    1.951   .     S
Cu283  O306    1.952   .     S
Cu283  O309    1.957   .     S
Cu283  N300    2.020   .     S
Cu284  O304    1.951   .     S
Cu284  O307    1.952   .     S
Cu284  O303    1.946   .     S
Cu284  O308    1.957   .     S
Cu284  N299    2.020   .     S
H285   C321    1.087   .     S
Br311  C332    1.919   .     S
Br312  C333    1.920   .     S
Br313  C342    1.915   .     S
Br314  C343    1.916   .     S
C315   O366    1.297   .     A
C315   O363    1.294   .     A
C315   C328    1.458   .     S
C316   C343    1.402   .     A
C316   H350    1.079   .     S
C316   C318    1.404   .     A
C317   C344    1.404   .     A
C317   C337    1.418   .     A
C317   C690    1.525   1_554 S
C318   C339    1.418   .     A
C318   C689    1.525   .     S
C319   O370    1.294   .     A
C319   C321    1.435   .     S
C319   O368    1.287   .     A
C320   O369    1.288   .     A
C320   C322    1.435   .     S
C320   O371    1.294   .     A
C322   C197    1.338   1_655 S
C322   H229    1.087   1_655 S
C323   C325    1.400   .     A
C323   C334    1.398   .     A
C323   H354    1.084   .     S
C324   C327    1.401   .     A
C324   H355    1.084   .     S
C324   C335    1.399   .     A
C325   C328    1.415   .     A
C325   C336    1.487   .     S
C326   O365    1.295   .     A
C326   O367    1.296   .     A
C326   C329    1.458   .     S
C327   C329    1.415   .     A
C327   C338    1.488   .     S
C328   C330    1.400   .     A
C329   C331    1.401   .     A
C330   C332    1.390   .     A
C330   H356    1.083   .     S
C331   C333    1.389   .     A
C331   H357    1.084   .     S
C332   C334    1.402   .     A
C333   C335    1.402   .     A
C335   C148    1.458   1_565 S
C336   O372    1.221   .     D
C336   H351    1.084   .     S
C337   H358    1.079   .     S
C337   C340    1.410   .     A
C338   H352    1.084   .     S
C338   O364    1.221   .     D
C339   C341    1.409   .     A
C339   H359    1.079   .     S
C340   N361    1.363   .     A
C340   H360    1.082   .     S
C341   H348    1.082   .     S
C341   N362    1.363   .     A
C342   N361    1.375   .     A
C342   C344    1.402   .     A
C343   N362    1.375   .     A
C344   H349    1.079   .     S
Cu345  O363    1.946   .     S
Cu345  Cu346   2.689   .     S
Cu345  O367    1.951   .     S
Cu345  O368    1.952   .     S
Cu345  O371    1.957   .     S
Cu345  N362    2.020   .     S
Cu346  O366    1.951   .     S
Cu346  O369    1.952   .     S
Cu346  O365    1.946   .     S
Cu346  O370    1.957   .     S
Cu346  N361    2.020   .     S
H347   C197    1.087   1_655 S
Br373  C394    1.919   .     S
Br374  C395    1.920   .     S
Br375  C404    1.915   .     S
Br376  C405    1.916   .     S
C377   O428    1.297   .     A
C377   O425    1.294   .     A
C377   C390    1.458   .     S
C378   C405    1.402   .     A
C378   H412    1.079   .     S
C378   C380    1.404   .     A
C379   C406    1.404   .     A
C379   C399    1.418   .     A
C380   C401    1.418   .     A
C380   C7      1.525   1_556 S
C381   O432    1.294   .     A
C381   C383    1.435   .     S
C381   O430    1.287   .     A
C382   O431    1.288   .     A
C382   C384    1.435   .     S
C382   O433    1.294   .     A
C383   C508    1.338   1_455 S
C383   H533    1.087   1_455 S
C384   C445    1.338   .     S
C384   H477    1.087   .     S
C385   C387    1.400   .     A
C385   C396    1.398   .     A
C385   H416    1.084   .     S
C386   C389    1.401   .     A
C386   H417    1.084   .     S
C386   C397    1.399   .     A
C387   C390    1.415   .     A
C387   C398    1.487   .     S
C388   O427    1.295   .     A
C388   O429    1.296   .     A
C388   C391    1.458   .     S
C389   C391    1.415   .     A
C389   C400    1.488   .     S
C390   C392    1.400   .     A
C391   C393    1.401   .     A
C392   C394    1.390   .     A
C392   H418    1.083   .     S
C393   C395    1.389   .     A
C393   H419    1.084   .     S
C394   C396    1.402   .     A
C395   C397    1.402   .     A
C396   C583    1.458   1_545 S
C397   C582    1.458   .     S
C398   O434    1.221   .     D
C398   H413    1.084   .     S
C399   H420    1.079   .     S
C399   C402    1.410   .     A
C400   H414    1.084   .     S
C400   O426    1.221   .     D
C401   C403    1.409   .     A
C401   H421    1.079   .     S
C402   N423    1.363   .     A
C402   H422    1.082   .     S
C403   H410    1.082   .     S
C403   N424    1.363   .     A
C404   N423    1.375   .     A
C404   C406    1.402   .     A
C405   N424    1.375   .     A
C406   H411    1.079   .     S
Cu407  O425    1.946   .     S
Cu407  Cu408   2.689   .     S
Cu407  O429    1.951   .     S
Cu407  O430    1.952   .     S
Cu407  O433    1.957   .     S
Cu407  N424    2.020   .     S
Cu408  O428    1.951   .     S
Cu408  O431    1.952   .     S
Cu408  O427    1.946   .     S
Cu408  O432    1.957   .     S
Cu408  N423    2.020   .     S
H409   C445    1.087   .     S
H415   C508    1.087   1_455 S
Br435  C456    1.919   .     S
Br436  C457    1.920   .     S
Br437  C466    1.915   .     S
Br438  C467    1.916   .     S
C439   O490    1.297   .     A
C439   O487    1.294   .     A
C439   C452    1.458   .     S
C440   C467    1.402   .     A
C440   H474    1.079   .     S
C440   C442    1.404   .     A
C441   C468    1.404   .     A
C441   C461    1.418   .     A
C442   C463    1.418   .     A
C442   C69     1.525   1_556 S
C443   O494    1.294   .     A
C443   C445    1.435   .     S
C443   O492    1.287   .     A
C444   O493    1.288   .     A
C444   C446    1.435   .     S
C444   O495    1.294   .     A
C446   C507    1.338   .     S
C446   H539    1.087   .     S
C447   C449    1.400   .     A
C447   C458    1.398   .     A
C447   H478    1.084   .     S
C448   C451    1.401   .     A
C448   H479    1.084   .     S
C448   C459    1.399   .     A
C449   C452    1.415   .     A
C449   C460    1.487   .     S
C450   O489    1.295   .     A
C450   O491    1.296   .     A
C450   C453    1.458   .     S
C451   C453    1.415   .     A
C451   C462    1.488   .     S
C452   C454    1.400   .     A
C453   C455    1.401   .     A
C454   C456    1.390   .     A
C454   H480    1.083   .     S
C455   C457    1.389   .     A
C455   H481    1.084   .     S
C456   C458    1.402   .     A
C457   C459    1.402   .     A
C458   C645    1.458   1_545 S
C459   C644    1.458   .     S
C460   O496    1.221   .     D
C460   H475    1.084   .     S
C461   H482    1.079   .     S
C461   C464    1.410   .     A
C462   H476    1.084   .     S
C462   O488    1.221   .     D
C463   C465    1.409   .     A
C463   H483    1.079   .     S
C464   N485    1.363   .     A
C464   H484    1.082   .     S
C465   H472    1.082   .     S
C465   N486    1.363   .     A
C466   N485    1.375   .     A
C466   C468    1.402   .     A
C467   N486    1.375   .     A
C468   H473    1.079   .     S
Cu469  O487    1.946   .     S
Cu469  Cu470   2.689   .     S
Cu469  O491    1.951   .     S
Cu469  O492    1.952   .     S
Cu469  O495    1.957   .     S
Cu469  N486    2.020   .     S
Cu470  O490    1.951   .     S
Cu470  O493    1.952   .     S
Cu470  O489    1.946   .     S
Cu470  O494    1.957   .     S
Cu470  N485    2.020   .     S
H471   C507    1.087   .     S
Br497  C518    1.919   .     S
Br498  C519    1.920   .     S
Br499  C528    1.915   .     S
Br500  C529    1.916   .     S
C501   O552    1.297   .     A
C501   O549    1.294   .     A
C501   C514    1.458   .     S
C502   C529    1.402   .     A
C502   H536    1.079   .     S
C502   C504    1.404   .     A
C503   C530    1.404   .     A
C503   C523    1.418   .     A
C504   C525    1.418   .     A
C504   C131    1.525   1_556 S
C505   O556    1.294   .     A
C505   C507    1.435   .     S
C505   O554    1.287   .     A
C506   O555    1.288   .     A
C506   C508    1.435   .     S
C506   O557    1.294   .     A
C508   C383    1.338   1_655 S
C508   H415    1.087   1_655 S
C509   C511    1.400   .     A
C509   C520    1.398   .     A
C509   H540    1.084   .     S
C510   C513    1.401   .     A
C510   H541    1.084   .     S
C510   C521    1.399   .     A
C511   C514    1.415   .     A
C511   C522    1.487   .     S
C512   O551    1.295   .     A
C512   O553    1.296   .     A
C512   C515    1.458   .     S
C513   C515    1.415   .     A
C513   C524    1.488   .     S
C514   C516    1.400   .     A
C515   C517    1.401   .     A
C516   C518    1.390   .     A
C516   H542    1.083   .     S
C517   C519    1.389   .     A
C517   H543    1.084   .     S
C518   C520    1.402   .     A
C519   C521    1.402   .     A
C520   C707    1.458   1_545 S
C521   C706    1.458   .     S
C522   O558    1.221   .     D
C522   H537    1.084   .     S
C523   H544    1.079   .     S
C523   C526    1.410   .     A
C524   H538    1.084   .     S
C524   O550    1.221   .     D
C525   C527    1.409   .     A
C525   H545    1.079   .     S
C526   N547    1.363   .     A
C526   H546    1.082   .     S
C527   H534    1.082   .     S
C527   N548    1.363   .     A
C528   N547    1.375   .     A
C528   C530    1.402   .     A
C529   N548    1.375   .     A
C530   H535    1.079   .     S
Cu531  O549    1.946   .     S
Cu531  Cu532   2.689   .     S
Cu531  O553    1.951   .     S
Cu531  O554    1.952   .     S
Cu531  O557    1.957   .     S
Cu531  N548    2.020   .     S
Cu532  O552    1.951   .     S
Cu532  O555    1.952   .     S
Cu532  O551    1.946   .     S
Cu532  O556    1.957   .     S
Cu532  N547    2.020   .     S
H533   C383    1.087   1_655 S
Br559  C580    1.919   .     S
Br560  C581    1.920   .     S
Br561  C590    1.915   .     S
Br562  C591    1.916   .     S
C563   O614    1.297   .     A
C563   O611    1.294   .     A
C563   C576    1.458   .     S
C564   C591    1.402   .     A
C564   H598    1.079   .     S
C564   C566    1.404   .     A
C565   C592    1.404   .     A
C565   C585    1.418   .     A
C566   C587    1.418   .     A
C566   C193    1.525   1_556 S
C567   O618    1.294   .     A
C567   C569    1.435   .     S
C567   O616    1.287   .     A
C568   O617    1.288   .     A
C568   C570    1.435   .     S
C568   O619    1.294   .     A
C569   C694    1.338   1_455 S
C569   H719    1.087   1_455 S
C570   C631    1.338   .     S
C570   H663    1.087   .     S
C571   C573    1.400   .     A
C571   C582    1.398   .     A
C571   H602    1.084   .     S
C572   C575    1.401   .     A
C572   H603    1.084   .     S
C572   C583    1.399   .     A
C573   C576    1.415   .     A
C573   C584    1.487   .     S
C574   O613    1.295   .     A
C574   O615    1.296   .     A
C574   C577    1.458   .     S
C575   C577    1.415   .     A
C575   C586    1.488   .     S
C576   C578    1.400   .     A
C577   C579    1.401   .     A
C578   C580    1.390   .     A
C578   H604    1.083   .     S
C579   C581    1.389   .     A
C579   H605    1.084   .     S
C580   C582    1.402   .     A
C581   C583    1.402   .     A
C583   C396    1.458   1_565 S
C584   O620    1.221   .     D
C584   H599    1.084   .     S
C585   H606    1.079   .     S
C585   C588    1.410   .     A
C586   H600    1.084   .     S
C586   O612    1.221   .     D
C587   C589    1.409   .     A
C587   H607    1.079   .     S
C588   N609    1.363   .     A
C588   H608    1.082   .     S
C589   H596    1.082   .     S
C589   N610    1.363   .     A
C590   N609    1.375   .     A
C590   C592    1.402   .     A
C591   N610    1.375   .     A
C592   H597    1.079   .     S
Cu593  O611    1.946   .     S
Cu593  Cu594   2.689   .     S
Cu593  O615    1.951   .     S
Cu593  O616    1.952   .     S
Cu593  O619    1.957   .     S
Cu593  N610    2.020   .     S
Cu594  O614    1.951   .     S
Cu594  O617    1.952   .     S
Cu594  O613    1.946   .     S
Cu594  O618    1.957   .     S
Cu594  N609    2.020   .     S
H595   C631    1.087   .     S
H601   C694    1.087   1_455 S
Br621  C642    1.919   .     S
Br622  C643    1.920   .     S
Br623  C652    1.915   .     S
Br624  C653    1.916   .     S
C625   O676    1.297   .     A
C625   O673    1.294   .     A
C625   C638    1.458   .     S
C626   C653    1.402   .     A
C626   H660    1.079   .     S
C626   C628    1.404   .     A
C627   C654    1.404   .     A
C627   C647    1.418   .     A
C628   C649    1.418   .     A
C628   C255    1.525   1_556 S
C629   O680    1.294   .     A
C629   C631    1.435   .     S
C629   O678    1.287   .     A
C630   O679    1.288   .     A
C630   C632    1.435   .     S
C630   O681    1.294   .     A
C632   C693    1.338   .     S
C632   H725    1.087   .     S
C633   C635    1.400   .     A
C633   C644    1.398   .     A
C633   H664    1.084   .     S
C634   C637    1.401   .     A
C634   H665    1.084   .     S
C634   C645    1.399   .     A
C635   C638    1.415   .     A
C635   C646    1.487   .     S
C636   O675    1.295   .     A
C636   O677    1.296   .     A
C636   C639    1.458   .     S
C637   C639    1.415   .     A
C637   C648    1.488   .     S
C638   C640    1.400   .     A
C639   C641    1.401   .     A
C640   C642    1.390   .     A
C640   H666    1.083   .     S
C641   C643    1.389   .     A
C641   H667    1.084   .     S
C642   C644    1.402   .     A
C643   C645    1.402   .     A
C645   C458    1.458   1_565 S
C646   O682    1.221   .     D
C646   H661    1.084   .     S
C647   H668    1.079   .     S
C647   C650    1.410   .     A
C648   H662    1.084   .     S
C648   O674    1.221   .     D
C649   C651    1.409   .     A
C649   H669    1.079   .     S
C650   N671    1.363   .     A
C650   H670    1.082   .     S
C651   H658    1.082   .     S
C651   N672    1.363   .     A
C652   N671    1.375   .     A
C652   C654    1.402   .     A
C653   N672    1.375   .     A
C654   H659    1.079   .     S
Cu655  O673    1.946   .     S
Cu655  Cu656   2.689   .     S
Cu655  O677    1.951   .     S
Cu655  O678    1.952   .     S
Cu655  O681    1.957   .     S
Cu655  N672    2.020   .     S
Cu656  O676    1.951   .     S
Cu656  O679    1.952   .     S
Cu656  O675    1.946   .     S
Cu656  O680    1.957   .     S
Cu656  N671    2.020   .     S
H657   C693    1.087   .     S
Br683  C704    1.919   .     S
Br684  C705    1.920   .     S
Br685  C714    1.915   .     S
Br686  C715    1.916   .     S
C687   O738    1.297   .     A
C687   O735    1.294   .     A
C687   C700    1.458   .     S
C688   C715    1.402   .     A
C688   H722    1.079   .     S
C688   C690    1.404   .     A
C689   C716    1.404   .     A
C689   C709    1.418   .     A
C690   C711    1.418   .     A
C690   C317    1.525   1_556 S
C691   O742    1.294   .     A
C691   C693    1.435   .     S
C691   O740    1.287   .     A
C692   O741    1.288   .     A
C692   C694    1.435   .     S
C692   O743    1.294   .     A
C694   C569    1.338   1_655 S
C694   H601    1.087   1_655 S
C695   C697    1.400   .     A
C695   C706    1.398   .     A
C695   H726    1.084   .     S
C696   C699    1.401   .     A
C696   H727    1.084   .     S
C696   C707    1.399   .     A
C697   C700    1.415   .     A
C697   C708    1.487   .     S
C698   O737    1.295   .     A
C698   O739    1.296   .     A
C698   C701    1.458   .     S
C699   C701    1.415   .     A
C699   C710    1.488   .     S
C700   C702    1.400   .     A
C701   C703    1.401   .     A
C702   C704    1.390   .     A
C702   H728    1.083   .     S
C703   C705    1.389   .     A
C703   H729    1.084   .     S
C704   C706    1.402   .     A
C705   C707    1.402   .     A
C707   C520    1.458   1_565 S
C708   O744    1.221   .     D
C708   H723    1.084   .     S
C709   H730    1.079   .     S
C709   C712    1.410   .     A
C710   H724    1.084   .     S
C710   O736    1.221   .     D
C711   C713    1.409   .     A
C711   H731    1.079   .     S
C712   N733    1.363   .     A
C712   H732    1.082   .     S
C713   H720    1.082   .     S
C713   N734    1.363   .     A
C714   N733    1.375   .     A
C714   C716    1.402   .     A
C715   N734    1.375   .     A
C716   H721    1.079   .     S
Cu717  O735    1.946   .     S
Cu717  Cu718   2.689   .     S
Cu717  O739    1.951   .     S
Cu717  O740    1.952   .     S
Cu717  O743    1.957   .     S
Cu717  N734    2.020   .     S
Cu718  O738    1.951   .     S
Cu718  O741    1.952   .     S
Cu718  O737    1.946   .     S
Cu718  O742    1.957   .     S
Cu718  N733    2.020   .     S
H719   C569    1.087   1_655 S
