data_str_m2_o1_o18_pcu_sym.154
_audit_creation_date              2020-01-03
_audit_creation_method            'Materials Studio'
_symmetry_space_group_name_H-M    'P1'
_symmetry_Int_Tables_number       1
_symmetry_cell_setting            triclinic
loop_
_symmetry_equiv_pos_as_xyz
  x,y,z
_cell_length_a                    28.7962
_cell_length_b                    32.4689
_cell_length_c                    30.9146
_cell_angle_alpha                 89.6207
_cell_angle_beta                  73.5383
_cell_angle_gamma                 90.0094
loop_
_atom_site_label
_atom_site_type_symbol
_atom_site_fract_x
_atom_site_fract_y
_atom_site_fract_z
_atom_site_U_iso_or_equiv
_atom_site_adp_type
_atom_site_occupancy
C1     C     0.33331   0.08744   0.25004   0.00000  Uiso   1.00
C2     C     0.00004   0.24590   0.24993   0.00000  Uiso   1.00
C3     C     0.19019   0.18414   0.04722   0.00000  Uiso   1.00
C4     C     0.14529   0.15623   0.45228   0.00000  Uiso   1.00
C5     C     0.23525   0.20012   0.02308   0.00000  Uiso   1.00
C6     C     0.09673   0.16568   0.47242   0.00000  Uiso   1.00
C7     C     0.29036   0.02128   0.25293   0.00000  Uiso   1.00
C8     C     0.04307   0.31208   0.24678   0.00000  Uiso   1.00
C9     C     0.29039   0.31201   0.25286   0.00000  Uiso   1.00
C10    C     0.04306   0.02135   0.24679   0.00000  Uiso   1.00
C11    C     0.00006   0.29056   0.24985   0.00000  Uiso   1.00
C12    C     0.00002   0.04279   0.24993   0.00000  Uiso   1.00
C13    C     0.18273   0.14109   0.27810   0.00000  Uiso   1.00
C14    C     0.15063   0.19204   0.22164   0.00000  Uiso   1.00
C15    C     0.13332   0.14122   0.27822   0.00000  Uiso   1.00
C16    C     0.20003   0.19205   0.22167   0.00000  Uiso   1.00
C17    C     0.30588   0.16639   0.33603   0.00000  Uiso   1.00
C18    C     0.02761   0.16500   0.16391   0.00000  Uiso   1.00
C19    C     0.29076   0.17024   0.38518   0.00000  Uiso   1.00
C20    C     0.04392   0.16152   0.11440   0.00000  Uiso   1.00
C21    C     0.29775   0.20750   0.45076   0.00000  Uiso   1.00
C22    C     0.02911   0.17021   0.04143   0.00000  Uiso   1.00
C23    C     0.31434   0.19917   0.40479   0.00000  Uiso   1.00
C24    C     0.01241   0.17064   0.08844   0.00000  Uiso   1.00
C25    C     0.24985   0.14930   0.41210   0.00000  Uiso   1.00
C26    C     0.09228   0.15028   0.09271   0.00000  Uiso   1.00
C27    C     0.22802   0.16391   0.45622   0.00000  Uiso   1.00
C28    C     0.11090   0.15781   0.04599   0.00000  Uiso   1.00
C29    C     0.25443   0.19007   0.47712   0.00000  Uiso   1.00
C30    C     0.07842   0.16407   0.01974   0.00000  Uiso   1.00
C31    C     0.17850   0.15766   0.47790   0.00000  Uiso   1.00
C32    C     0.16077   0.16352   0.02483   0.00000  Uiso   1.00
Cu33   Cu    0.04689   0.16667   0.25000   0.00000  Uiso   1.00
Cu34   Cu    0.28645   0.16666   0.25000   0.00000  Uiso   1.00
H35    H     0.30811   0.17760   0.10458   0.00000  Uiso   1.00
H36    H     0.01188   0.21585   0.38398   0.00000  Uiso   1.00
H37    H     0.31721   0.22955   0.46503   0.00000  Uiso   1.00
H38    H     0.00371   0.17559   0.02212   0.00000  Uiso   1.00
H39    H     0.17559   0.19328   0.08210   0.00000  Uiso   1.00
H40    H     0.15791   0.15761   0.41580   0.00000  Uiso   1.00
H41    H     0.25669   0.03727   0.25546   0.00000  Uiso   1.00
H42    H     0.07674   0.29609   0.24427   0.00000  Uiso   1.00
H43    H     0.25674   0.29598   0.25531   0.00000  Uiso   1.00
H44    H     0.07672   0.03740   0.24427   0.00000  Uiso   1.00
N45    N     0.11736   0.16668   0.24999   0.00000  Uiso   1.00
N46    N     0.21597   0.16666   0.25001   0.00000  Uiso   1.00
O47    O     0.03958   0.10655   0.25000   0.00000  Uiso   1.00
O48    O     0.29375   0.22678   0.25000   0.00000  Uiso   1.00
O49    O     0.29372   0.10654   0.25001   0.00000  Uiso   1.00
O50    O     0.03961   0.22679   0.24999   0.00000  Uiso   1.00
O51    O     0.01852   0.16668   0.31491   0.00000  Uiso   1.00
O52    O     0.31481   0.16666   0.18509   0.00000  Uiso   1.00
O53    O     0.27267   0.16667   0.31492   0.00000  Uiso   1.00
O54    O     0.06067   0.16667   0.18508   0.00000  Uiso   1.00
N55    N     0.25974   0.22767   0.04484   0.00000  Uiso   1.00
H56    H     0.25539   0.22021   0.07823   0.00000  Uiso   1.00
C57    C     0.24894   0.27064   0.03970   0.00000  Uiso   1.00
H58    H     0.27165   0.29010   0.05507   0.00000  Uiso   1.00
H59    H     0.21017   0.27693   0.05692   0.00000  Uiso   1.00
H60    H     0.25689   0.27920   0.00348   0.00000  Uiso   1.00
N61    N     0.07067   0.18565   0.44570   0.00000  Uiso   1.00
H62    H     0.07444   0.17127   0.41523   0.00000  Uiso   1.00
C63    C     0.08281   0.22916   0.43969   0.00000  Uiso   1.00
H64    H     0.12222   0.23344   0.42332   0.00000  Uiso   1.00
H65    H     0.07261   0.24495   0.47284   0.00000  Uiso   1.00
H66    H     0.06329   0.24414   0.41778   0.00000  Uiso   1.00
N67    N     0.11975   0.12725   0.11670   0.00000  Uiso   1.00
H68    H     0.15658   0.12626   0.10228   0.00000  Uiso   1.00
C69    C     0.10139   0.08616   0.13018   0.00000  Uiso   1.00
H70    H     0.12291   0.07163   0.15082   0.00000  Uiso   1.00
H71    H     0.10446   0.06695   0.09987   0.00000  Uiso   1.00
H72    H     0.06301   0.08689   0.15085   0.00000  Uiso   1.00
N73    N     0.23191   0.11290   0.39618   0.00000  Uiso   1.00
H74    H     0.24587   0.10677   0.36240   0.00000  Uiso   1.00
C75    C     0.23195   0.07608   0.42290   0.00000  Uiso   1.00
H76    H     0.21693   0.04989   0.40818   0.00000  Uiso   1.00
H77    H     0.20910   0.08004   0.45811   0.00000  Uiso   1.00
H78    H     0.26954   0.06839   0.42295   0.00000  Uiso   1.00
F79    F     0.19700   0.11490   0.30608   0.00000  Uiso   1.00
F80    F     0.13641   0.21769   0.19306   0.00000  Uiso   1.00
F81    F     0.10164   0.11553   0.30668   0.00000  Uiso   1.00
F82    F     0.23173   0.21762   0.19308   0.00000  Uiso   1.00
C83    C     0.66664   0.08744   0.25004   0.00000  Uiso   1.00
C84    C     0.33337   0.24590   0.24993   0.00000  Uiso   1.00
C85    C     0.52353   0.18414   0.04722   0.00000  Uiso   1.00
C86    C     0.47863   0.15623   0.45228   0.00000  Uiso   1.00
C87    C     0.56858   0.20012   0.02308   0.00000  Uiso   1.00
C88    C     0.43007   0.16568   0.47242   0.00000  Uiso   1.00
C89    C     0.62369   0.02128   0.25293   0.00000  Uiso   1.00
C90    C     0.37641   0.31208   0.24678   0.00000  Uiso   1.00
C91    C     0.62372   0.31201   0.25286   0.00000  Uiso   1.00
C92    C     0.37639   0.02135   0.24679   0.00000  Uiso   1.00
C93    C     0.33339   0.29056   0.24985   0.00000  Uiso   1.00
C94    C     0.33335   0.04279   0.24993   0.00000  Uiso   1.00
C95    C     0.51606   0.14109   0.27810   0.00000  Uiso   1.00
C96    C     0.48396   0.19204   0.22164   0.00000  Uiso   1.00
C97    C     0.46665   0.14122   0.27822   0.00000  Uiso   1.00
C98    C     0.53336   0.19205   0.22167   0.00000  Uiso   1.00
C99    C     0.63921   0.16639   0.33603   0.00000  Uiso   1.00
C100   C     0.36095   0.16500   0.16391   0.00000  Uiso   1.00
C101   C     0.62410   0.17024   0.38518   0.00000  Uiso   1.00
C102   C     0.37726   0.16152   0.11440   0.00000  Uiso   1.00
C103   C     0.63109   0.20750   0.45076   0.00000  Uiso   1.00
C104   C     0.36244   0.17021   0.04143   0.00000  Uiso   1.00
C105   C     0.64768   0.19917   0.40479   0.00000  Uiso   1.00
C106   C     0.34575   0.17064   0.08844   0.00000  Uiso   1.00
C107   C     0.58318   0.14930   0.41210   0.00000  Uiso   1.00
C108   C     0.42562   0.15028   0.09271   0.00000  Uiso   1.00
C109   C     0.56135   0.16391   0.45622   0.00000  Uiso   1.00
C110   C     0.44423   0.15781   0.04599   0.00000  Uiso   1.00
C111   C     0.58777   0.19007   0.47712   0.00000  Uiso   1.00
C112   C     0.41176   0.16407   0.01974   0.00000  Uiso   1.00
C113   C     0.51184   0.15766   0.47790   0.00000  Uiso   1.00
C114   C     0.49410   0.16352   0.02483   0.00000  Uiso   1.00
Cu115  Cu    0.38022   0.16667   0.25000   0.00000  Uiso   1.00
Cu116  Cu    0.61978   0.16666   0.25000   0.00000  Uiso   1.00
H117   H     0.64144   0.17760   0.10458   0.00000  Uiso   1.00
H118   H     0.34522   0.21585   0.38398   0.00000  Uiso   1.00
H119   H     0.65054   0.22955   0.46503   0.00000  Uiso   1.00
H120   H     0.33705   0.17559   0.02212   0.00000  Uiso   1.00
H121   H     0.50892   0.19328   0.08210   0.00000  Uiso   1.00
H122   H     0.49124   0.15761   0.41580   0.00000  Uiso   1.00
H123   H     0.59002   0.03727   0.25546   0.00000  Uiso   1.00
H124   H     0.41007   0.29609   0.24427   0.00000  Uiso   1.00
H125   H     0.59007   0.29598   0.25531   0.00000  Uiso   1.00
H126   H     0.41005   0.03740   0.24427   0.00000  Uiso   1.00
N127   N     0.45069   0.16668   0.24999   0.00000  Uiso   1.00
N128   N     0.54931   0.16666   0.25001   0.00000  Uiso   1.00
O129   O     0.37291   0.10655   0.25000   0.00000  Uiso   1.00
O130   O     0.62709   0.22678   0.25000   0.00000  Uiso   1.00
O131   O     0.62706   0.10654   0.25001   0.00000  Uiso   1.00
O132   O     0.37294   0.22679   0.24999   0.00000  Uiso   1.00
O133   O     0.35186   0.16668   0.31491   0.00000  Uiso   1.00
O134   O     0.64814   0.16666   0.18509   0.00000  Uiso   1.00
O135   O     0.60600   0.16667   0.31492   0.00000  Uiso   1.00
O136   O     0.39400   0.16667   0.18508   0.00000  Uiso   1.00
N137   N     0.59307   0.22767   0.04484   0.00000  Uiso   1.00
H138   H     0.58872   0.22021   0.07823   0.00000  Uiso   1.00
C139   C     0.58227   0.27064   0.03970   0.00000  Uiso   1.00
H140   H     0.60499   0.29010   0.05507   0.00000  Uiso   1.00
H141   H     0.54350   0.27693   0.05692   0.00000  Uiso   1.00
H142   H     0.59023   0.27920   0.00348   0.00000  Uiso   1.00
N143   N     0.40401   0.18565   0.44570   0.00000  Uiso   1.00
H144   H     0.40777   0.17127   0.41523   0.00000  Uiso   1.00
C145   C     0.41614   0.22916   0.43969   0.00000  Uiso   1.00
H146   H     0.45555   0.23344   0.42332   0.00000  Uiso   1.00
H147   H     0.40594   0.24495   0.47284   0.00000  Uiso   1.00
H148   H     0.39663   0.24414   0.41778   0.00000  Uiso   1.00
N149   N     0.45309   0.12725   0.11670   0.00000  Uiso   1.00
H150   H     0.48991   0.12626   0.10228   0.00000  Uiso   1.00
C151   C     0.43473   0.08616   0.13018   0.00000  Uiso   1.00
H152   H     0.45624   0.07163   0.15082   0.00000  Uiso   1.00
H153   H     0.43779   0.06695   0.09987   0.00000  Uiso   1.00
H154   H     0.39634   0.08689   0.15085   0.00000  Uiso   1.00
N155   N     0.56525   0.11290   0.39618   0.00000  Uiso   1.00
H156   H     0.57921   0.10677   0.36240   0.00000  Uiso   1.00
C157   C     0.56528   0.07608   0.42290   0.00000  Uiso   1.00
H158   H     0.55026   0.04989   0.40818   0.00000  Uiso   1.00
H159   H     0.54244   0.08004   0.45811   0.00000  Uiso   1.00
H160   H     0.60287   0.06839   0.42295   0.00000  Uiso   1.00
F161   F     0.53033   0.11490   0.30608   0.00000  Uiso   1.00
F162   F     0.46974   0.21769   0.19306   0.00000  Uiso   1.00
F163   F     0.43498   0.11553   0.30668   0.00000  Uiso   1.00
F164   F     0.56507   0.21762   0.19308   0.00000  Uiso   1.00
C165   C     0.99998   0.08744   0.25004   0.00000  Uiso   1.00
C166   C     0.66670   0.24590   0.24993   0.00000  Uiso   1.00
C167   C     0.85686   0.18414   0.04722   0.00000  Uiso   1.00
C168   C     0.81196   0.15623   0.45228   0.00000  Uiso   1.00
C169   C     0.90191   0.20012   0.02308   0.00000  Uiso   1.00
C170   C     0.76340   0.16568   0.47242   0.00000  Uiso   1.00
C171   C     0.95703   0.02128   0.25293   0.00000  Uiso   1.00
C172   C     0.70974   0.31208   0.24678   0.00000  Uiso   1.00
C173   C     0.95705   0.31201   0.25286   0.00000  Uiso   1.00
C174   C     0.70972   0.02135   0.24679   0.00000  Uiso   1.00
C175   C     0.66673   0.29056   0.24985   0.00000  Uiso   1.00
C176   C     0.66669   0.04279   0.24993   0.00000  Uiso   1.00
C177   C     0.84940   0.14109   0.27810   0.00000  Uiso   1.00
C178   C     0.81729   0.19204   0.22164   0.00000  Uiso   1.00
C179   C     0.79998   0.14122   0.27822   0.00000  Uiso   1.00
C180   C     0.86669   0.19205   0.22167   0.00000  Uiso   1.00
C181   C     0.97254   0.16639   0.33603   0.00000  Uiso   1.00
C182   C     0.69428   0.16500   0.16391   0.00000  Uiso   1.00
C183   C     0.95743   0.17024   0.38518   0.00000  Uiso   1.00
C184   C     0.71059   0.16152   0.11440   0.00000  Uiso   1.00
C185   C     0.96442   0.20750   0.45076   0.00000  Uiso   1.00
C186   C     0.69577   0.17021   0.04143   0.00000  Uiso   1.00
C187   C     0.98101   0.19917   0.40479   0.00000  Uiso   1.00
C188   C     0.67908   0.17064   0.08844   0.00000  Uiso   1.00
C189   C     0.91651   0.14930   0.41210   0.00000  Uiso   1.00
C190   C     0.75895   0.15028   0.09271   0.00000  Uiso   1.00
C191   C     0.89469   0.16391   0.45622   0.00000  Uiso   1.00
C192   C     0.77757   0.15781   0.04599   0.00000  Uiso   1.00
C193   C     0.92110   0.19007   0.47712   0.00000  Uiso   1.00
C194   C     0.74509   0.16407   0.01974   0.00000  Uiso   1.00
C195   C     0.84517   0.15766   0.47790   0.00000  Uiso   1.00
C196   C     0.82743   0.16352   0.02483   0.00000  Uiso   1.00
Cu197  Cu    0.71355   0.16667   0.25000   0.00000  Uiso   1.00
Cu198  Cu    0.95311   0.16666   0.25000   0.00000  Uiso   1.00
H199   H     0.97478   0.17760   0.10458   0.00000  Uiso   1.00
H200   H     0.67855   0.21585   0.38398   0.00000  Uiso   1.00
H201   H     0.98388   0.22955   0.46503   0.00000  Uiso   1.00
H202   H     0.67038   0.17559   0.02212   0.00000  Uiso   1.00
H203   H     0.84225   0.19328   0.08210   0.00000  Uiso   1.00
H204   H     0.82457   0.15761   0.41580   0.00000  Uiso   1.00
H205   H     0.92335   0.03727   0.25546   0.00000  Uiso   1.00
H206   H     0.74341   0.29609   0.24427   0.00000  Uiso   1.00
H207   H     0.92340   0.29598   0.25531   0.00000  Uiso   1.00
H208   H     0.74339   0.03740   0.24427   0.00000  Uiso   1.00
N209   N     0.78403   0.16668   0.24999   0.00000  Uiso   1.00
N210   N     0.88264   0.16666   0.25001   0.00000  Uiso   1.00
O211   O     0.70625   0.10655   0.25000   0.00000  Uiso   1.00
O212   O     0.96042   0.22678   0.25000   0.00000  Uiso   1.00
O213   O     0.96039   0.10654   0.25001   0.00000  Uiso   1.00
O214   O     0.70628   0.22679   0.24999   0.00000  Uiso   1.00
O215   O     0.68519   0.16668   0.31491   0.00000  Uiso   1.00
O216   O     0.98148   0.16666   0.18509   0.00000  Uiso   1.00
O217   O     0.93933   0.16667   0.31492   0.00000  Uiso   1.00
O218   O     0.72733   0.16667   0.18508   0.00000  Uiso   1.00
N219   N     0.92640   0.22767   0.04484   0.00000  Uiso   1.00
H220   H     0.92205   0.22021   0.07823   0.00000  Uiso   1.00
C221   C     0.91561   0.27064   0.03970   0.00000  Uiso   1.00
H222   H     0.93832   0.29010   0.05507   0.00000  Uiso   1.00
H223   H     0.87684   0.27693   0.05692   0.00000  Uiso   1.00
H224   H     0.92356   0.27920   0.00348   0.00000  Uiso   1.00
N225   N     0.73734   0.18565   0.44570   0.00000  Uiso   1.00
H226   H     0.74110   0.17127   0.41523   0.00000  Uiso   1.00
C227   C     0.74948   0.22916   0.43969   0.00000  Uiso   1.00
H228   H     0.78889   0.23344   0.42332   0.00000  Uiso   1.00
H229   H     0.73928   0.24495   0.47284   0.00000  Uiso   1.00
H230   H     0.72996   0.24414   0.41778   0.00000  Uiso   1.00
N231   N     0.78642   0.12725   0.11670   0.00000  Uiso   1.00
H232   H     0.82325   0.12626   0.10228   0.00000  Uiso   1.00
C233   C     0.76806   0.08616   0.13018   0.00000  Uiso   1.00
H234   H     0.78957   0.07163   0.15082   0.00000  Uiso   1.00
H235   H     0.77112   0.06695   0.09987   0.00000  Uiso   1.00
H236   H     0.72967   0.08689   0.15085   0.00000  Uiso   1.00
N237   N     0.89858   0.11290   0.39618   0.00000  Uiso   1.00
H238   H     0.91254   0.10677   0.36240   0.00000  Uiso   1.00
C239   C     0.89861   0.07608   0.42290   0.00000  Uiso   1.00
H240   H     0.88359   0.04989   0.40818   0.00000  Uiso   1.00
H241   H     0.87577   0.08004   0.45811   0.00000  Uiso   1.00
H242   H     0.93621   0.06839   0.42295   0.00000  Uiso   1.00
F243   F     0.86366   0.11490   0.30608   0.00000  Uiso   1.00
F244   F     0.80308   0.21769   0.19306   0.00000  Uiso   1.00
F245   F     0.76831   0.11553   0.30668   0.00000  Uiso   1.00
F246   F     0.89840   0.21762   0.19308   0.00000  Uiso   1.00
C247   C     0.33331   0.42078   0.25004   0.00000  Uiso   1.00
C248   C     0.00004   0.57923   0.24993   0.00000  Uiso   1.00
C249   C     0.19019   0.51747   0.04722   0.00000  Uiso   1.00
C250   C     0.14529   0.48956   0.45228   0.00000  Uiso   1.00
C251   C     0.23525   0.53345   0.02308   0.00000  Uiso   1.00
C252   C     0.09673   0.49901   0.47242   0.00000  Uiso   1.00
C253   C     0.29036   0.35462   0.25293   0.00000  Uiso   1.00
C254   C     0.04307   0.64541   0.24678   0.00000  Uiso   1.00
C255   C     0.29039   0.64535   0.25286   0.00000  Uiso   1.00
C256   C     0.04306   0.35469   0.24679   0.00000  Uiso   1.00
C257   C     0.00006   0.62390   0.24985   0.00000  Uiso   1.00
C258   C     0.00002   0.37613   0.24993   0.00000  Uiso   1.00
C259   C     0.18273   0.47443   0.27810   0.00000  Uiso   1.00
C260   C     0.15063   0.52538   0.22164   0.00000  Uiso   1.00
C261   C     0.13332   0.47455   0.27822   0.00000  Uiso   1.00
C262   C     0.20003   0.52538   0.22167   0.00000  Uiso   1.00
C263   C     0.30588   0.49972   0.33603   0.00000  Uiso   1.00
C264   C     0.02761   0.49834   0.16391   0.00000  Uiso   1.00
C265   C     0.29076   0.50358   0.38518   0.00000  Uiso   1.00
C266   C     0.04392   0.49485   0.11440   0.00000  Uiso   1.00
C267   C     0.29775   0.54083   0.45076   0.00000  Uiso   1.00
C268   C     0.02911   0.50354   0.04143   0.00000  Uiso   1.00
C269   C     0.31434   0.53250   0.40479   0.00000  Uiso   1.00
C270   C     0.01241   0.50397   0.08844   0.00000  Uiso   1.00
C271   C     0.24985   0.48264   0.41210   0.00000  Uiso   1.00
C272   C     0.09228   0.48362   0.09271   0.00000  Uiso   1.00
C273   C     0.22802   0.49725   0.45622   0.00000  Uiso   1.00
C274   C     0.11090   0.49114   0.04599   0.00000  Uiso   1.00
C275   C     0.25443   0.52340   0.47712   0.00000  Uiso   1.00
C276   C     0.07842   0.49740   0.01974   0.00000  Uiso   1.00
C277   C     0.17850   0.49099   0.47790   0.00000  Uiso   1.00
C278   C     0.16077   0.49685   0.02483   0.00000  Uiso   1.00
Cu279  Cu    0.04689   0.50001   0.25000   0.00000  Uiso   1.00
Cu280  Cu    0.28645   0.49999   0.25000   0.00000  Uiso   1.00
H281   H     0.30811   0.51093   0.10458   0.00000  Uiso   1.00
H282   H     0.01188   0.54918   0.38398   0.00000  Uiso   1.00
H283   H     0.31721   0.56288   0.46503   0.00000  Uiso   1.00
H284   H     0.00371   0.50892   0.02212   0.00000  Uiso   1.00
H285   H     0.17559   0.52662   0.08210   0.00000  Uiso   1.00
H286   H     0.15791   0.49094   0.41580   0.00000  Uiso   1.00
H287   H     0.25669   0.37060   0.25546   0.00000  Uiso   1.00
H288   H     0.07674   0.62942   0.24427   0.00000  Uiso   1.00
H289   H     0.25674   0.62931   0.25531   0.00000  Uiso   1.00
H290   H     0.07672   0.37073   0.24427   0.00000  Uiso   1.00
N291   N     0.11736   0.50001   0.24999   0.00000  Uiso   1.00
N292   N     0.21597   0.49999   0.25001   0.00000  Uiso   1.00
O293   O     0.03958   0.43989   0.25000   0.00000  Uiso   1.00
O294   O     0.29375   0.56011   0.25000   0.00000  Uiso   1.00
O295   O     0.29372   0.43988   0.25001   0.00000  Uiso   1.00
O296   O     0.03961   0.56012   0.24999   0.00000  Uiso   1.00
O297   O     0.01852   0.50001   0.31491   0.00000  Uiso   1.00
O298   O     0.31481   0.49999   0.18509   0.00000  Uiso   1.00
O299   O     0.27267   0.50000   0.31492   0.00000  Uiso   1.00
O300   O     0.06067   0.50000   0.18508   0.00000  Uiso   1.00
N301   N     0.25974   0.56100   0.04484   0.00000  Uiso   1.00
H302   H     0.25539   0.55355   0.07823   0.00000  Uiso   1.00
C303   C     0.24894   0.60397   0.03970   0.00000  Uiso   1.00
H304   H     0.27165   0.62343   0.05507   0.00000  Uiso   1.00
H305   H     0.21017   0.61026   0.05692   0.00000  Uiso   1.00
H306   H     0.25689   0.61254   0.00348   0.00000  Uiso   1.00
N307   N     0.07067   0.51899   0.44570   0.00000  Uiso   1.00
H308   H     0.07444   0.50460   0.41523   0.00000  Uiso   1.00
C309   C     0.08281   0.56249   0.43969   0.00000  Uiso   1.00
H310   H     0.12222   0.56678   0.42332   0.00000  Uiso   1.00
H311   H     0.07261   0.57828   0.47284   0.00000  Uiso   1.00
H312   H     0.06329   0.57747   0.41778   0.00000  Uiso   1.00
N313   N     0.11975   0.46058   0.11670   0.00000  Uiso   1.00
H314   H     0.15658   0.45960   0.10228   0.00000  Uiso   1.00
C315   C     0.10139   0.41949   0.13018   0.00000  Uiso   1.00
H316   H     0.12291   0.40497   0.15082   0.00000  Uiso   1.00
H317   H     0.10446   0.40029   0.09987   0.00000  Uiso   1.00
H318   H     0.06301   0.42022   0.15085   0.00000  Uiso   1.00
N319   N     0.23191   0.44623   0.39618   0.00000  Uiso   1.00
H320   H     0.24587   0.44010   0.36240   0.00000  Uiso   1.00
C321   C     0.23195   0.40941   0.42290   0.00000  Uiso   1.00
H322   H     0.21693   0.38323   0.40818   0.00000  Uiso   1.00
H323   H     0.20910   0.41338   0.45811   0.00000  Uiso   1.00
H324   H     0.26954   0.40172   0.42295   0.00000  Uiso   1.00
F325   F     0.19700   0.44823   0.30608   0.00000  Uiso   1.00
F326   F     0.13641   0.55102   0.19306   0.00000  Uiso   1.00
F327   F     0.10164   0.44887   0.30668   0.00000  Uiso   1.00
F328   F     0.23173   0.55095   0.19308   0.00000  Uiso   1.00
C329   C     0.66664   0.42078   0.25004   0.00000  Uiso   1.00
C330   C     0.33337   0.57923   0.24993   0.00000  Uiso   1.00
C331   C     0.52353   0.51747   0.04722   0.00000  Uiso   1.00
C332   C     0.47863   0.48956   0.45228   0.00000  Uiso   1.00
C333   C     0.56858   0.53345   0.02308   0.00000  Uiso   1.00
C334   C     0.43007   0.49901   0.47242   0.00000  Uiso   1.00
C335   C     0.62369   0.35462   0.25293   0.00000  Uiso   1.00
C336   C     0.37641   0.64541   0.24678   0.00000  Uiso   1.00
C337   C     0.62372   0.64535   0.25286   0.00000  Uiso   1.00
C338   C     0.37639   0.35469   0.24679   0.00000  Uiso   1.00
C339   C     0.33339   0.62390   0.24985   0.00000  Uiso   1.00
C340   C     0.33335   0.37613   0.24993   0.00000  Uiso   1.00
C341   C     0.51606   0.47443   0.27810   0.00000  Uiso   1.00
C342   C     0.48396   0.52538   0.22164   0.00000  Uiso   1.00
C343   C     0.46665   0.47455   0.27822   0.00000  Uiso   1.00
C344   C     0.53336   0.52538   0.22167   0.00000  Uiso   1.00
C345   C     0.63921   0.49972   0.33603   0.00000  Uiso   1.00
C346   C     0.36095   0.49834   0.16391   0.00000  Uiso   1.00
C347   C     0.62410   0.50358   0.38518   0.00000  Uiso   1.00
C348   C     0.37726   0.49485   0.11440   0.00000  Uiso   1.00
C349   C     0.63109   0.54083   0.45076   0.00000  Uiso   1.00
C350   C     0.36244   0.50354   0.04143   0.00000  Uiso   1.00
C351   C     0.64768   0.53250   0.40479   0.00000  Uiso   1.00
C352   C     0.34575   0.50397   0.08844   0.00000  Uiso   1.00
C353   C     0.58318   0.48264   0.41210   0.00000  Uiso   1.00
C354   C     0.42562   0.48362   0.09271   0.00000  Uiso   1.00
C355   C     0.56135   0.49725   0.45622   0.00000  Uiso   1.00
C356   C     0.44423   0.49114   0.04599   0.00000  Uiso   1.00
C357   C     0.58777   0.52340   0.47712   0.00000  Uiso   1.00
C358   C     0.41176   0.49740   0.01974   0.00000  Uiso   1.00
C359   C     0.51184   0.49099   0.47790   0.00000  Uiso   1.00
C360   C     0.49410   0.49685   0.02483   0.00000  Uiso   1.00
Cu361  Cu    0.38022   0.50001   0.25000   0.00000  Uiso   1.00
Cu362  Cu    0.61978   0.49999   0.25000   0.00000  Uiso   1.00
H363   H     0.64144   0.51093   0.10458   0.00000  Uiso   1.00
H364   H     0.34522   0.54918   0.38398   0.00000  Uiso   1.00
H365   H     0.65054   0.56288   0.46503   0.00000  Uiso   1.00
H366   H     0.33705   0.50892   0.02212   0.00000  Uiso   1.00
H367   H     0.50892   0.52662   0.08210   0.00000  Uiso   1.00
H368   H     0.49124   0.49094   0.41580   0.00000  Uiso   1.00
H369   H     0.59002   0.37060   0.25546   0.00000  Uiso   1.00
H370   H     0.41007   0.62942   0.24427   0.00000  Uiso   1.00
H371   H     0.59007   0.62931   0.25531   0.00000  Uiso   1.00
H372   H     0.41005   0.37073   0.24427   0.00000  Uiso   1.00
N373   N     0.45069   0.50001   0.24999   0.00000  Uiso   1.00
N374   N     0.54931   0.49999   0.25001   0.00000  Uiso   1.00
O375   O     0.37291   0.43989   0.25000   0.00000  Uiso   1.00
O376   O     0.62709   0.56011   0.25000   0.00000  Uiso   1.00
O377   O     0.62706   0.43988   0.25001   0.00000  Uiso   1.00
O378   O     0.37294   0.56012   0.24999   0.00000  Uiso   1.00
O379   O     0.35186   0.50001   0.31491   0.00000  Uiso   1.00
O380   O     0.64814   0.49999   0.18509   0.00000  Uiso   1.00
O381   O     0.60600   0.50000   0.31492   0.00000  Uiso   1.00
O382   O     0.39400   0.50000   0.18508   0.00000  Uiso   1.00
N383   N     0.59307   0.56100   0.04484   0.00000  Uiso   1.00
H384   H     0.58872   0.55355   0.07823   0.00000  Uiso   1.00
C385   C     0.58227   0.60397   0.03970   0.00000  Uiso   1.00
H386   H     0.60499   0.62343   0.05507   0.00000  Uiso   1.00
H387   H     0.54350   0.61026   0.05692   0.00000  Uiso   1.00
H388   H     0.59023   0.61254   0.00348   0.00000  Uiso   1.00
N389   N     0.40401   0.51899   0.44570   0.00000  Uiso   1.00
H390   H     0.40777   0.50460   0.41523   0.00000  Uiso   1.00
C391   C     0.41614   0.56249   0.43969   0.00000  Uiso   1.00
H392   H     0.45555   0.56678   0.42332   0.00000  Uiso   1.00
H393   H     0.40594   0.57828   0.47284   0.00000  Uiso   1.00
H394   H     0.39663   0.57747   0.41778   0.00000  Uiso   1.00
N395   N     0.45309   0.46058   0.11670   0.00000  Uiso   1.00
H396   H     0.48991   0.45960   0.10228   0.00000  Uiso   1.00
C397   C     0.43473   0.41949   0.13018   0.00000  Uiso   1.00
H398   H     0.45624   0.40497   0.15082   0.00000  Uiso   1.00
H399   H     0.43779   0.40029   0.09987   0.00000  Uiso   1.00
H400   H     0.39634   0.42022   0.15085   0.00000  Uiso   1.00
N401   N     0.56525   0.44623   0.39618   0.00000  Uiso   1.00
H402   H     0.57921   0.44010   0.36240   0.00000  Uiso   1.00
C403   C     0.56528   0.40941   0.42290   0.00000  Uiso   1.00
H404   H     0.55026   0.38323   0.40818   0.00000  Uiso   1.00
H405   H     0.54244   0.41338   0.45811   0.00000  Uiso   1.00
H406   H     0.60287   0.40172   0.42295   0.00000  Uiso   1.00
F407   F     0.53033   0.44823   0.30608   0.00000  Uiso   1.00
F408   F     0.46974   0.55102   0.19306   0.00000  Uiso   1.00
F409   F     0.43498   0.44887   0.30668   0.00000  Uiso   1.00
F410   F     0.56507   0.55095   0.19308   0.00000  Uiso   1.00
C411   C     0.99998   0.42078   0.25004   0.00000  Uiso   1.00
C412   C     0.66670   0.57923   0.24993   0.00000  Uiso   1.00
C413   C     0.85686   0.51747   0.04722   0.00000  Uiso   1.00
C414   C     0.81196   0.48956   0.45228   0.00000  Uiso   1.00
C415   C     0.90191   0.53345   0.02308   0.00000  Uiso   1.00
C416   C     0.76340   0.49901   0.47242   0.00000  Uiso   1.00
C417   C     0.95703   0.35462   0.25293   0.00000  Uiso   1.00
C418   C     0.70974   0.64541   0.24678   0.00000  Uiso   1.00
C419   C     0.95705   0.64535   0.25286   0.00000  Uiso   1.00
C420   C     0.70972   0.35469   0.24679   0.00000  Uiso   1.00
C421   C     0.66673   0.62390   0.24985   0.00000  Uiso   1.00
C422   C     0.66669   0.37613   0.24993   0.00000  Uiso   1.00
C423   C     0.84940   0.47443   0.27810   0.00000  Uiso   1.00
C424   C     0.81729   0.52538   0.22164   0.00000  Uiso   1.00
C425   C     0.79998   0.47455   0.27822   0.00000  Uiso   1.00
C426   C     0.86669   0.52538   0.22167   0.00000  Uiso   1.00
C427   C     0.97254   0.49972   0.33603   0.00000  Uiso   1.00
C428   C     0.69428   0.49834   0.16391   0.00000  Uiso   1.00
C429   C     0.95743   0.50358   0.38518   0.00000  Uiso   1.00
C430   C     0.71059   0.49485   0.11440   0.00000  Uiso   1.00
C431   C     0.96442   0.54083   0.45076   0.00000  Uiso   1.00
C432   C     0.69577   0.50354   0.04143   0.00000  Uiso   1.00
C433   C     0.98101   0.53250   0.40479   0.00000  Uiso   1.00
C434   C     0.67908   0.50397   0.08844   0.00000  Uiso   1.00
C435   C     0.91651   0.48264   0.41210   0.00000  Uiso   1.00
C436   C     0.75895   0.48362   0.09271   0.00000  Uiso   1.00
C437   C     0.89469   0.49725   0.45622   0.00000  Uiso   1.00
C438   C     0.77757   0.49114   0.04599   0.00000  Uiso   1.00
C439   C     0.92110   0.52340   0.47712   0.00000  Uiso   1.00
C440   C     0.74509   0.49740   0.01974   0.00000  Uiso   1.00
C441   C     0.84517   0.49099   0.47790   0.00000  Uiso   1.00
C442   C     0.82743   0.49685   0.02483   0.00000  Uiso   1.00
Cu443  Cu    0.71355   0.50001   0.25000   0.00000  Uiso   1.00
Cu444  Cu    0.95311   0.49999   0.25000   0.00000  Uiso   1.00
H445   H     0.97478   0.51093   0.10458   0.00000  Uiso   1.00
H446   H     0.67855   0.54918   0.38398   0.00000  Uiso   1.00
H447   H     0.98388   0.56288   0.46503   0.00000  Uiso   1.00
H448   H     0.67038   0.50892   0.02212   0.00000  Uiso   1.00
H449   H     0.84225   0.52662   0.08210   0.00000  Uiso   1.00
H450   H     0.82457   0.49094   0.41580   0.00000  Uiso   1.00
H451   H     0.92335   0.37060   0.25546   0.00000  Uiso   1.00
H452   H     0.74341   0.62942   0.24427   0.00000  Uiso   1.00
H453   H     0.92340   0.62931   0.25531   0.00000  Uiso   1.00
H454   H     0.74339   0.37073   0.24427   0.00000  Uiso   1.00
N455   N     0.78403   0.50001   0.24999   0.00000  Uiso   1.00
N456   N     0.88264   0.49999   0.25001   0.00000  Uiso   1.00
O457   O     0.70625   0.43989   0.25000   0.00000  Uiso   1.00
O458   O     0.96042   0.56011   0.25000   0.00000  Uiso   1.00
O459   O     0.96039   0.43988   0.25001   0.00000  Uiso   1.00
O460   O     0.70628   0.56012   0.24999   0.00000  Uiso   1.00
O461   O     0.68519   0.50001   0.31491   0.00000  Uiso   1.00
O462   O     0.98148   0.49999   0.18509   0.00000  Uiso   1.00
O463   O     0.93933   0.50000   0.31492   0.00000  Uiso   1.00
O464   O     0.72733   0.50000   0.18508   0.00000  Uiso   1.00
N465   N     0.92640   0.56100   0.04484   0.00000  Uiso   1.00
H466   H     0.92205   0.55355   0.07823   0.00000  Uiso   1.00
C467   C     0.91561   0.60397   0.03970   0.00000  Uiso   1.00
H468   H     0.93832   0.62343   0.05507   0.00000  Uiso   1.00
H469   H     0.87684   0.61026   0.05692   0.00000  Uiso   1.00
H470   H     0.92356   0.61254   0.00348   0.00000  Uiso   1.00
N471   N     0.73734   0.51899   0.44570   0.00000  Uiso   1.00
H472   H     0.74110   0.50460   0.41523   0.00000  Uiso   1.00
C473   C     0.74948   0.56249   0.43969   0.00000  Uiso   1.00
H474   H     0.78889   0.56678   0.42332   0.00000  Uiso   1.00
H475   H     0.73928   0.57828   0.47284   0.00000  Uiso   1.00
H476   H     0.72996   0.57747   0.41778   0.00000  Uiso   1.00
N477   N     0.78642   0.46058   0.11670   0.00000  Uiso   1.00
H478   H     0.82325   0.45960   0.10228   0.00000  Uiso   1.00
C479   C     0.76806   0.41949   0.13018   0.00000  Uiso   1.00
H480   H     0.78957   0.40497   0.15082   0.00000  Uiso   1.00
H481   H     0.77112   0.40029   0.09987   0.00000  Uiso   1.00
H482   H     0.72967   0.42022   0.15085   0.00000  Uiso   1.00
N483   N     0.89858   0.44623   0.39618   0.00000  Uiso   1.00
H484   H     0.91254   0.44010   0.36240   0.00000  Uiso   1.00
C485   C     0.89861   0.40941   0.42290   0.00000  Uiso   1.00
H486   H     0.88359   0.38323   0.40818   0.00000  Uiso   1.00
H487   H     0.87577   0.41338   0.45811   0.00000  Uiso   1.00
H488   H     0.93621   0.40172   0.42295   0.00000  Uiso   1.00
F489   F     0.86366   0.44823   0.30608   0.00000  Uiso   1.00
F490   F     0.80308   0.55102   0.19306   0.00000  Uiso   1.00
F491   F     0.76831   0.44887   0.30668   0.00000  Uiso   1.00
F492   F     0.89840   0.55095   0.19308   0.00000  Uiso   1.00
C493   C     0.33331   0.75411   0.25004   0.00000  Uiso   1.00
C494   C     0.00004   0.91256   0.24993   0.00000  Uiso   1.00
C495   C     0.19019   0.85080   0.04722   0.00000  Uiso   1.00
C496   C     0.14529   0.82289   0.45228   0.00000  Uiso   1.00
C497   C     0.23525   0.86679   0.02308   0.00000  Uiso   1.00
C498   C     0.09673   0.83234   0.47242   0.00000  Uiso   1.00
C499   C     0.29036   0.68795   0.25293   0.00000  Uiso   1.00
C500   C     0.04307   0.97874   0.24678   0.00000  Uiso   1.00
C501   C     0.29039   0.97868   0.25286   0.00000  Uiso   1.00
C502   C     0.04306   0.68802   0.24679   0.00000  Uiso   1.00
C503   C     0.00006   0.95723   0.24985   0.00000  Uiso   1.00
C504   C     0.00002   0.70946   0.24993   0.00000  Uiso   1.00
C505   C     0.18273   0.80776   0.27810   0.00000  Uiso   1.00
C506   C     0.15063   0.85871   0.22164   0.00000  Uiso   1.00
C507   C     0.13332   0.80788   0.27822   0.00000  Uiso   1.00
C508   C     0.20003   0.85871   0.22167   0.00000  Uiso   1.00
C509   C     0.30588   0.83305   0.33603   0.00000  Uiso   1.00
C510   C     0.02761   0.83167   0.16391   0.00000  Uiso   1.00
C511   C     0.29076   0.83691   0.38518   0.00000  Uiso   1.00
C512   C     0.04392   0.82819   0.11440   0.00000  Uiso   1.00
C513   C     0.29775   0.87417   0.45076   0.00000  Uiso   1.00
C514   C     0.02911   0.83688   0.04143   0.00000  Uiso   1.00
C515   C     0.31434   0.86583   0.40479   0.00000  Uiso   1.00
C516   C     0.01241   0.83730   0.08844   0.00000  Uiso   1.00
C517   C     0.24985   0.81597   0.41210   0.00000  Uiso   1.00
C518   C     0.09228   0.81695   0.09271   0.00000  Uiso   1.00
C519   C     0.22802   0.83058   0.45622   0.00000  Uiso   1.00
C520   C     0.11090   0.82448   0.04599   0.00000  Uiso   1.00
C521   C     0.25443   0.85674   0.47712   0.00000  Uiso   1.00
C522   C     0.07842   0.83074   0.01974   0.00000  Uiso   1.00
C523   C     0.17850   0.82433   0.47790   0.00000  Uiso   1.00
C524   C     0.16077   0.83019   0.02483   0.00000  Uiso   1.00
Cu525  Cu    0.04689   0.83334   0.25000   0.00000  Uiso   1.00
Cu526  Cu    0.28645   0.83333   0.25000   0.00000  Uiso   1.00
H527   H     0.30811   0.84426   0.10458   0.00000  Uiso   1.00
H528   H     0.01188   0.88251   0.38398   0.00000  Uiso   1.00
H529   H     0.31721   0.89621   0.46503   0.00000  Uiso   1.00
H530   H     0.00371   0.84226   0.02212   0.00000  Uiso   1.00
H531   H     0.17559   0.85995   0.08210   0.00000  Uiso   1.00
H532   H     0.15791   0.82427   0.41580   0.00000  Uiso   1.00
H533   H     0.25669   0.70394   0.25546   0.00000  Uiso   1.00
H534   H     0.07674   0.96276   0.24427   0.00000  Uiso   1.00
H535   H     0.25674   0.96264   0.25531   0.00000  Uiso   1.00
H536   H     0.07672   0.70407   0.24427   0.00000  Uiso   1.00
N537   N     0.11736   0.83334   0.24999   0.00000  Uiso   1.00
N538   N     0.21597   0.83332   0.25001   0.00000  Uiso   1.00
O539   O     0.03958   0.77322   0.25000   0.00000  Uiso   1.00
O540   O     0.29375   0.89345   0.25000   0.00000  Uiso   1.00
O541   O     0.29372   0.77321   0.25001   0.00000  Uiso   1.00
O542   O     0.03961   0.89346   0.24999   0.00000  Uiso   1.00
O543   O     0.01852   0.83334   0.31491   0.00000  Uiso   1.00
O544   O     0.31481   0.83332   0.18509   0.00000  Uiso   1.00
O545   O     0.27267   0.83333   0.31492   0.00000  Uiso   1.00
O546   O     0.06067   0.83333   0.18508   0.00000  Uiso   1.00
N547   N     0.25974   0.89434   0.04484   0.00000  Uiso   1.00
H548   H     0.25539   0.88688   0.07823   0.00000  Uiso   1.00
C549   C     0.24894   0.93731   0.03970   0.00000  Uiso   1.00
H550   H     0.27165   0.95676   0.05507   0.00000  Uiso   1.00
H551   H     0.21017   0.94359   0.05692   0.00000  Uiso   1.00
H552   H     0.25689   0.94587   0.00348   0.00000  Uiso   1.00
N553   N     0.07067   0.85232   0.44570   0.00000  Uiso   1.00
H554   H     0.07444   0.83794   0.41523   0.00000  Uiso   1.00
C555   C     0.08281   0.89582   0.43969   0.00000  Uiso   1.00
H556   H     0.12222   0.90011   0.42332   0.00000  Uiso   1.00
H557   H     0.07261   0.91162   0.47284   0.00000  Uiso   1.00
H558   H     0.06329   0.91081   0.41778   0.00000  Uiso   1.00
N559   N     0.11975   0.79392   0.11670   0.00000  Uiso   1.00
H560   H     0.15658   0.79293   0.10228   0.00000  Uiso   1.00
C561   C     0.10139   0.75282   0.13018   0.00000  Uiso   1.00
H562   H     0.12291   0.73830   0.15082   0.00000  Uiso   1.00
H563   H     0.10446   0.73362   0.09987   0.00000  Uiso   1.00
H564   H     0.06301   0.75356   0.15085   0.00000  Uiso   1.00
N565   N     0.23191   0.77957   0.39618   0.00000  Uiso   1.00
H566   H     0.24587   0.77343   0.36240   0.00000  Uiso   1.00
C567   C     0.23195   0.74275   0.42290   0.00000  Uiso   1.00
H568   H     0.21693   0.71656   0.40818   0.00000  Uiso   1.00
H569   H     0.20910   0.74671   0.45811   0.00000  Uiso   1.00
H570   H     0.26954   0.73505   0.42295   0.00000  Uiso   1.00
F571   F     0.19700   0.78156   0.30608   0.00000  Uiso   1.00
F572   F     0.13641   0.88436   0.19306   0.00000  Uiso   1.00
F573   F     0.10164   0.78220   0.30668   0.00000  Uiso   1.00
F574   F     0.23173   0.88428   0.19308   0.00000  Uiso   1.00
C575   C     0.66664   0.75411   0.25004   0.00000  Uiso   1.00
C576   C     0.33337   0.91256   0.24993   0.00000  Uiso   1.00
C577   C     0.52353   0.85080   0.04722   0.00000  Uiso   1.00
C578   C     0.47863   0.82289   0.45228   0.00000  Uiso   1.00
C579   C     0.56858   0.86679   0.02308   0.00000  Uiso   1.00
C580   C     0.43007   0.83234   0.47242   0.00000  Uiso   1.00
C581   C     0.62369   0.68795   0.25293   0.00000  Uiso   1.00
C582   C     0.37641   0.97874   0.24678   0.00000  Uiso   1.00
C583   C     0.62372   0.97868   0.25286   0.00000  Uiso   1.00
C584   C     0.37639   0.68802   0.24679   0.00000  Uiso   1.00
C585   C     0.33339   0.95723   0.24985   0.00000  Uiso   1.00
C586   C     0.33335   0.70946   0.24993   0.00000  Uiso   1.00
C587   C     0.51606   0.80776   0.27810   0.00000  Uiso   1.00
C588   C     0.48396   0.85871   0.22164   0.00000  Uiso   1.00
C589   C     0.46665   0.80788   0.27822   0.00000  Uiso   1.00
C590   C     0.53336   0.85871   0.22167   0.00000  Uiso   1.00
C591   C     0.63921   0.83305   0.33603   0.00000  Uiso   1.00
C592   C     0.36095   0.83167   0.16391   0.00000  Uiso   1.00
C593   C     0.62410   0.83691   0.38518   0.00000  Uiso   1.00
C594   C     0.37726   0.82819   0.11440   0.00000  Uiso   1.00
C595   C     0.63109   0.87417   0.45076   0.00000  Uiso   1.00
C596   C     0.36244   0.83688   0.04143   0.00000  Uiso   1.00
C597   C     0.64768   0.86583   0.40479   0.00000  Uiso   1.00
C598   C     0.34575   0.83730   0.08844   0.00000  Uiso   1.00
C599   C     0.58318   0.81597   0.41210   0.00000  Uiso   1.00
C600   C     0.42562   0.81695   0.09271   0.00000  Uiso   1.00
C601   C     0.56135   0.83058   0.45622   0.00000  Uiso   1.00
C602   C     0.44423   0.82448   0.04599   0.00000  Uiso   1.00
C603   C     0.58777   0.85674   0.47712   0.00000  Uiso   1.00
C604   C     0.41176   0.83074   0.01974   0.00000  Uiso   1.00
C605   C     0.51184   0.82433   0.47790   0.00000  Uiso   1.00
C606   C     0.49410   0.83019   0.02483   0.00000  Uiso   1.00
Cu607  Cu    0.38022   0.83334   0.25000   0.00000  Uiso   1.00
Cu608  Cu    0.61978   0.83333   0.25000   0.00000  Uiso   1.00
H609   H     0.64144   0.84426   0.10458   0.00000  Uiso   1.00
H610   H     0.34522   0.88251   0.38398   0.00000  Uiso   1.00
H611   H     0.65054   0.89621   0.46503   0.00000  Uiso   1.00
H612   H     0.33705   0.84226   0.02212   0.00000  Uiso   1.00
H613   H     0.50892   0.85995   0.08210   0.00000  Uiso   1.00
H614   H     0.49124   0.82427   0.41580   0.00000  Uiso   1.00
H615   H     0.59002   0.70394   0.25546   0.00000  Uiso   1.00
H616   H     0.41007   0.96276   0.24427   0.00000  Uiso   1.00
H617   H     0.59007   0.96264   0.25531   0.00000  Uiso   1.00
H618   H     0.41005   0.70407   0.24427   0.00000  Uiso   1.00
N619   N     0.45069   0.83334   0.24999   0.00000  Uiso   1.00
N620   N     0.54931   0.83332   0.25001   0.00000  Uiso   1.00
O621   O     0.37291   0.77322   0.25000   0.00000  Uiso   1.00
O622   O     0.62709   0.89345   0.25000   0.00000  Uiso   1.00
O623   O     0.62706   0.77321   0.25001   0.00000  Uiso   1.00
O624   O     0.37294   0.89346   0.24999   0.00000  Uiso   1.00
O625   O     0.35186   0.83334   0.31491   0.00000  Uiso   1.00
O626   O     0.64814   0.83332   0.18509   0.00000  Uiso   1.00
O627   O     0.60600   0.83333   0.31492   0.00000  Uiso   1.00
O628   O     0.39400   0.83333   0.18508   0.00000  Uiso   1.00
N629   N     0.59307   0.89434   0.04484   0.00000  Uiso   1.00
H630   H     0.58872   0.88688   0.07823   0.00000  Uiso   1.00
C631   C     0.58227   0.93731   0.03970   0.00000  Uiso   1.00
H632   H     0.60499   0.95676   0.05507   0.00000  Uiso   1.00
H633   H     0.54350   0.94359   0.05692   0.00000  Uiso   1.00
H634   H     0.59023   0.94587   0.00348   0.00000  Uiso   1.00
N635   N     0.40401   0.85232   0.44570   0.00000  Uiso   1.00
H636   H     0.40777   0.83794   0.41523   0.00000  Uiso   1.00
C637   C     0.41614   0.89582   0.43969   0.00000  Uiso   1.00
H638   H     0.45555   0.90011   0.42332   0.00000  Uiso   1.00
H639   H     0.40594   0.91162   0.47284   0.00000  Uiso   1.00
H640   H     0.39663   0.91081   0.41778   0.00000  Uiso   1.00
N641   N     0.45309   0.79392   0.11670   0.00000  Uiso   1.00
H642   H     0.48991   0.79293   0.10228   0.00000  Uiso   1.00
C643   C     0.43473   0.75282   0.13018   0.00000  Uiso   1.00
H644   H     0.45624   0.73830   0.15082   0.00000  Uiso   1.00
H645   H     0.43779   0.73362   0.09987   0.00000  Uiso   1.00
H646   H     0.39634   0.75356   0.15085   0.00000  Uiso   1.00
N647   N     0.56525   0.77957   0.39618   0.00000  Uiso   1.00
H648   H     0.57921   0.77343   0.36240   0.00000  Uiso   1.00
C649   C     0.56528   0.74275   0.42290   0.00000  Uiso   1.00
H650   H     0.55026   0.71656   0.40818   0.00000  Uiso   1.00
H651   H     0.54244   0.74671   0.45811   0.00000  Uiso   1.00
H652   H     0.60287   0.73505   0.42295   0.00000  Uiso   1.00
F653   F     0.53033   0.78156   0.30608   0.00000  Uiso   1.00
F654   F     0.46974   0.88436   0.19306   0.00000  Uiso   1.00
F655   F     0.43498   0.78220   0.30668   0.00000  Uiso   1.00
F656   F     0.56507   0.88428   0.19308   0.00000  Uiso   1.00
C657   C     0.99998   0.75411   0.25004   0.00000  Uiso   1.00
C658   C     0.66670   0.91256   0.24993   0.00000  Uiso   1.00
C659   C     0.85686   0.85080   0.04722   0.00000  Uiso   1.00
C660   C     0.81196   0.82289   0.45228   0.00000  Uiso   1.00
C661   C     0.90191   0.86679   0.02308   0.00000  Uiso   1.00
C662   C     0.76340   0.83234   0.47242   0.00000  Uiso   1.00
C663   C     0.95703   0.68795   0.25293   0.00000  Uiso   1.00
C664   C     0.70974   0.97874   0.24678   0.00000  Uiso   1.00
C665   C     0.95705   0.97868   0.25286   0.00000  Uiso   1.00
C666   C     0.70972   0.68802   0.24679   0.00000  Uiso   1.00
C667   C     0.66673   0.95723   0.24985   0.00000  Uiso   1.00
C668   C     0.66669   0.70946   0.24993   0.00000  Uiso   1.00
C669   C     0.84940   0.80776   0.27810   0.00000  Uiso   1.00
C670   C     0.81729   0.85871   0.22164   0.00000  Uiso   1.00
C671   C     0.79998   0.80788   0.27822   0.00000  Uiso   1.00
C672   C     0.86669   0.85871   0.22167   0.00000  Uiso   1.00
C673   C     0.97254   0.83305   0.33603   0.00000  Uiso   1.00
C674   C     0.69428   0.83167   0.16391   0.00000  Uiso   1.00
C675   C     0.95743   0.83691   0.38518   0.00000  Uiso   1.00
C676   C     0.71059   0.82819   0.11440   0.00000  Uiso   1.00
C677   C     0.96442   0.87417   0.45076   0.00000  Uiso   1.00
C678   C     0.69577   0.83688   0.04143   0.00000  Uiso   1.00
C679   C     0.98101   0.86583   0.40479   0.00000  Uiso   1.00
C680   C     0.67908   0.83730   0.08844   0.00000  Uiso   1.00
C681   C     0.91651   0.81597   0.41210   0.00000  Uiso   1.00
C682   C     0.75895   0.81695   0.09271   0.00000  Uiso   1.00
C683   C     0.89469   0.83058   0.45622   0.00000  Uiso   1.00
C684   C     0.77757   0.82448   0.04599   0.00000  Uiso   1.00
C685   C     0.92110   0.85674   0.47712   0.00000  Uiso   1.00
C686   C     0.74509   0.83074   0.01974   0.00000  Uiso   1.00
C687   C     0.84517   0.82433   0.47790   0.00000  Uiso   1.00
C688   C     0.82743   0.83019   0.02483   0.00000  Uiso   1.00
Cu689  Cu    0.71355   0.83334   0.25000   0.00000  Uiso   1.00
Cu690  Cu    0.95311   0.83333   0.25000   0.00000  Uiso   1.00
H691   H     0.97478   0.84426   0.10458   0.00000  Uiso   1.00
H692   H     0.67855   0.88251   0.38398   0.00000  Uiso   1.00
H693   H     0.98388   0.89621   0.46503   0.00000  Uiso   1.00
H694   H     0.67038   0.84226   0.02212   0.00000  Uiso   1.00
H695   H     0.84225   0.85995   0.08210   0.00000  Uiso   1.00
H696   H     0.82457   0.82427   0.41580   0.00000  Uiso   1.00
H697   H     0.92335   0.70394   0.25546   0.00000  Uiso   1.00
H698   H     0.74341   0.96276   0.24427   0.00000  Uiso   1.00
H699   H     0.92340   0.96264   0.25531   0.00000  Uiso   1.00
H700   H     0.74339   0.70407   0.24427   0.00000  Uiso   1.00
N701   N     0.78403   0.83334   0.24999   0.00000  Uiso   1.00
N702   N     0.88264   0.83332   0.25001   0.00000  Uiso   1.00
O703   O     0.70625   0.77322   0.25000   0.00000  Uiso   1.00
O704   O     0.96042   0.89345   0.25000   0.00000  Uiso   1.00
O705   O     0.96039   0.77321   0.25001   0.00000  Uiso   1.00
O706   O     0.70628   0.89346   0.24999   0.00000  Uiso   1.00
O707   O     0.68519   0.83334   0.31491   0.00000  Uiso   1.00
O708   O     0.98148   0.83332   0.18509   0.00000  Uiso   1.00
O709   O     0.93933   0.83333   0.31492   0.00000  Uiso   1.00
O710   O     0.72733   0.83333   0.18508   0.00000  Uiso   1.00
N711   N     0.92640   0.89434   0.04484   0.00000  Uiso   1.00
H712   H     0.92205   0.88688   0.07823   0.00000  Uiso   1.00
C713   C     0.91561   0.93731   0.03970   0.00000  Uiso   1.00
H714   H     0.93832   0.95676   0.05507   0.00000  Uiso   1.00
H715   H     0.87684   0.94359   0.05692   0.00000  Uiso   1.00
H716   H     0.92356   0.94587   0.00348   0.00000  Uiso   1.00
N717   N     0.73734   0.85232   0.44570   0.00000  Uiso   1.00
H718   H     0.74110   0.83794   0.41523   0.00000  Uiso   1.00
C719   C     0.74948   0.89582   0.43969   0.00000  Uiso   1.00
H720   H     0.78889   0.90011   0.42332   0.00000  Uiso   1.00
H721   H     0.73928   0.91162   0.47284   0.00000  Uiso   1.00
H722   H     0.72996   0.91081   0.41778   0.00000  Uiso   1.00
N723   N     0.78642   0.79392   0.11670   0.00000  Uiso   1.00
H724   H     0.82325   0.79293   0.10228   0.00000  Uiso   1.00
C725   C     0.76806   0.75282   0.13018   0.00000  Uiso   1.00
H726   H     0.78957   0.73830   0.15082   0.00000  Uiso   1.00
H727   H     0.77112   0.73362   0.09987   0.00000  Uiso   1.00
H728   H     0.72967   0.75356   0.15085   0.00000  Uiso   1.00
N729   N     0.89858   0.77957   0.39618   0.00000  Uiso   1.00
H730   H     0.91254   0.77343   0.36240   0.00000  Uiso   1.00
C731   C     0.89861   0.74275   0.42290   0.00000  Uiso   1.00
H732   H     0.88359   0.71656   0.40818   0.00000  Uiso   1.00
H733   H     0.87577   0.74671   0.45811   0.00000  Uiso   1.00
H734   H     0.93621   0.73505   0.42295   0.00000  Uiso   1.00
F735   F     0.86366   0.78156   0.30608   0.00000  Uiso   1.00
F736   F     0.80308   0.88436   0.19306   0.00000  Uiso   1.00
F737   F     0.76831   0.78220   0.30668   0.00000  Uiso   1.00
F738   F     0.89840   0.88428   0.19308   0.00000  Uiso   1.00
C739   C     0.33331   0.08744   0.75004   0.00000  Uiso   1.00
C740   C     0.00004   0.24590   0.74993   0.00000  Uiso   1.00
C741   C     0.19019   0.18414   0.54722   0.00000  Uiso   1.00
C742   C     0.14529   0.15623   0.95228   0.00000  Uiso   1.00
C743   C     0.23525   0.20012   0.52308   0.00000  Uiso   1.00
C744   C     0.09673   0.16568   0.97242   0.00000  Uiso   1.00
C745   C     0.29036   0.02128   0.75293   0.00000  Uiso   1.00
C746   C     0.04307   0.31208   0.74678   0.00000  Uiso   1.00
C747   C     0.29039   0.31201   0.75286   0.00000  Uiso   1.00
C748   C     0.04306   0.02135   0.74679   0.00000  Uiso   1.00
C749   C     0.00006   0.29056   0.74985   0.00000  Uiso   1.00
C750   C     0.00002   0.04279   0.74993   0.00000  Uiso   1.00
C751   C     0.18273   0.14109   0.77810   0.00000  Uiso   1.00
C752   C     0.15063   0.19204   0.72164   0.00000  Uiso   1.00
C753   C     0.13332   0.14122   0.77822   0.00000  Uiso   1.00
C754   C     0.20003   0.19205   0.72167   0.00000  Uiso   1.00
C755   C     0.30588   0.16639   0.83603   0.00000  Uiso   1.00
C756   C     0.02761   0.16500   0.66391   0.00000  Uiso   1.00
C757   C     0.29076   0.17024   0.88518   0.00000  Uiso   1.00
C758   C     0.04392   0.16152   0.61440   0.00000  Uiso   1.00
C759   C     0.29775   0.20750   0.95076   0.00000  Uiso   1.00
C760   C     0.02911   0.17021   0.54143   0.00000  Uiso   1.00
C761   C     0.31434   0.19917   0.90479   0.00000  Uiso   1.00
C762   C     0.01241   0.17064   0.58844   0.00000  Uiso   1.00
C763   C     0.24985   0.14930   0.91210   0.00000  Uiso   1.00
C764   C     0.09228   0.15028   0.59271   0.00000  Uiso   1.00
C765   C     0.22802   0.16391   0.95622   0.00000  Uiso   1.00
C766   C     0.11090   0.15781   0.54599   0.00000  Uiso   1.00
C767   C     0.25443   0.19007   0.97712   0.00000  Uiso   1.00
C768   C     0.07842   0.16407   0.51974   0.00000  Uiso   1.00
C769   C     0.17850   0.15766   0.97790   0.00000  Uiso   1.00
C770   C     0.16077   0.16352   0.52483   0.00000  Uiso   1.00
Cu771  Cu    0.04689   0.16667   0.75000   0.00000  Uiso   1.00
Cu772  Cu    0.28645   0.16666   0.75000   0.00000  Uiso   1.00
H773   H     0.30811   0.17760   0.60458   0.00000  Uiso   1.00
H774   H     0.01188   0.21585   0.88398   0.00000  Uiso   1.00
H775   H     0.31721   0.22955   0.96503   0.00000  Uiso   1.00
H776   H     0.00371   0.17559   0.52212   0.00000  Uiso   1.00
H777   H     0.17559   0.19328   0.58210   0.00000  Uiso   1.00
H778   H     0.15791   0.15761   0.91580   0.00000  Uiso   1.00
H779   H     0.25669   0.03727   0.75546   0.00000  Uiso   1.00
H780   H     0.07674   0.29609   0.74427   0.00000  Uiso   1.00
H781   H     0.25674   0.29598   0.75531   0.00000  Uiso   1.00
H782   H     0.07672   0.03740   0.74427   0.00000  Uiso   1.00
N783   N     0.11736   0.16668   0.74999   0.00000  Uiso   1.00
N784   N     0.21597   0.16666   0.75001   0.00000  Uiso   1.00
O785   O     0.03958   0.10655   0.75000   0.00000  Uiso   1.00
O786   O     0.29375   0.22678   0.75000   0.00000  Uiso   1.00
O787   O     0.29372   0.10654   0.75001   0.00000  Uiso   1.00
O788   O     0.03961   0.22679   0.74999   0.00000  Uiso   1.00
O789   O     0.01852   0.16668   0.81491   0.00000  Uiso   1.00
O790   O     0.31481   0.16666   0.68509   0.00000  Uiso   1.00
O791   O     0.27267   0.16667   0.81492   0.00000  Uiso   1.00
O792   O     0.06067   0.16667   0.68508   0.00000  Uiso   1.00
N793   N     0.25974   0.22767   0.54484   0.00000  Uiso   1.00
H794   H     0.25539   0.22021   0.57823   0.00000  Uiso   1.00
C795   C     0.24894   0.27064   0.53970   0.00000  Uiso   1.00
H796   H     0.27165   0.29010   0.55507   0.00000  Uiso   1.00
H797   H     0.21017   0.27693   0.55692   0.00000  Uiso   1.00
H798   H     0.25689   0.27920   0.50348   0.00000  Uiso   1.00
N799   N     0.07067   0.18565   0.94570   0.00000  Uiso   1.00
H800   H     0.07444   0.17127   0.91523   0.00000  Uiso   1.00
C801   C     0.08281   0.22916   0.93969   0.00000  Uiso   1.00
H802   H     0.12222   0.23344   0.92332   0.00000  Uiso   1.00
H803   H     0.07261   0.24495   0.97284   0.00000  Uiso   1.00
H804   H     0.06329   0.24414   0.91778   0.00000  Uiso   1.00
N805   N     0.11975   0.12725   0.61670   0.00000  Uiso   1.00
H806   H     0.15658   0.12626   0.60228   0.00000  Uiso   1.00
C807   C     0.10139   0.08616   0.63018   0.00000  Uiso   1.00
H808   H     0.12291   0.07163   0.65082   0.00000  Uiso   1.00
H809   H     0.10446   0.06695   0.59987   0.00000  Uiso   1.00
H810   H     0.06301   0.08689   0.65085   0.00000  Uiso   1.00
N811   N     0.23191   0.11290   0.89618   0.00000  Uiso   1.00
H812   H     0.24587   0.10677   0.86240   0.00000  Uiso   1.00
C813   C     0.23195   0.07608   0.92290   0.00000  Uiso   1.00
H814   H     0.21693   0.04989   0.90818   0.00000  Uiso   1.00
H815   H     0.20910   0.08004   0.95811   0.00000  Uiso   1.00
H816   H     0.26954   0.06839   0.92295   0.00000  Uiso   1.00
F817   F     0.19700   0.11490   0.80608   0.00000  Uiso   1.00
F818   F     0.13641   0.21769   0.69306   0.00000  Uiso   1.00
F819   F     0.10164   0.11553   0.80668   0.00000  Uiso   1.00
F820   F     0.23173   0.21762   0.69308   0.00000  Uiso   1.00
C821   C     0.66664   0.08744   0.75004   0.00000  Uiso   1.00
C822   C     0.33337   0.24590   0.74993   0.00000  Uiso   1.00
C823   C     0.52353   0.18414   0.54722   0.00000  Uiso   1.00
C824   C     0.47863   0.15623   0.95228   0.00000  Uiso   1.00
C825   C     0.56858   0.20012   0.52308   0.00000  Uiso   1.00
C826   C     0.43007   0.16568   0.97242   0.00000  Uiso   1.00
C827   C     0.62369   0.02128   0.75293   0.00000  Uiso   1.00
C828   C     0.37641   0.31208   0.74678   0.00000  Uiso   1.00
C829   C     0.62372   0.31201   0.75286   0.00000  Uiso   1.00
C830   C     0.37639   0.02135   0.74679   0.00000  Uiso   1.00
C831   C     0.33339   0.29056   0.74985   0.00000  Uiso   1.00
C832   C     0.33335   0.04279   0.74993   0.00000  Uiso   1.00
C833   C     0.51606   0.14109   0.77810   0.00000  Uiso   1.00
C834   C     0.48396   0.19204   0.72164   0.00000  Uiso   1.00
C835   C     0.46665   0.14122   0.77822   0.00000  Uiso   1.00
C836   C     0.53336   0.19205   0.72167   0.00000  Uiso   1.00
C837   C     0.63921   0.16639   0.83603   0.00000  Uiso   1.00
C838   C     0.36095   0.16500   0.66391   0.00000  Uiso   1.00
C839   C     0.62410   0.17024   0.88518   0.00000  Uiso   1.00
C840   C     0.37726   0.16152   0.61440   0.00000  Uiso   1.00
C841   C     0.63109   0.20750   0.95076   0.00000  Uiso   1.00
C842   C     0.36244   0.17021   0.54143   0.00000  Uiso   1.00
C843   C     0.64768   0.19917   0.90479   0.00000  Uiso   1.00
C844   C     0.34575   0.17064   0.58844   0.00000  Uiso   1.00
C845   C     0.58318   0.14930   0.91210   0.00000  Uiso   1.00
C846   C     0.42562   0.15028   0.59271   0.00000  Uiso   1.00
C847   C     0.56135   0.16391   0.95622   0.00000  Uiso   1.00
C848   C     0.44423   0.15781   0.54599   0.00000  Uiso   1.00
C849   C     0.58777   0.19007   0.97712   0.00000  Uiso   1.00
C850   C     0.41176   0.16407   0.51974   0.00000  Uiso   1.00
C851   C     0.51184   0.15766   0.97790   0.00000  Uiso   1.00
C852   C     0.49410   0.16352   0.52483   0.00000  Uiso   1.00
Cu853  Cu    0.38022   0.16667   0.75000   0.00000  Uiso   1.00
Cu854  Cu    0.61978   0.16666   0.75000   0.00000  Uiso   1.00
H855   H     0.64144   0.17760   0.60458   0.00000  Uiso   1.00
H856   H     0.34522   0.21585   0.88398   0.00000  Uiso   1.00
H857   H     0.65054   0.22955   0.96503   0.00000  Uiso   1.00
H858   H     0.33705   0.17559   0.52212   0.00000  Uiso   1.00
H859   H     0.50892   0.19328   0.58210   0.00000  Uiso   1.00
H860   H     0.49124   0.15761   0.91580   0.00000  Uiso   1.00
H861   H     0.59002   0.03727   0.75546   0.00000  Uiso   1.00
H862   H     0.41007   0.29609   0.74427   0.00000  Uiso   1.00
H863   H     0.59007   0.29598   0.75531   0.00000  Uiso   1.00
H864   H     0.41005   0.03740   0.74427   0.00000  Uiso   1.00
N865   N     0.45069   0.16668   0.74999   0.00000  Uiso   1.00
N866   N     0.54931   0.16666   0.75001   0.00000  Uiso   1.00
O867   O     0.37291   0.10655   0.75000   0.00000  Uiso   1.00
O868   O     0.62709   0.22678   0.75000   0.00000  Uiso   1.00
O869   O     0.62706   0.10654   0.75001   0.00000  Uiso   1.00
O870   O     0.37294   0.22679   0.74999   0.00000  Uiso   1.00
O871   O     0.35186   0.16668   0.81491   0.00000  Uiso   1.00
O872   O     0.64814   0.16666   0.68509   0.00000  Uiso   1.00
O873   O     0.60600   0.16667   0.81492   0.00000  Uiso   1.00
O874   O     0.39400   0.16667   0.68508   0.00000  Uiso   1.00
N875   N     0.59307   0.22767   0.54484   0.00000  Uiso   1.00
H876   H     0.58872   0.22021   0.57823   0.00000  Uiso   1.00
C877   C     0.58227   0.27064   0.53970   0.00000  Uiso   1.00
H878   H     0.60499   0.29010   0.55507   0.00000  Uiso   1.00
H879   H     0.54350   0.27693   0.55692   0.00000  Uiso   1.00
H880   H     0.59023   0.27920   0.50348   0.00000  Uiso   1.00
N881   N     0.40401   0.18565   0.94570   0.00000  Uiso   1.00
H882   H     0.40777   0.17127   0.91523   0.00000  Uiso   1.00
C883   C     0.41614   0.22916   0.93969   0.00000  Uiso   1.00
H884   H     0.45555   0.23344   0.92332   0.00000  Uiso   1.00
H885   H     0.40594   0.24495   0.97284   0.00000  Uiso   1.00
H886   H     0.39663   0.24414   0.91778   0.00000  Uiso   1.00
N887   N     0.45309   0.12725   0.61670   0.00000  Uiso   1.00
H888   H     0.48991   0.12626   0.60228   0.00000  Uiso   1.00
C889   C     0.43473   0.08616   0.63018   0.00000  Uiso   1.00
H890   H     0.45624   0.07163   0.65082   0.00000  Uiso   1.00
H891   H     0.43779   0.06695   0.59987   0.00000  Uiso   1.00
H892   H     0.39634   0.08689   0.65085   0.00000  Uiso   1.00
N893   N     0.56525   0.11290   0.89618   0.00000  Uiso   1.00
H894   H     0.57921   0.10677   0.86240   0.00000  Uiso   1.00
C895   C     0.56528   0.07608   0.92290   0.00000  Uiso   1.00
H896   H     0.55026   0.04989   0.90818   0.00000  Uiso   1.00
H897   H     0.54244   0.08004   0.95811   0.00000  Uiso   1.00
H898   H     0.60287   0.06839   0.92295   0.00000  Uiso   1.00
F899   F     0.53033   0.11490   0.80608   0.00000  Uiso   1.00
F900   F     0.46974   0.21769   0.69306   0.00000  Uiso   1.00
F901   F     0.43498   0.11553   0.80668   0.00000  Uiso   1.00
F902   F     0.56507   0.21762   0.69308   0.00000  Uiso   1.00
C903   C     0.99998   0.08744   0.75004   0.00000  Uiso   1.00
C904   C     0.66670   0.24590   0.74993   0.00000  Uiso   1.00
C905   C     0.85686   0.18414   0.54722   0.00000  Uiso   1.00
C906   C     0.81196   0.15623   0.95228   0.00000  Uiso   1.00
C907   C     0.90191   0.20012   0.52308   0.00000  Uiso   1.00
C908   C     0.76340   0.16568   0.97242   0.00000  Uiso   1.00
C909   C     0.95703   0.02128   0.75293   0.00000  Uiso   1.00
C910   C     0.70974   0.31208   0.74678   0.00000  Uiso   1.00
C911   C     0.95705   0.31201   0.75286   0.00000  Uiso   1.00
C912   C     0.70972   0.02135   0.74679   0.00000  Uiso   1.00
C913   C     0.66673   0.29056   0.74985   0.00000  Uiso   1.00
C914   C     0.66669   0.04279   0.74993   0.00000  Uiso   1.00
C915   C     0.84940   0.14109   0.77810   0.00000  Uiso   1.00
C916   C     0.81729   0.19204   0.72164   0.00000  Uiso   1.00
C917   C     0.79998   0.14122   0.77822   0.00000  Uiso   1.00
C918   C     0.86669   0.19205   0.72167   0.00000  Uiso   1.00
C919   C     0.97254   0.16639   0.83603   0.00000  Uiso   1.00
C920   C     0.69428   0.16500   0.66391   0.00000  Uiso   1.00
C921   C     0.95743   0.17024   0.88518   0.00000  Uiso   1.00
C922   C     0.71059   0.16152   0.61440   0.00000  Uiso   1.00
C923   C     0.96442   0.20750   0.95076   0.00000  Uiso   1.00
C924   C     0.69577   0.17021   0.54143   0.00000  Uiso   1.00
C925   C     0.98101   0.19917   0.90479   0.00000  Uiso   1.00
C926   C     0.67908   0.17064   0.58844   0.00000  Uiso   1.00
C927   C     0.91651   0.14930   0.91210   0.00000  Uiso   1.00
C928   C     0.75895   0.15028   0.59271   0.00000  Uiso   1.00
C929   C     0.89469   0.16391   0.95622   0.00000  Uiso   1.00
C930   C     0.77757   0.15781   0.54599   0.00000  Uiso   1.00
C931   C     0.92110   0.19007   0.97712   0.00000  Uiso   1.00
C932   C     0.74509   0.16407   0.51974   0.00000  Uiso   1.00
C933   C     0.84517   0.15766   0.97790   0.00000  Uiso   1.00
C934   C     0.82743   0.16352   0.52483   0.00000  Uiso   1.00
Cu935  Cu    0.71355   0.16667   0.75000   0.00000  Uiso   1.00
Cu936  Cu    0.95311   0.16666   0.75000   0.00000  Uiso   1.00
H937   H     0.97478   0.17760   0.60458   0.00000  Uiso   1.00
H938   H     0.67855   0.21585   0.88398   0.00000  Uiso   1.00
H939   H     0.98388   0.22955   0.96503   0.00000  Uiso   1.00
H940   H     0.67038   0.17559   0.52212   0.00000  Uiso   1.00
H941   H     0.84225   0.19328   0.58210   0.00000  Uiso   1.00
H942   H     0.82457   0.15761   0.91580   0.00000  Uiso   1.00
H943   H     0.92335   0.03727   0.75546   0.00000  Uiso   1.00
H944   H     0.74341   0.29609   0.74427   0.00000  Uiso   1.00
H945   H     0.92340   0.29598   0.75531   0.00000  Uiso   1.00
H946   H     0.74339   0.03740   0.74427   0.00000  Uiso   1.00
N947   N     0.78403   0.16668   0.74999   0.00000  Uiso   1.00
N948   N     0.88264   0.16666   0.75001   0.00000  Uiso   1.00
O949   O     0.70625   0.10655   0.75000   0.00000  Uiso   1.00
O950   O     0.96042   0.22678   0.75000   0.00000  Uiso   1.00
O951   O     0.96039   0.10654   0.75001   0.00000  Uiso   1.00
O952   O     0.70628   0.22679   0.74999   0.00000  Uiso   1.00
O953   O     0.68519   0.16668   0.81491   0.00000  Uiso   1.00
O954   O     0.98148   0.16666   0.68509   0.00000  Uiso   1.00
O955   O     0.93933   0.16667   0.81492   0.00000  Uiso   1.00
O956   O     0.72733   0.16667   0.68508   0.00000  Uiso   1.00
N957   N     0.92640   0.22767   0.54484   0.00000  Uiso   1.00
H958   H     0.92205   0.22021   0.57823   0.00000  Uiso   1.00
C959   C     0.91561   0.27064   0.53970   0.00000  Uiso   1.00
H960   H     0.93832   0.29010   0.55507   0.00000  Uiso   1.00
H961   H     0.87684   0.27693   0.55692   0.00000  Uiso   1.00
H962   H     0.92356   0.27920   0.50348   0.00000  Uiso   1.00
N963   N     0.73734   0.18565   0.94570   0.00000  Uiso   1.00
H964   H     0.74110   0.17127   0.91523   0.00000  Uiso   1.00
C965   C     0.74948   0.22916   0.93969   0.00000  Uiso   1.00
H966   H     0.78889   0.23344   0.92332   0.00000  Uiso   1.00
H967   H     0.73928   0.24495   0.97284   0.00000  Uiso   1.00
H968   H     0.72996   0.24414   0.91778   0.00000  Uiso   1.00
N969   N     0.78642   0.12725   0.61670   0.00000  Uiso   1.00
H970   H     0.82325   0.12626   0.60228   0.00000  Uiso   1.00
C971   C     0.76806   0.08616   0.63018   0.00000  Uiso   1.00
H972   H     0.78957   0.07163   0.65082   0.00000  Uiso   1.00
H973   H     0.77112   0.06695   0.59987   0.00000  Uiso   1.00
H974   H     0.72967   0.08689   0.65085   0.00000  Uiso   1.00
N975   N     0.89858   0.11290   0.89618   0.00000  Uiso   1.00
H976   H     0.91254   0.10677   0.86240   0.00000  Uiso   1.00
C977   C     0.89861   0.07608   0.92290   0.00000  Uiso   1.00
H978   H     0.88359   0.04989   0.90818   0.00000  Uiso   1.00
H979   H     0.87577   0.08004   0.95811   0.00000  Uiso   1.00
H980   H     0.93621   0.06839   0.92295   0.00000  Uiso   1.00
F981   F     0.86366   0.11490   0.80608   0.00000  Uiso   1.00
F982   F     0.80308   0.21769   0.69306   0.00000  Uiso   1.00
F983   F     0.76831   0.11553   0.80668   0.00000  Uiso   1.00
F984   F     0.89840   0.21762   0.69308   0.00000  Uiso   1.00
C985   C     0.33331   0.42078   0.75004   0.00000  Uiso   1.00
C986   C     0.00004   0.57923   0.74993   0.00000  Uiso   1.00
C987   C     0.19019   0.51747   0.54722   0.00000  Uiso   1.00
C988   C     0.14529   0.48956   0.95228   0.00000  Uiso   1.00
C989   C     0.23525   0.53345   0.52308   0.00000  Uiso   1.00
C990   C     0.09673   0.49901   0.97242   0.00000  Uiso   1.00
C991   C     0.29036   0.35462   0.75293   0.00000  Uiso   1.00
C992   C     0.04307   0.64541   0.74678   0.00000  Uiso   1.00
C993   C     0.29039   0.64535   0.75286   0.00000  Uiso   1.00
C994   C     0.04306   0.35469   0.74679   0.00000  Uiso   1.00
C995   C     0.00006   0.62390   0.74985   0.00000  Uiso   1.00
C996   C     0.00002   0.37613   0.74993   0.00000  Uiso   1.00
C997   C     0.18273   0.47443   0.77810   0.00000  Uiso   1.00
C998   C     0.15063   0.52538   0.72164   0.00000  Uiso   1.00
C999   C     0.13332   0.47455   0.77822   0.00000  Uiso   1.00
C1000  C     0.20003   0.52538   0.72167   0.00000  Uiso   1.00
C1001  C     0.30588   0.49972   0.83603   0.00000  Uiso   1.00
C1002  C     0.02761   0.49834   0.66391   0.00000  Uiso   1.00
C1003  C     0.29076   0.50358   0.88518   0.00000  Uiso   1.00
C1004  C     0.04392   0.49485   0.61440   0.00000  Uiso   1.00
C1005  C     0.29775   0.54083   0.95076   0.00000  Uiso   1.00
C1006  C     0.02911   0.50354   0.54143   0.00000  Uiso   1.00
C1007  C     0.31434   0.53250   0.90479   0.00000  Uiso   1.00
C1008  C     0.01241   0.50397   0.58844   0.00000  Uiso   1.00
C1009  C     0.24985   0.48264   0.91210   0.00000  Uiso   1.00
C1010  C     0.09228   0.48362   0.59271   0.00000  Uiso   1.00
C1011  C     0.22802   0.49725   0.95622   0.00000  Uiso   1.00
C1012  C     0.11090   0.49114   0.54599   0.00000  Uiso   1.00
C1013  C     0.25443   0.52340   0.97712   0.00000  Uiso   1.00
C1014  C     0.07842   0.49740   0.51974   0.00000  Uiso   1.00
C1015  C     0.17850   0.49099   0.97790   0.00000  Uiso   1.00
C1016  C     0.16077   0.49685   0.52483   0.00000  Uiso   1.00
Cu1017 Cu    0.04689   0.50001   0.75000   0.00000  Uiso   1.00
Cu1018 Cu    0.28645   0.49999   0.75000   0.00000  Uiso   1.00
H1019  H     0.30811   0.51093   0.60458   0.00000  Uiso   1.00
H1020  H     0.01188   0.54918   0.88398   0.00000  Uiso   1.00
H1021  H     0.31721   0.56288   0.96503   0.00000  Uiso   1.00
H1022  H     0.00371   0.50892   0.52212   0.00000  Uiso   1.00
H1023  H     0.17559   0.52662   0.58210   0.00000  Uiso   1.00
H1024  H     0.15791   0.49094   0.91580   0.00000  Uiso   1.00
H1025  H     0.25669   0.37060   0.75546   0.00000  Uiso   1.00
H1026  H     0.07674   0.62942   0.74427   0.00000  Uiso   1.00
H1027  H     0.25674   0.62931   0.75531   0.00000  Uiso   1.00
H1028  H     0.07672   0.37073   0.74427   0.00000  Uiso   1.00
N1029  N     0.11736   0.50001   0.74999   0.00000  Uiso   1.00
N1030  N     0.21597   0.49999   0.75001   0.00000  Uiso   1.00
O1031  O     0.03958   0.43989   0.75000   0.00000  Uiso   1.00
O1032  O     0.29375   0.56011   0.75000   0.00000  Uiso   1.00
O1033  O     0.29372   0.43988   0.75001   0.00000  Uiso   1.00
O1034  O     0.03961   0.56012   0.74999   0.00000  Uiso   1.00
O1035  O     0.01852   0.50001   0.81491   0.00000  Uiso   1.00
O1036  O     0.31481   0.49999   0.68509   0.00000  Uiso   1.00
O1037  O     0.27267   0.50000   0.81492   0.00000  Uiso   1.00
O1038  O     0.06067   0.50000   0.68508   0.00000  Uiso   1.00
N1039  N     0.25974   0.56100   0.54484   0.00000  Uiso   1.00
H1040  H     0.25539   0.55355   0.57823   0.00000  Uiso   1.00
C1041  C     0.24894   0.60397   0.53970   0.00000  Uiso   1.00
H1042  H     0.27165   0.62343   0.55507   0.00000  Uiso   1.00
H1043  H     0.21017   0.61026   0.55692   0.00000  Uiso   1.00
H1044  H     0.25689   0.61254   0.50348   0.00000  Uiso   1.00
N1045  N     0.07067   0.51899   0.94570   0.00000  Uiso   1.00
H1046  H     0.07444   0.50460   0.91523   0.00000  Uiso   1.00
C1047  C     0.08281   0.56249   0.93969   0.00000  Uiso   1.00
H1048  H     0.12222   0.56678   0.92332   0.00000  Uiso   1.00
H1049  H     0.07261   0.57828   0.97284   0.00000  Uiso   1.00
H1050  H     0.06329   0.57747   0.91778   0.00000  Uiso   1.00
N1051  N     0.11975   0.46058   0.61670   0.00000  Uiso   1.00
H1052  H     0.15658   0.45960   0.60228   0.00000  Uiso   1.00
C1053  C     0.10139   0.41949   0.63018   0.00000  Uiso   1.00
H1054  H     0.12291   0.40497   0.65082   0.00000  Uiso   1.00
H1055  H     0.10446   0.40029   0.59987   0.00000  Uiso   1.00
H1056  H     0.06301   0.42022   0.65085   0.00000  Uiso   1.00
N1057  N     0.23191   0.44623   0.89618   0.00000  Uiso   1.00
H1058  H     0.24587   0.44010   0.86240   0.00000  Uiso   1.00
C1059  C     0.23195   0.40941   0.92290   0.00000  Uiso   1.00
H1060  H     0.21693   0.38323   0.90818   0.00000  Uiso   1.00
H1061  H     0.20910   0.41338   0.95811   0.00000  Uiso   1.00
H1062  H     0.26954   0.40172   0.92295   0.00000  Uiso   1.00
F1063  F     0.19700   0.44823   0.80608   0.00000  Uiso   1.00
F1064  F     0.13641   0.55102   0.69306   0.00000  Uiso   1.00
F1065  F     0.10164   0.44887   0.80668   0.00000  Uiso   1.00
F1066  F     0.23173   0.55095   0.69308   0.00000  Uiso   1.00
C1067  C     0.66664   0.42078   0.75004   0.00000  Uiso   1.00
C1068  C     0.33337   0.57923   0.74993   0.00000  Uiso   1.00
C1069  C     0.52353   0.51747   0.54722   0.00000  Uiso   1.00
C1070  C     0.47863   0.48956   0.95228   0.00000  Uiso   1.00
C1071  C     0.56858   0.53345   0.52308   0.00000  Uiso   1.00
C1072  C     0.43007   0.49901   0.97242   0.00000  Uiso   1.00
C1073  C     0.62369   0.35462   0.75293   0.00000  Uiso   1.00
C1074  C     0.37641   0.64541   0.74678   0.00000  Uiso   1.00
C1075  C     0.62372   0.64535   0.75286   0.00000  Uiso   1.00
C1076  C     0.37639   0.35469   0.74679   0.00000  Uiso   1.00
C1077  C     0.33339   0.62390   0.74985   0.00000  Uiso   1.00
C1078  C     0.33335   0.37613   0.74993   0.00000  Uiso   1.00
C1079  C     0.51606   0.47443   0.77810   0.00000  Uiso   1.00
C1080  C     0.48396   0.52538   0.72164   0.00000  Uiso   1.00
C1081  C     0.46665   0.47455   0.77822   0.00000  Uiso   1.00
C1082  C     0.53336   0.52538   0.72167   0.00000  Uiso   1.00
C1083  C     0.63921   0.49972   0.83603   0.00000  Uiso   1.00
C1084  C     0.36095   0.49834   0.66391   0.00000  Uiso   1.00
C1085  C     0.62410   0.50358   0.88518   0.00000  Uiso   1.00
C1086  C     0.37726   0.49485   0.61440   0.00000  Uiso   1.00
C1087  C     0.63109   0.54083   0.95076   0.00000  Uiso   1.00
C1088  C     0.36244   0.50354   0.54143   0.00000  Uiso   1.00
C1089  C     0.64768   0.53250   0.90479   0.00000  Uiso   1.00
C1090  C     0.34575   0.50397   0.58844   0.00000  Uiso   1.00
C1091  C     0.58318   0.48264   0.91210   0.00000  Uiso   1.00
C1092  C     0.42562   0.48362   0.59271   0.00000  Uiso   1.00
C1093  C     0.56135   0.49725   0.95622   0.00000  Uiso   1.00
C1094  C     0.44423   0.49114   0.54599   0.00000  Uiso   1.00
C1095  C     0.58777   0.52340   0.97712   0.00000  Uiso   1.00
C1096  C     0.41176   0.49740   0.51974   0.00000  Uiso   1.00
C1097  C     0.51184   0.49099   0.97790   0.00000  Uiso   1.00
C1098  C     0.49410   0.49685   0.52483   0.00000  Uiso   1.00
Cu1099 Cu    0.38022   0.50001   0.75000   0.00000  Uiso   1.00
Cu1100 Cu    0.61978   0.49999   0.75000   0.00000  Uiso   1.00
H1101  H     0.64144   0.51093   0.60458   0.00000  Uiso   1.00
H1102  H     0.34522   0.54918   0.88398   0.00000  Uiso   1.00
H1103  H     0.65054   0.56288   0.96503   0.00000  Uiso   1.00
H1104  H     0.33705   0.50892   0.52212   0.00000  Uiso   1.00
H1105  H     0.50892   0.52662   0.58210   0.00000  Uiso   1.00
H1106  H     0.49124   0.49094   0.91580   0.00000  Uiso   1.00
H1107  H     0.59002   0.37060   0.75546   0.00000  Uiso   1.00
H1108  H     0.41007   0.62942   0.74427   0.00000  Uiso   1.00
H1109  H     0.59007   0.62931   0.75531   0.00000  Uiso   1.00
H1110  H     0.41005   0.37073   0.74427   0.00000  Uiso   1.00
N1111  N     0.45069   0.50001   0.74999   0.00000  Uiso   1.00
N1112  N     0.54931   0.49999   0.75001   0.00000  Uiso   1.00
O1113  O     0.37291   0.43989   0.75000   0.00000  Uiso   1.00
O1114  O     0.62709   0.56011   0.75000   0.00000  Uiso   1.00
O1115  O     0.62706   0.43988   0.75001   0.00000  Uiso   1.00
O1116  O     0.37294   0.56012   0.74999   0.00000  Uiso   1.00
O1117  O     0.35186   0.50001   0.81491   0.00000  Uiso   1.00
O1118  O     0.64814   0.49999   0.68509   0.00000  Uiso   1.00
O1119  O     0.60600   0.50000   0.81492   0.00000  Uiso   1.00
O1120  O     0.39400   0.50000   0.68508   0.00000  Uiso   1.00
N1121  N     0.59307   0.56100   0.54484   0.00000  Uiso   1.00
H1122  H     0.58872   0.55355   0.57823   0.00000  Uiso   1.00
C1123  C     0.58227   0.60397   0.53970   0.00000  Uiso   1.00
H1124  H     0.60499   0.62343   0.55507   0.00000  Uiso   1.00
H1125  H     0.54350   0.61026   0.55692   0.00000  Uiso   1.00
H1126  H     0.59023   0.61254   0.50348   0.00000  Uiso   1.00
N1127  N     0.40401   0.51899   0.94570   0.00000  Uiso   1.00
H1128  H     0.40777   0.50460   0.91523   0.00000  Uiso   1.00
C1129  C     0.41614   0.56249   0.93969   0.00000  Uiso   1.00
H1130  H     0.45555   0.56678   0.92332   0.00000  Uiso   1.00
H1131  H     0.40594   0.57828   0.97284   0.00000  Uiso   1.00
H1132  H     0.39663   0.57747   0.91778   0.00000  Uiso   1.00
N1133  N     0.45309   0.46058   0.61670   0.00000  Uiso   1.00
H1134  H     0.48991   0.45960   0.60228   0.00000  Uiso   1.00
C1135  C     0.43473   0.41949   0.63018   0.00000  Uiso   1.00
H1136  H     0.45624   0.40497   0.65082   0.00000  Uiso   1.00
H1137  H     0.43779   0.40029   0.59987   0.00000  Uiso   1.00
H1138  H     0.39634   0.42022   0.65085   0.00000  Uiso   1.00
N1139  N     0.56525   0.44623   0.89618   0.00000  Uiso   1.00
H1140  H     0.57921   0.44010   0.86240   0.00000  Uiso   1.00
C1141  C     0.56528   0.40941   0.92290   0.00000  Uiso   1.00
H1142  H     0.55026   0.38323   0.90818   0.00000  Uiso   1.00
H1143  H     0.54244   0.41338   0.95811   0.00000  Uiso   1.00
H1144  H     0.60287   0.40172   0.92295   0.00000  Uiso   1.00
F1145  F     0.53033   0.44823   0.80608   0.00000  Uiso   1.00
F1146  F     0.46974   0.55102   0.69306   0.00000  Uiso   1.00
F1147  F     0.43498   0.44887   0.80668   0.00000  Uiso   1.00
F1148  F     0.56507   0.55095   0.69308   0.00000  Uiso   1.00
C1149  C     0.99998   0.42078   0.75004   0.00000  Uiso   1.00
C1150  C     0.66670   0.57923   0.74993   0.00000  Uiso   1.00
C1151  C     0.85686   0.51747   0.54722   0.00000  Uiso   1.00
C1152  C     0.81196   0.48956   0.95228   0.00000  Uiso   1.00
C1153  C     0.90191   0.53345   0.52308   0.00000  Uiso   1.00
C1154  C     0.76340   0.49901   0.97242   0.00000  Uiso   1.00
C1155  C     0.95703   0.35462   0.75293   0.00000  Uiso   1.00
C1156  C     0.70974   0.64541   0.74678   0.00000  Uiso   1.00
C1157  C     0.95705   0.64535   0.75286   0.00000  Uiso   1.00
C1158  C     0.70972   0.35469   0.74679   0.00000  Uiso   1.00
C1159  C     0.66673   0.62390   0.74985   0.00000  Uiso   1.00
C1160  C     0.66669   0.37613   0.74993   0.00000  Uiso   1.00
C1161  C     0.84940   0.47443   0.77810   0.00000  Uiso   1.00
C1162  C     0.81729   0.52538   0.72164   0.00000  Uiso   1.00
C1163  C     0.79998   0.47455   0.77822   0.00000  Uiso   1.00
C1164  C     0.86669   0.52538   0.72167   0.00000  Uiso   1.00
C1165  C     0.97254   0.49972   0.83603   0.00000  Uiso   1.00
C1166  C     0.69428   0.49834   0.66391   0.00000  Uiso   1.00
C1167  C     0.95743   0.50358   0.88518   0.00000  Uiso   1.00
C1168  C     0.71059   0.49485   0.61440   0.00000  Uiso   1.00
C1169  C     0.96442   0.54083   0.95076   0.00000  Uiso   1.00
C1170  C     0.69577   0.50354   0.54143   0.00000  Uiso   1.00
C1171  C     0.98101   0.53250   0.90479   0.00000  Uiso   1.00
C1172  C     0.67908   0.50397   0.58844   0.00000  Uiso   1.00
C1173  C     0.91651   0.48264   0.91210   0.00000  Uiso   1.00
C1174  C     0.75895   0.48362   0.59271   0.00000  Uiso   1.00
C1175  C     0.89469   0.49725   0.95622   0.00000  Uiso   1.00
C1176  C     0.77757   0.49114   0.54599   0.00000  Uiso   1.00
C1177  C     0.92110   0.52340   0.97712   0.00000  Uiso   1.00
C1178  C     0.74509   0.49740   0.51974   0.00000  Uiso   1.00
C1179  C     0.84517   0.49099   0.97790   0.00000  Uiso   1.00
C1180  C     0.82743   0.49685   0.52483   0.00000  Uiso   1.00
Cu1181 Cu    0.71355   0.50001   0.75000   0.00000  Uiso   1.00
Cu1182 Cu    0.95311   0.49999   0.75000   0.00000  Uiso   1.00
H1183  H     0.97478   0.51093   0.60458   0.00000  Uiso   1.00
H1184  H     0.67855   0.54918   0.88398   0.00000  Uiso   1.00
H1185  H     0.98388   0.56288   0.96503   0.00000  Uiso   1.00
H1186  H     0.67038   0.50892   0.52212   0.00000  Uiso   1.00
H1187  H     0.84225   0.52662   0.58210   0.00000  Uiso   1.00
H1188  H     0.82457   0.49094   0.91580   0.00000  Uiso   1.00
H1189  H     0.92335   0.37060   0.75546   0.00000  Uiso   1.00
H1190  H     0.74341   0.62942   0.74427   0.00000  Uiso   1.00
H1191  H     0.92340   0.62931   0.75531   0.00000  Uiso   1.00
H1192  H     0.74339   0.37073   0.74427   0.00000  Uiso   1.00
N1193  N     0.78403   0.50001   0.74999   0.00000  Uiso   1.00
N1194  N     0.88264   0.49999   0.75001   0.00000  Uiso   1.00
O1195  O     0.70625   0.43989   0.75000   0.00000  Uiso   1.00
O1196  O     0.96042   0.56011   0.75000   0.00000  Uiso   1.00
O1197  O     0.96039   0.43988   0.75001   0.00000  Uiso   1.00
O1198  O     0.70628   0.56012   0.74999   0.00000  Uiso   1.00
O1199  O     0.68519   0.50001   0.81491   0.00000  Uiso   1.00
O1200  O     0.98148   0.49999   0.68509   0.00000  Uiso   1.00
O1201  O     0.93933   0.50000   0.81492   0.00000  Uiso   1.00
O1202  O     0.72733   0.50000   0.68508   0.00000  Uiso   1.00
N1203  N     0.92640   0.56100   0.54484   0.00000  Uiso   1.00
H1204  H     0.92205   0.55355   0.57823   0.00000  Uiso   1.00
C1205  C     0.91561   0.60397   0.53970   0.00000  Uiso   1.00
H1206  H     0.93832   0.62343   0.55507   0.00000  Uiso   1.00
H1207  H     0.87684   0.61026   0.55692   0.00000  Uiso   1.00
H1208  H     0.92356   0.61254   0.50348   0.00000  Uiso   1.00
N1209  N     0.73734   0.51899   0.94570   0.00000  Uiso   1.00
H1210  H     0.74110   0.50460   0.91523   0.00000  Uiso   1.00
C1211  C     0.74948   0.56249   0.93969   0.00000  Uiso   1.00
H1212  H     0.78889   0.56678   0.92332   0.00000  Uiso   1.00
H1213  H     0.73928   0.57828   0.97284   0.00000  Uiso   1.00
H1214  H     0.72996   0.57747   0.91778   0.00000  Uiso   1.00
N1215  N     0.78642   0.46058   0.61670   0.00000  Uiso   1.00
H1216  H     0.82325   0.45960   0.60228   0.00000  Uiso   1.00
C1217  C     0.76806   0.41949   0.63018   0.00000  Uiso   1.00
H1218  H     0.78957   0.40497   0.65082   0.00000  Uiso   1.00
H1219  H     0.77112   0.40029   0.59987   0.00000  Uiso   1.00
H1220  H     0.72967   0.42022   0.65085   0.00000  Uiso   1.00
N1221  N     0.89858   0.44623   0.89618   0.00000  Uiso   1.00
H1222  H     0.91254   0.44010   0.86240   0.00000  Uiso   1.00
C1223  C     0.89861   0.40941   0.92290   0.00000  Uiso   1.00
H1224  H     0.88359   0.38323   0.90818   0.00000  Uiso   1.00
H1225  H     0.87577   0.41338   0.95811   0.00000  Uiso   1.00
H1226  H     0.93621   0.40172   0.92295   0.00000  Uiso   1.00
F1227  F     0.86366   0.44823   0.80608   0.00000  Uiso   1.00
F1228  F     0.80308   0.55102   0.69306   0.00000  Uiso   1.00
F1229  F     0.76831   0.44887   0.80668   0.00000  Uiso   1.00
F1230  F     0.89840   0.55095   0.69308   0.00000  Uiso   1.00
C1231  C     0.33331   0.75411   0.75004   0.00000  Uiso   1.00
C1232  C     0.00004   0.91256   0.74993   0.00000  Uiso   1.00
C1233  C     0.19019   0.85080   0.54722   0.00000  Uiso   1.00
C1234  C     0.14529   0.82289   0.95228   0.00000  Uiso   1.00
C1235  C     0.23525   0.86679   0.52308   0.00000  Uiso   1.00
C1236  C     0.09673   0.83234   0.97242   0.00000  Uiso   1.00
C1237  C     0.29036   0.68795   0.75293   0.00000  Uiso   1.00
C1238  C     0.04307   0.97874   0.74678   0.00000  Uiso   1.00
C1239  C     0.29039   0.97868   0.75286   0.00000  Uiso   1.00
C1240  C     0.04306   0.68802   0.74679   0.00000  Uiso   1.00
C1241  C     0.00006   0.95723   0.74985   0.00000  Uiso   1.00
C1242  C     0.00002   0.70946   0.74993   0.00000  Uiso   1.00
C1243  C     0.18273   0.80776   0.77810   0.00000  Uiso   1.00
C1244  C     0.15063   0.85871   0.72164   0.00000  Uiso   1.00
C1245  C     0.13332   0.80788   0.77822   0.00000  Uiso   1.00
C1246  C     0.20003   0.85871   0.72167   0.00000  Uiso   1.00
C1247  C     0.30588   0.83305   0.83603   0.00000  Uiso   1.00
C1248  C     0.02761   0.83167   0.66391   0.00000  Uiso   1.00
C1249  C     0.29076   0.83691   0.88518   0.00000  Uiso   1.00
C1250  C     0.04392   0.82819   0.61440   0.00000  Uiso   1.00
C1251  C     0.29775   0.87417   0.95076   0.00000  Uiso   1.00
C1252  C     0.02911   0.83688   0.54143   0.00000  Uiso   1.00
C1253  C     0.31434   0.86583   0.90479   0.00000  Uiso   1.00
C1254  C     0.01241   0.83730   0.58844   0.00000  Uiso   1.00
C1255  C     0.24985   0.81597   0.91210   0.00000  Uiso   1.00
C1256  C     0.09228   0.81695   0.59271   0.00000  Uiso   1.00
C1257  C     0.22802   0.83058   0.95622   0.00000  Uiso   1.00
C1258  C     0.11090   0.82448   0.54599   0.00000  Uiso   1.00
C1259  C     0.25443   0.85674   0.97712   0.00000  Uiso   1.00
C1260  C     0.07842   0.83074   0.51974   0.00000  Uiso   1.00
C1261  C     0.17850   0.82433   0.97790   0.00000  Uiso   1.00
C1262  C     0.16077   0.83019   0.52483   0.00000  Uiso   1.00
Cu1263 Cu    0.04689   0.83334   0.75000   0.00000  Uiso   1.00
Cu1264 Cu    0.28645   0.83333   0.75000   0.00000  Uiso   1.00
H1265  H     0.30811   0.84426   0.60458   0.00000  Uiso   1.00
H1266  H     0.01188   0.88251   0.88398   0.00000  Uiso   1.00
H1267  H     0.31721   0.89621   0.96503   0.00000  Uiso   1.00
H1268  H     0.00371   0.84226   0.52212   0.00000  Uiso   1.00
H1269  H     0.17559   0.85995   0.58210   0.00000  Uiso   1.00
H1270  H     0.15791   0.82427   0.91580   0.00000  Uiso   1.00
H1271  H     0.25669   0.70394   0.75546   0.00000  Uiso   1.00
H1272  H     0.07674   0.96276   0.74427   0.00000  Uiso   1.00
H1273  H     0.25674   0.96264   0.75531   0.00000  Uiso   1.00
H1274  H     0.07672   0.70407   0.74427   0.00000  Uiso   1.00
N1275  N     0.11736   0.83334   0.74999   0.00000  Uiso   1.00
N1276  N     0.21597   0.83332   0.75001   0.00000  Uiso   1.00
O1277  O     0.03958   0.77322   0.75000   0.00000  Uiso   1.00
O1278  O     0.29375   0.89345   0.75000   0.00000  Uiso   1.00
O1279  O     0.29372   0.77321   0.75001   0.00000  Uiso   1.00
O1280  O     0.03961   0.89346   0.74999   0.00000  Uiso   1.00
O1281  O     0.01852   0.83334   0.81491   0.00000  Uiso   1.00
O1282  O     0.31481   0.83332   0.68509   0.00000  Uiso   1.00
O1283  O     0.27267   0.83333   0.81492   0.00000  Uiso   1.00
O1284  O     0.06067   0.83333   0.68508   0.00000  Uiso   1.00
N1285  N     0.25974   0.89434   0.54484   0.00000  Uiso   1.00
H1286  H     0.25539   0.88688   0.57823   0.00000  Uiso   1.00
C1287  C     0.24894   0.93731   0.53970   0.00000  Uiso   1.00
H1288  H     0.27165   0.95676   0.55507   0.00000  Uiso   1.00
H1289  H     0.21017   0.94359   0.55692   0.00000  Uiso   1.00
H1290  H     0.25689   0.94587   0.50348   0.00000  Uiso   1.00
N1291  N     0.07067   0.85232   0.94570   0.00000  Uiso   1.00
H1292  H     0.07444   0.83794   0.91523   0.00000  Uiso   1.00
C1293  C     0.08281   0.89582   0.93969   0.00000  Uiso   1.00
H1294  H     0.12222   0.90011   0.92332   0.00000  Uiso   1.00
H1295  H     0.07261   0.91162   0.97284   0.00000  Uiso   1.00
H1296  H     0.06329   0.91081   0.91778   0.00000  Uiso   1.00
N1297  N     0.11975   0.79392   0.61670   0.00000  Uiso   1.00
H1298  H     0.15658   0.79293   0.60228   0.00000  Uiso   1.00
C1299  C     0.10139   0.75282   0.63018   0.00000  Uiso   1.00
H1300  H     0.12291   0.73830   0.65082   0.00000  Uiso   1.00
H1301  H     0.10446   0.73362   0.59987   0.00000  Uiso   1.00
H1302  H     0.06301   0.75356   0.65085   0.00000  Uiso   1.00
N1303  N     0.23191   0.77957   0.89618   0.00000  Uiso   1.00
H1304  H     0.24587   0.77343   0.86240   0.00000  Uiso   1.00
C1305  C     0.23195   0.74275   0.92290   0.00000  Uiso   1.00
H1306  H     0.21693   0.71656   0.90818   0.00000  Uiso   1.00
H1307  H     0.20910   0.74671   0.95811   0.00000  Uiso   1.00
H1308  H     0.26954   0.73505   0.92295   0.00000  Uiso   1.00
F1309  F     0.19700   0.78156   0.80608   0.00000  Uiso   1.00
F1310  F     0.13641   0.88436   0.69306   0.00000  Uiso   1.00
F1311  F     0.10164   0.78220   0.80668   0.00000  Uiso   1.00
F1312  F     0.23173   0.88428   0.69308   0.00000  Uiso   1.00
C1313  C     0.66664   0.75411   0.75004   0.00000  Uiso   1.00
C1314  C     0.33337   0.91256   0.74993   0.00000  Uiso   1.00
C1315  C     0.52353   0.85080   0.54722   0.00000  Uiso   1.00
C1316  C     0.47863   0.82289   0.95228   0.00000  Uiso   1.00
C1317  C     0.56858   0.86679   0.52308   0.00000  Uiso   1.00
C1318  C     0.43007   0.83234   0.97242   0.00000  Uiso   1.00
C1319  C     0.62369   0.68795   0.75293   0.00000  Uiso   1.00
C1320  C     0.37641   0.97874   0.74678   0.00000  Uiso   1.00
C1321  C     0.62372   0.97868   0.75286   0.00000  Uiso   1.00
C1322  C     0.37639   0.68802   0.74679   0.00000  Uiso   1.00
C1323  C     0.33339   0.95723   0.74985   0.00000  Uiso   1.00
C1324  C     0.33335   0.70946   0.74993   0.00000  Uiso   1.00
C1325  C     0.51606   0.80776   0.77810   0.00000  Uiso   1.00
C1326  C     0.48396   0.85871   0.72164   0.00000  Uiso   1.00
C1327  C     0.46665   0.80788   0.77822   0.00000  Uiso   1.00
C1328  C     0.53336   0.85871   0.72167   0.00000  Uiso   1.00
C1329  C     0.63921   0.83305   0.83603   0.00000  Uiso   1.00
C1330  C     0.36095   0.83167   0.66391   0.00000  Uiso   1.00
C1331  C     0.62410   0.83691   0.88518   0.00000  Uiso   1.00
C1332  C     0.37726   0.82819   0.61440   0.00000  Uiso   1.00
C1333  C     0.63109   0.87417   0.95076   0.00000  Uiso   1.00
C1334  C     0.36244   0.83688   0.54143   0.00000  Uiso   1.00
C1335  C     0.64768   0.86583   0.90479   0.00000  Uiso   1.00
C1336  C     0.34575   0.83730   0.58844   0.00000  Uiso   1.00
C1337  C     0.58318   0.81597   0.91210   0.00000  Uiso   1.00
C1338  C     0.42562   0.81695   0.59271   0.00000  Uiso   1.00
C1339  C     0.56135   0.83058   0.95622   0.00000  Uiso   1.00
C1340  C     0.44423   0.82448   0.54599   0.00000  Uiso   1.00
C1341  C     0.58777   0.85674   0.97712   0.00000  Uiso   1.00
C1342  C     0.41176   0.83074   0.51974   0.00000  Uiso   1.00
C1343  C     0.51184   0.82433   0.97790   0.00000  Uiso   1.00
C1344  C     0.49410   0.83019   0.52483   0.00000  Uiso   1.00
Cu1345 Cu    0.38022   0.83334   0.75000   0.00000  Uiso   1.00
Cu1346 Cu    0.61978   0.83333   0.75000   0.00000  Uiso   1.00
H1347  H     0.64144   0.84426   0.60458   0.00000  Uiso   1.00
H1348  H     0.34522   0.88251   0.88398   0.00000  Uiso   1.00
H1349  H     0.65054   0.89621   0.96503   0.00000  Uiso   1.00
H1350  H     0.33705   0.84226   0.52212   0.00000  Uiso   1.00
H1351  H     0.50892   0.85995   0.58210   0.00000  Uiso   1.00
H1352  H     0.49124   0.82427   0.91580   0.00000  Uiso   1.00
H1353  H     0.59002   0.70394   0.75546   0.00000  Uiso   1.00
H1354  H     0.41007   0.96276   0.74427   0.00000  Uiso   1.00
H1355  H     0.59007   0.96264   0.75531   0.00000  Uiso   1.00
H1356  H     0.41005   0.70407   0.74427   0.00000  Uiso   1.00
N1357  N     0.45069   0.83334   0.74999   0.00000  Uiso   1.00
N1358  N     0.54931   0.83332   0.75001   0.00000  Uiso   1.00
O1359  O     0.37291   0.77322   0.75000   0.00000  Uiso   1.00
O1360  O     0.62709   0.89345   0.75000   0.00000  Uiso   1.00
O1361  O     0.62706   0.77321   0.75001   0.00000  Uiso   1.00
O1362  O     0.37294   0.89346   0.74999   0.00000  Uiso   1.00
O1363  O     0.35186   0.83334   0.81491   0.00000  Uiso   1.00
O1364  O     0.64814   0.83332   0.68509   0.00000  Uiso   1.00
O1365  O     0.60600   0.83333   0.81492   0.00000  Uiso   1.00
O1366  O     0.39400   0.83333   0.68508   0.00000  Uiso   1.00
N1367  N     0.59307   0.89434   0.54484   0.00000  Uiso   1.00
H1368  H     0.58872   0.88688   0.57823   0.00000  Uiso   1.00
C1369  C     0.58227   0.93731   0.53970   0.00000  Uiso   1.00
H1370  H     0.60499   0.95676   0.55507   0.00000  Uiso   1.00
H1371  H     0.54350   0.94359   0.55692   0.00000  Uiso   1.00
H1372  H     0.59023   0.94587   0.50348   0.00000  Uiso   1.00
N1373  N     0.40401   0.85232   0.94570   0.00000  Uiso   1.00
H1374  H     0.40777   0.83794   0.91523   0.00000  Uiso   1.00
C1375  C     0.41614   0.89582   0.93969   0.00000  Uiso   1.00
H1376  H     0.45555   0.90011   0.92332   0.00000  Uiso   1.00
H1377  H     0.40594   0.91162   0.97284   0.00000  Uiso   1.00
H1378  H     0.39663   0.91081   0.91778   0.00000  Uiso   1.00
N1379  N     0.45309   0.79392   0.61670   0.00000  Uiso   1.00
H1380  H     0.48991   0.79293   0.60228   0.00000  Uiso   1.00
C1381  C     0.43473   0.75282   0.63018   0.00000  Uiso   1.00
H1382  H     0.45624   0.73830   0.65082   0.00000  Uiso   1.00
H1383  H     0.43779   0.73362   0.59987   0.00000  Uiso   1.00
H1384  H     0.39634   0.75356   0.65085   0.00000  Uiso   1.00
N1385  N     0.56525   0.77957   0.89618   0.00000  Uiso   1.00
H1386  H     0.57921   0.77343   0.86240   0.00000  Uiso   1.00
C1387  C     0.56528   0.74275   0.92290   0.00000  Uiso   1.00
H1388  H     0.55026   0.71656   0.90818   0.00000  Uiso   1.00
H1389  H     0.54244   0.74671   0.95811   0.00000  Uiso   1.00
H1390  H     0.60287   0.73505   0.92295   0.00000  Uiso   1.00
F1391  F     0.53033   0.78156   0.80608   0.00000  Uiso   1.00
F1392  F     0.46974   0.88436   0.69306   0.00000  Uiso   1.00
F1393  F     0.43498   0.78220   0.80668   0.00000  Uiso   1.00
F1394  F     0.56507   0.88428   0.69308   0.00000  Uiso   1.00
C1395  C     0.99998   0.75411   0.75004   0.00000  Uiso   1.00
C1396  C     0.66670   0.91256   0.74993   0.00000  Uiso   1.00
C1397  C     0.85686   0.85080   0.54722   0.00000  Uiso   1.00
C1398  C     0.81196   0.82289   0.95228   0.00000  Uiso   1.00
C1399  C     0.90191   0.86679   0.52308   0.00000  Uiso   1.00
C1400  C     0.76340   0.83234   0.97242   0.00000  Uiso   1.00
C1401  C     0.95703   0.68795   0.75293   0.00000  Uiso   1.00
C1402  C     0.70974   0.97874   0.74678   0.00000  Uiso   1.00
C1403  C     0.95705   0.97868   0.75286   0.00000  Uiso   1.00
C1404  C     0.70972   0.68802   0.74679   0.00000  Uiso   1.00
C1405  C     0.66673   0.95723   0.74985   0.00000  Uiso   1.00
C1406  C     0.66669   0.70946   0.74993   0.00000  Uiso   1.00
C1407  C     0.84940   0.80776   0.77810   0.00000  Uiso   1.00
C1408  C     0.81729   0.85871   0.72164   0.00000  Uiso   1.00
C1409  C     0.79998   0.80788   0.77822   0.00000  Uiso   1.00
C1410  C     0.86669   0.85871   0.72167   0.00000  Uiso   1.00
C1411  C     0.97254   0.83305   0.83603   0.00000  Uiso   1.00
C1412  C     0.69428   0.83167   0.66391   0.00000  Uiso   1.00
C1413  C     0.95743   0.83691   0.88518   0.00000  Uiso   1.00
C1414  C     0.71059   0.82819   0.61440   0.00000  Uiso   1.00
C1415  C     0.96442   0.87417   0.95076   0.00000  Uiso   1.00
C1416  C     0.69577   0.83688   0.54143   0.00000  Uiso   1.00
C1417  C     0.98101   0.86583   0.90479   0.00000  Uiso   1.00
C1418  C     0.67908   0.83730   0.58844   0.00000  Uiso   1.00
C1419  C     0.91651   0.81597   0.91210   0.00000  Uiso   1.00
C1420  C     0.75895   0.81695   0.59271   0.00000  Uiso   1.00
C1421  C     0.89469   0.83058   0.95622   0.00000  Uiso   1.00
C1422  C     0.77757   0.82448   0.54599   0.00000  Uiso   1.00
C1423  C     0.92110   0.85674   0.97712   0.00000  Uiso   1.00
C1424  C     0.74509   0.83074   0.51974   0.00000  Uiso   1.00
C1425  C     0.84517   0.82433   0.97790   0.00000  Uiso   1.00
C1426  C     0.82743   0.83019   0.52483   0.00000  Uiso   1.00
Cu1427 Cu    0.71355   0.83334   0.75000   0.00000  Uiso   1.00
Cu1428 Cu    0.95311   0.83333   0.75000   0.00000  Uiso   1.00
H1429  H     0.97478   0.84426   0.60458   0.00000  Uiso   1.00
H1430  H     0.67855   0.88251   0.88398   0.00000  Uiso   1.00
H1431  H     0.98388   0.89621   0.96503   0.00000  Uiso   1.00
H1432  H     0.67038   0.84226   0.52212   0.00000  Uiso   1.00
H1433  H     0.84225   0.85995   0.58210   0.00000  Uiso   1.00
H1434  H     0.82457   0.82427   0.91580   0.00000  Uiso   1.00
H1435  H     0.92335   0.70394   0.75546   0.00000  Uiso   1.00
H1436  H     0.74341   0.96276   0.74427   0.00000  Uiso   1.00
H1437  H     0.92340   0.96264   0.75531   0.00000  Uiso   1.00
H1438  H     0.74339   0.70407   0.74427   0.00000  Uiso   1.00
N1439  N     0.78403   0.83334   0.74999   0.00000  Uiso   1.00
N1440  N     0.88264   0.83332   0.75001   0.00000  Uiso   1.00
O1441  O     0.70625   0.77322   0.75000   0.00000  Uiso   1.00
O1442  O     0.96042   0.89345   0.75000   0.00000  Uiso   1.00
O1443  O     0.96039   0.77321   0.75001   0.00000  Uiso   1.00
O1444  O     0.70628   0.89346   0.74999   0.00000  Uiso   1.00
O1445  O     0.68519   0.83334   0.81491   0.00000  Uiso   1.00
O1446  O     0.98148   0.83332   0.68509   0.00000  Uiso   1.00
O1447  O     0.93933   0.83333   0.81492   0.00000  Uiso   1.00
O1448  O     0.72733   0.83333   0.68508   0.00000  Uiso   1.00
N1449  N     0.92640   0.89434   0.54484   0.00000  Uiso   1.00
H1450  H     0.92205   0.88688   0.57823   0.00000  Uiso   1.00
C1451  C     0.91561   0.93731   0.53970   0.00000  Uiso   1.00
H1452  H     0.93832   0.95676   0.55507   0.00000  Uiso   1.00
H1453  H     0.87684   0.94359   0.55692   0.00000  Uiso   1.00
H1454  H     0.92356   0.94587   0.50348   0.00000  Uiso   1.00
N1455  N     0.73734   0.85232   0.94570   0.00000  Uiso   1.00
H1456  H     0.74110   0.83794   0.91523   0.00000  Uiso   1.00
C1457  C     0.74948   0.89582   0.93969   0.00000  Uiso   1.00
H1458  H     0.78889   0.90011   0.92332   0.00000  Uiso   1.00
H1459  H     0.73928   0.91162   0.97284   0.00000  Uiso   1.00
H1460  H     0.72996   0.91081   0.91778   0.00000  Uiso   1.00
N1461  N     0.78642   0.79392   0.61670   0.00000  Uiso   1.00
H1462  H     0.82325   0.79293   0.60228   0.00000  Uiso   1.00
C1463  C     0.76806   0.75282   0.63018   0.00000  Uiso   1.00
H1464  H     0.78957   0.73830   0.65082   0.00000  Uiso   1.00
H1465  H     0.77112   0.73362   0.59987   0.00000  Uiso   1.00
H1466  H     0.72967   0.75356   0.65085   0.00000  Uiso   1.00
N1467  N     0.89858   0.77957   0.89618   0.00000  Uiso   1.00
H1468  H     0.91254   0.77343   0.86240   0.00000  Uiso   1.00
C1469  C     0.89861   0.74275   0.92290   0.00000  Uiso   1.00
H1470  H     0.88359   0.71656   0.90818   0.00000  Uiso   1.00
H1471  H     0.87577   0.74671   0.95811   0.00000  Uiso   1.00
H1472  H     0.93621   0.73505   0.92295   0.00000  Uiso   1.00
F1473  F     0.86366   0.78156   0.80608   0.00000  Uiso   1.00
F1474  F     0.80308   0.88436   0.69306   0.00000  Uiso   1.00
F1475  F     0.76831   0.78220   0.80668   0.00000  Uiso   1.00
F1476  F     0.89840   0.88428   0.69308   0.00000  Uiso   1.00
loop_
_geom_bond_atom_site_label_1
_geom_bond_atom_site_label_2
_geom_bond_distance
_geom_bond_site_symmetry_2
_ccdc_geom_bond_type
C1     O49     1.298   .     A
C1     C94     1.450   .     S
C1     O129    1.298   .     S
C2     O50     1.298   .     A
C2     C11     1.450   .     S
C2     O212    1.298   1_455 S
C3     H39     1.084   .     S
C3     C5      1.398   .     A
C3     C32     1.408   .     A
C4     H40     1.083   .     S
C4     C6      1.395   .     A
C4     C31     1.405   .     A
C5     N55     1.424   .     S
C5     C767    1.411   1_554 S
C6     N61     1.418   .     S
C6     C768    1.408   .     S
C7     H41     1.083   .     S
C7     C501    1.383   1_545 S
C7     C94     1.401   .     S
C8     H42     1.083   .     S
C8     C11     1.401   .     A
C8     C256    1.383   .     S
C9     H43     1.083   .     S
C9     C253    1.383   .     S
C9     C93     1.401   .     S
C10    H44     1.083   .     S
C10    C12     1.401   .     A
C10    C500    1.383   1_545 S
C11    C173    1.401   1_455 S
C12    C171    1.401   1_455 S
C12    C165    1.450   1_455 S
C13    F79     1.354   .     S
C13    N46     1.371   .     A
C13    C15     1.422   .     A
C14    C16     1.423   .     A
C14    F80     1.355   .     S
C14    N45     1.371   .     A
C15    F81     1.355   .     S
C15    N45     1.369   .     A
C16    N46     1.370   .     A
C16    F82     1.355   .     S
C17    O53     1.302   .     A
C17    C19     1.463   .     S
C17    O133    1.300   .     S
C18    C20     1.473   .     S
C18    O54     1.300   .     A
C18    O216    1.305   1_455 S
C19    C23     1.397   .     A
C19    C25     1.407   .     A
C20    C24     1.402   .     A
C20    C26     1.413   .     A
C21    C23     1.393   .     A
C21    C29     1.399   .     A
C21    H37     1.079   .     S
C22    H38     1.080   .     S
C22    C24     1.395   .     A
C22    C30     1.403   .     A
C23    H118    1.081   .     S
C24    H199    1.082   1_455 S
C25    C27     1.415   .     A
C25    N73     1.434   .     S
C26    N67     1.435   .     S
C26    C28     1.411   .     A
C27    C29     1.415   .     A
C27    C31     1.407   .     A
C28    C32     1.411   .     A
C28    C30     1.415   .     A
C29    C743    1.411   .     S
C30    C744    1.408   1_554 S
C31    C770    1.409   .     S
C32    C769    1.409   1_554 S
Cu33   N45     2.029   .     S
Cu33   O50     1.963   .     S
Cu33   O47     1.963   .     S
Cu33   O54     1.932   .     S
Cu33   O51     1.940   .     S
Cu33   Cu198   2.700   1_455 S
Cu34   N46     2.029   .     S
Cu34   O48     1.963   .     S
Cu34   O49     1.963   .     S
Cu34   O52     1.940   .     S
Cu34   O53     1.932   .     S
Cu34   Cu115   2.700   .     S
H35    C106    1.082   .     S
H36    C187    1.081   1_455 S
O47    C165    1.298   1_455 S
O48    C84     1.298   .     S
O51    C181    1.300   1_455 S
O52    C100    1.305   .     S
N55    H56     1.031   .     S
N55    C57     1.447   .     S
C57    H59     1.112   .     S
C57    H60     1.111   .     S
C57    H58     1.110   .     S
N61    C63     1.453   .     S
N61    H62     1.032   .     S
C63    H65     1.112   .     S
C63    H66     1.106   .     S
C63    H64     1.112   .     S
N67    H68     1.028   .     S
N67    C69     1.450   .     S
C69    H70     1.111   .     S
C69    H71     1.111   .     S
C69    H72     1.109   .     S
N73    H74     1.028   .     S
N73    C75     1.449   .     S
C75    H76     1.111   .     S
C75    H77     1.109   .     S
C75    H78     1.111   .     S
C83    O131    1.298   .     A
C83    C176    1.450   .     S
C83    O211    1.298   .     S
C84    O132    1.298   .     A
C84    C93     1.450   .     S
C85    H121    1.084   .     S
C85    C87     1.398   .     A
C85    C114    1.408   .     A
C86    H122    1.083   .     S
C86    C88     1.395   .     A
C86    C113    1.405   .     A
C87    N137    1.424   .     S
C87    C849    1.411   1_554 S
C88    N143    1.418   .     S
C88    C850    1.408   .     S
C89    H123    1.083   .     S
C89    C583    1.383   1_545 S
C89    C176    1.401   .     S
C90    H124    1.083   .     S
C90    C93     1.401   .     A
C90    C338    1.383   .     S
C91    H125    1.083   .     S
C91    C335    1.383   .     S
C91    C175    1.401   .     S
C92    H126    1.083   .     S
C92    C94     1.401   .     A
C92    C582    1.383   1_545 S
C95    F161    1.354   .     S
C95    N128    1.371   .     A
C95    C97     1.422   .     A
C96    C98     1.423   .     A
C96    F162    1.355   .     S
C96    N127    1.371   .     A
C97    F163    1.355   .     S
C97    N127    1.369   .     A
C98    N128    1.370   .     A
C98    F164    1.355   .     S
C99    O135    1.302   .     A
C99    C101    1.463   .     S
C99    O215    1.300   .     S
C100   C102    1.473   .     S
C100   O136    1.300   .     A
C101   C105    1.397   .     A
C101   C107    1.407   .     A
C102   C106    1.402   .     A
C102   C108    1.413   .     A
C103   C105    1.393   .     A
C103   C111    1.399   .     A
C103   H119    1.079   .     S
C104   H120    1.080   .     S
C104   C106    1.395   .     A
C104   C112    1.403   .     A
C105   H200    1.081   .     S
C107   C109    1.415   .     A
C107   N155    1.434   .     S
C108   N149    1.435   .     S
C108   C110    1.411   .     A
C109   C111    1.415   .     A
C109   C113    1.407   .     A
C110   C114    1.411   .     A
C110   C112    1.415   .     A
C111   C825    1.411   .     S
C112   C826    1.408   1_554 S
C113   C852    1.409   .     S
C114   C851    1.409   1_554 S
Cu115  N127    2.029   .     S
Cu115  O132    1.963   .     S
Cu115  O129    1.963   .     S
Cu115  O136    1.932   .     S
Cu115  O133    1.940   .     S
Cu116  N128    2.029   .     S
Cu116  O130    1.963   .     S
Cu116  O131    1.963   .     S
Cu116  O134    1.940   .     S
Cu116  O135    1.932   .     S
Cu116  Cu197   2.700   .     S
H117   C188    1.082   .     S
O130   C166    1.298   .     S
O134   C182    1.305   .     S
N137   H138    1.031   .     S
N137   C139    1.447   .     S
C139   H141    1.112   .     S
C139   H142    1.111   .     S
C139   H140    1.110   .     S
N143   C145    1.453   .     S
N143   H144    1.032   .     S
C145   H147    1.112   .     S
C145   H148    1.106   .     S
C145   H146    1.112   .     S
N149   H150    1.028   .     S
N149   C151    1.450   .     S
C151   H152    1.111   .     S
C151   H153    1.111   .     S
C151   H154    1.109   .     S
N155   H156    1.028   .     S
N155   C157    1.449   .     S
C157   H158    1.111   .     S
C157   H159    1.109   .     S
C157   H160    1.111   .     S
C165   O213    1.298   .     A
C165   C12     1.450   1_655 S
C165   O47     1.298   1_655 S
C166   O214    1.298   .     A
C166   C175    1.450   .     S
C167   H203    1.084   .     S
C167   C169    1.398   .     A
C167   C196    1.408   .     A
C168   H204    1.083   .     S
C168   C170    1.395   .     A
C168   C195    1.405   .     A
C169   N219    1.424   .     S
C169   C931    1.411   1_554 S
C170   N225    1.418   .     S
C170   C932    1.408   .     S
C171   H205    1.083   .     S
C171   C665    1.383   1_545 S
C171   C12     1.401   1_655 S
C172   H206    1.083   .     S
C172   C175    1.401   .     A
C172   C420    1.383   .     S
C173   H207    1.083   .     S
C173   C417    1.383   .     S
C173   C11     1.401   1_655 S
C174   H208    1.083   .     S
C174   C176    1.401   .     A
C174   C664    1.383   1_545 S
C177   F243    1.354   .     S
C177   N210    1.371   .     A
C177   C179    1.422   .     A
C178   C180    1.423   .     A
C178   F244    1.355   .     S
C178   N209    1.371   .     A
C179   F245    1.355   .     S
C179   N209    1.369   .     A
C180   N210    1.370   .     A
C180   F246    1.355   .     S
C181   O217    1.302   .     A
C181   C183    1.463   .     S
C181   O51     1.300   1_655 S
C182   C184    1.473   .     S
C182   O218    1.300   .     A
C183   C187    1.397   .     A
C183   C189    1.407   .     A
C184   C188    1.402   .     A
C184   C190    1.413   .     A
C185   C187    1.393   .     A
C185   C193    1.399   .     A
C185   H201    1.079   .     S
C186   H202    1.080   .     S
C186   C188    1.395   .     A
C186   C194    1.403   .     A
C187   H36     1.081   1_655 S
C189   C191    1.415   .     A
C189   N237    1.434   .     S
C190   N231    1.435   .     S
C190   C192    1.411   .     A
C191   C193    1.415   .     A
C191   C195    1.407   .     A
C192   C196    1.411   .     A
C192   C194    1.415   .     A
C193   C907    1.411   .     S
C194   C908    1.408   1_554 S
C195   C934    1.409   .     S
C196   C933    1.409   1_554 S
Cu197  N209    2.029   .     S
Cu197  O214    1.963   .     S
Cu197  O211    1.963   .     S
Cu197  O218    1.932   .     S
Cu197  O215    1.940   .     S
Cu198  N210    2.029   .     S
Cu198  O212    1.963   .     S
Cu198  O213    1.963   .     S
Cu198  O216    1.940   .     S
Cu198  O217    1.932   .     S
Cu198  Cu33    2.700   1_655 S
H199   C24     1.082   1_655 S
O212   C2      1.298   1_655 S
O216   C18     1.305   1_655 S
N219   H220    1.031   .     S
N219   C221    1.447   .     S
C221   H223    1.112   .     S
C221   H224    1.111   .     S
C221   H222    1.110   .     S
N225   C227    1.453   .     S
N225   H226    1.032   .     S
C227   H229    1.112   .     S
C227   H230    1.106   .     S
C227   H228    1.112   .     S
N231   H232    1.028   .     S
N231   C233    1.450   .     S
C233   H234    1.111   .     S
C233   H235    1.111   .     S
C233   H236    1.109   .     S
N237   H238    1.028   .     S
N237   C239    1.449   .     S
C239   H240    1.111   .     S
C239   H241    1.109   .     S
C239   H242    1.111   .     S
C247   O295    1.298   .     A
C247   C340    1.450   .     S
C247   O375    1.298   .     S
C248   O296    1.298   .     A
C248   C257    1.450   .     S
C248   O458    1.298   1_455 S
C249   H285    1.084   .     S
C249   C251    1.398   .     A
C249   C278    1.408   .     A
C250   H286    1.083   .     S
C250   C252    1.395   .     A
C250   C277    1.405   .     A
C251   N301    1.424   .     S
C251   C1013   1.411   1_554 S
C252   N307    1.418   .     S
C252   C1014   1.408   .     S
C253   H287    1.083   .     S
C253   C340    1.401   .     S
C254   H288    1.083   .     S
C254   C257    1.401   .     A
C254   C502    1.383   .     S
C255   H289    1.083   .     S
C255   C499    1.383   .     S
C255   C339    1.401   .     S
C256   H290    1.083   .     S
C256   C258    1.401   .     A
C257   C419    1.401   1_455 S
C258   C417    1.401   1_455 S
C258   C411    1.450   1_455 S
C259   F325    1.354   .     S
C259   N292    1.371   .     A
C259   C261    1.422   .     A
C260   C262    1.423   .     A
C260   F326    1.355   .     S
C260   N291    1.371   .     A
C261   F327    1.355   .     S
C261   N291    1.369   .     A
C262   N292    1.370   .     A
C262   F328    1.355   .     S
C263   O299    1.302   .     A
C263   C265    1.463   .     S
C263   O379    1.300   .     S
C264   C266    1.473   .     S
C264   O300    1.300   .     A
C264   O462    1.305   1_455 S
C265   C269    1.397   .     A
C265   C271    1.407   .     A
C266   C270    1.402   .     A
C266   C272    1.413   .     A
C267   C269    1.393   .     A
C267   C275    1.399   .     A
C267   H283    1.079   .     S
C268   H284    1.080   .     S
C268   C270    1.395   .     A
C268   C276    1.403   .     A
C269   H364    1.081   .     S
C270   H445    1.082   1_455 S
C271   C273    1.415   .     A
C271   N319    1.434   .     S
C272   N313    1.435   .     S
C272   C274    1.411   .     A
C273   C275    1.415   .     A
C273   C277    1.407   .     A
C274   C278    1.411   .     A
C274   C276    1.415   .     A
C275   C989    1.411   .     S
C276   C990    1.408   1_554 S
C277   C1016   1.409   .     S
C278   C1015   1.409   1_554 S
Cu279  N291    2.029   .     S
Cu279  O296    1.963   .     S
Cu279  O293    1.963   .     S
Cu279  O300    1.932   .     S
Cu279  O297    1.940   .     S
Cu279  Cu444   2.700   1_455 S
Cu280  N292    2.029   .     S
Cu280  O294    1.963   .     S
Cu280  O295    1.963   .     S
Cu280  O298    1.940   .     S
Cu280  O299    1.932   .     S
Cu280  Cu361   2.700   .     S
H281   C352    1.082   .     S
H282   C433    1.081   1_455 S
O293   C411    1.298   1_455 S
O294   C330    1.298   .     S
O297   C427    1.300   1_455 S
O298   C346    1.305   .     S
N301   H302    1.031   .     S
N301   C303    1.447   .     S
C303   H305    1.112   .     S
C303   H306    1.111   .     S
C303   H304    1.110   .     S
N307   C309    1.453   .     S
N307   H308    1.032   .     S
C309   H311    1.112   .     S
C309   H312    1.106   .     S
C309   H310    1.112   .     S
N313   H314    1.028   .     S
N313   C315    1.450   .     S
C315   H316    1.111   .     S
C315   H317    1.111   .     S
C315   H318    1.109   .     S
N319   H320    1.028   .     S
N319   C321    1.449   .     S
C321   H322    1.111   .     S
C321   H323    1.109   .     S
C321   H324    1.111   .     S
C329   O377    1.298   .     A
C329   C422    1.450   .     S
C329   O457    1.298   .     S
C330   O378    1.298   .     A
C330   C339    1.450   .     S
C331   H367    1.084   .     S
C331   C333    1.398   .     A
C331   C360    1.408   .     A
C332   H368    1.083   .     S
C332   C334    1.395   .     A
C332   C359    1.405   .     A
C333   N383    1.424   .     S
C333   C1095   1.411   1_554 S
C334   N389    1.418   .     S
C334   C1096   1.408   .     S
C335   H369    1.083   .     S
C335   C422    1.401   .     S
C336   H370    1.083   .     S
C336   C339    1.401   .     A
C336   C584    1.383   .     S
C337   H371    1.083   .     S
C337   C581    1.383   .     S
C337   C421    1.401   .     S
C338   H372    1.083   .     S
C338   C340    1.401   .     A
C341   F407    1.354   .     S
C341   N374    1.371   .     A
C341   C343    1.422   .     A
C342   C344    1.423   .     A
C342   F408    1.355   .     S
C342   N373    1.371   .     A
C343   F409    1.355   .     S
C343   N373    1.369   .     A
C344   N374    1.370   .     A
C344   F410    1.355   .     S
C345   O381    1.302   .     A
C345   C347    1.463   .     S
C345   O461    1.300   .     S
C346   C348    1.473   .     S
C346   O382    1.300   .     A
C347   C351    1.397   .     A
C347   C353    1.407   .     A
C348   C352    1.402   .     A
C348   C354    1.413   .     A
C349   C351    1.393   .     A
C349   C357    1.399   .     A
C349   H365    1.079   .     S
C350   H366    1.080   .     S
C350   C352    1.395   .     A
C350   C358    1.403   .     A
C351   H446    1.081   .     S
C353   C355    1.415   .     A
C353   N401    1.434   .     S
C354   N395    1.435   .     S
C354   C356    1.411   .     A
C355   C357    1.415   .     A
C355   C359    1.407   .     A
C356   C360    1.411   .     A
C356   C358    1.415   .     A
C357   C1071   1.411   .     S
C358   C1072   1.408   1_554 S
C359   C1098   1.409   .     S
C360   C1097   1.409   1_554 S
Cu361  N373    2.029   .     S
Cu361  O378    1.963   .     S
Cu361  O375    1.963   .     S
Cu361  O382    1.932   .     S
Cu361  O379    1.940   .     S
Cu362  N374    2.029   .     S
Cu362  O376    1.963   .     S
Cu362  O377    1.963   .     S
Cu362  O380    1.940   .     S
Cu362  O381    1.932   .     S
Cu362  Cu443   2.700   .     S
H363   C434    1.082   .     S
O376   C412    1.298   .     S
O380   C428    1.305   .     S
N383   H384    1.031   .     S
N383   C385    1.447   .     S
C385   H387    1.112   .     S
C385   H388    1.111   .     S
C385   H386    1.110   .     S
N389   C391    1.453   .     S
N389   H390    1.032   .     S
C391   H393    1.112   .     S
C391   H394    1.106   .     S
C391   H392    1.112   .     S
N395   H396    1.028   .     S
N395   C397    1.450   .     S
C397   H398    1.111   .     S
C397   H399    1.111   .     S
C397   H400    1.109   .     S
N401   H402    1.028   .     S
N401   C403    1.449   .     S
C403   H404    1.111   .     S
C403   H405    1.109   .     S
C403   H406    1.111   .     S
C411   O459    1.298   .     A
C411   C258    1.450   1_655 S
C411   O293    1.298   1_655 S
C412   O460    1.298   .     A
C412   C421    1.450   .     S
C413   H449    1.084   .     S
C413   C415    1.398   .     A
C413   C442    1.408   .     A
C414   H450    1.083   .     S
C414   C416    1.395   .     A
C414   C441    1.405   .     A
C415   N465    1.424   .     S
C415   C1177   1.411   1_554 S
C416   N471    1.418   .     S
C416   C1178   1.408   .     S
C417   H451    1.083   .     S
C417   C258    1.401   1_655 S
C418   H452    1.083   .     S
C418   C421    1.401   .     A
C418   C666    1.383   .     S
C419   H453    1.083   .     S
C419   C663    1.383   .     S
C419   C257    1.401   1_655 S
C420   H454    1.083   .     S
C420   C422    1.401   .     A
C423   F489    1.354   .     S
C423   N456    1.371   .     A
C423   C425    1.422   .     A
C424   C426    1.423   .     A
C424   F490    1.355   .     S
C424   N455    1.371   .     A
C425   F491    1.355   .     S
C425   N455    1.369   .     A
C426   N456    1.370   .     A
C426   F492    1.355   .     S
C427   O463    1.302   .     A
C427   C429    1.463   .     S
C427   O297    1.300   1_655 S
C428   C430    1.473   .     S
C428   O464    1.300   .     A
C429   C433    1.397   .     A
C429   C435    1.407   .     A
C430   C434    1.402   .     A
C430   C436    1.413   .     A
C431   C433    1.393   .     A
C431   C439    1.399   .     A
C431   H447    1.079   .     S
C432   H448    1.080   .     S
C432   C434    1.395   .     A
C432   C440    1.403   .     A
C433   H282    1.081   1_655 S
C435   C437    1.415   .     A
C435   N483    1.434   .     S
C436   N477    1.435   .     S
C436   C438    1.411   .     A
C437   C439    1.415   .     A
C437   C441    1.407   .     A
C438   C442    1.411   .     A
C438   C440    1.415   .     A
C439   C1153   1.411   .     S
C440   C1154   1.408   1_554 S
C441   C1180   1.409   .     S
C442   C1179   1.409   1_554 S
Cu443  N455    2.029   .     S
Cu443  O460    1.963   .     S
Cu443  O457    1.963   .     S
Cu443  O464    1.932   .     S
Cu443  O461    1.940   .     S
Cu444  N456    2.029   .     S
Cu444  O458    1.963   .     S
Cu444  O459    1.963   .     S
Cu444  O462    1.940   .     S
Cu444  O463    1.932   .     S
Cu444  Cu279   2.700   1_655 S
H445   C270    1.082   1_655 S
O458   C248    1.298   1_655 S
O462   C264    1.305   1_655 S
N465   H466    1.031   .     S
N465   C467    1.447   .     S
C467   H469    1.112   .     S
C467   H470    1.111   .     S
C467   H468    1.110   .     S
N471   C473    1.453   .     S
N471   H472    1.032   .     S
C473   H475    1.112   .     S
C473   H476    1.106   .     S
C473   H474    1.112   .     S
N477   H478    1.028   .     S
N477   C479    1.450   .     S
C479   H480    1.111   .     S
C479   H481    1.111   .     S
C479   H482    1.109   .     S
N483   H484    1.028   .     S
N483   C485    1.449   .     S
C485   H486    1.111   .     S
C485   H487    1.109   .     S
C485   H488    1.111   .     S
C493   O541    1.298   .     A
C493   C586    1.450   .     S
C493   O621    1.298   .     S
C494   O542    1.298   .     A
C494   C503    1.450   .     S
C494   O704    1.298   1_455 S
C495   H531    1.084   .     S
C495   C497    1.398   .     A
C495   C524    1.408   .     A
C496   H532    1.083   .     S
C496   C498    1.395   .     A
C496   C523    1.405   .     A
C497   N547    1.424   .     S
C497   C1259   1.411   1_554 S
C498   N553    1.418   .     S
C498   C1260   1.408   .     S
C499   H533    1.083   .     S
C499   C586    1.401   .     S
C500   H534    1.083   .     S
C500   C503    1.401   .     A
C500   C10     1.383   1_565 S
C501   H535    1.083   .     S
C501   C7      1.383   1_565 S
C501   C585    1.401   .     S
C502   H536    1.083   .     S
C502   C504    1.401   .     A
C503   C665    1.401   1_455 S
C504   C663    1.401   1_455 S
C504   C657    1.450   1_455 S
C505   F571    1.354   .     S
C505   N538    1.371   .     A
C505   C507    1.422   .     A
C506   C508    1.423   .     A
C506   F572    1.355   .     S
C506   N537    1.371   .     A
C507   F573    1.355   .     S
C507   N537    1.369   .     A
C508   N538    1.370   .     A
C508   F574    1.355   .     S
C509   O545    1.302   .     A
C509   C511    1.463   .     S
C509   O625    1.300   .     S
C510   C512    1.473   .     S
C510   O546    1.300   .     A
C510   O708    1.305   1_455 S
C511   C515    1.397   .     A
C511   C517    1.407   .     A
C512   C516    1.402   .     A
C512   C518    1.413   .     A
C513   C515    1.393   .     A
C513   C521    1.399   .     A
C513   H529    1.079   .     S
C514   H530    1.080   .     S
C514   C516    1.395   .     A
C514   C522    1.403   .     A
C515   H610    1.081   .     S
C516   H691    1.082   1_455 S
C517   C519    1.415   .     A
C517   N565    1.434   .     S
C518   N559    1.435   .     S
C518   C520    1.411   .     A
C519   C521    1.415   .     A
C519   C523    1.407   .     A
C520   C524    1.411   .     A
C520   C522    1.415   .     A
C521   C1235   1.411   .     S
C522   C1236   1.408   1_554 S
C523   C1262   1.409   .     S
C524   C1261   1.409   1_554 S
Cu525  N537    2.029   .     S
Cu525  O542    1.963   .     S
Cu525  O539    1.963   .     S
Cu525  O546    1.932   .     S
Cu525  O543    1.940   .     S
Cu525  Cu690   2.700   1_455 S
Cu526  N538    2.029   .     S
Cu526  O540    1.963   .     S
Cu526  O541    1.963   .     S
Cu526  O544    1.940   .     S
Cu526  O545    1.932   .     S
Cu526  Cu607   2.700   .     S
H527   C598    1.082   .     S
H528   C679    1.081   1_455 S
O539   C657    1.298   1_455 S
O540   C576    1.298   .     S
O543   C673    1.300   1_455 S
O544   C592    1.305   .     S
N547   H548    1.031   .     S
N547   C549    1.447   .     S
C549   H551    1.112   .     S
C549   H552    1.111   .     S
C549   H550    1.110   .     S
N553   C555    1.453   .     S
N553   H554    1.032   .     S
C555   H557    1.112   .     S
C555   H558    1.106   .     S
C555   H556    1.112   .     S
N559   H560    1.028   .     S
N559   C561    1.450   .     S
C561   H562    1.111   .     S
C561   H563    1.111   .     S
C561   H564    1.109   .     S
N565   H566    1.028   .     S
N565   C567    1.449   .     S
C567   H568    1.111   .     S
C567   H569    1.109   .     S
C567   H570    1.111   .     S
C575   O623    1.298   .     A
C575   C668    1.450   .     S
C575   O703    1.298   .     S
C576   O624    1.298   .     A
C576   C585    1.450   .     S
C577   H613    1.084   .     S
C577   C579    1.398   .     A
C577   C606    1.408   .     A
C578   H614    1.083   .     S
C578   C580    1.395   .     A
C578   C605    1.405   .     A
C579   N629    1.424   .     S
C579   C1341   1.411   1_554 S
C580   N635    1.418   .     S
C580   C1342   1.408   .     S
C581   H615    1.083   .     S
C581   C668    1.401   .     S
C582   H616    1.083   .     S
C582   C585    1.401   .     A
C582   C92     1.383   1_565 S
C583   H617    1.083   .     S
C583   C89     1.383   1_565 S
C583   C667    1.401   .     S
C584   H618    1.083   .     S
C584   C586    1.401   .     A
C587   F653    1.354   .     S
C587   N620    1.371   .     A
C587   C589    1.422   .     A
C588   C590    1.423   .     A
C588   F654    1.355   .     S
C588   N619    1.371   .     A
C589   F655    1.355   .     S
C589   N619    1.369   .     A
C590   N620    1.370   .     A
C590   F656    1.355   .     S
C591   O627    1.302   .     A
C591   C593    1.463   .     S
C591   O707    1.300   .     S
C592   C594    1.473   .     S
C592   O628    1.300   .     A
C593   C597    1.397   .     A
C593   C599    1.407   .     A
C594   C598    1.402   .     A
C594   C600    1.413   .     A
C595   C597    1.393   .     A
C595   C603    1.399   .     A
C595   H611    1.079   .     S
C596   H612    1.080   .     S
C596   C598    1.395   .     A
C596   C604    1.403   .     A
C597   H692    1.081   .     S
C599   C601    1.415   .     A
C599   N647    1.434   .     S
C600   N641    1.435   .     S
C600   C602    1.411   .     A
C601   C603    1.415   .     A
C601   C605    1.407   .     A
C602   C606    1.411   .     A
C602   C604    1.415   .     A
C603   C1317   1.411   .     S
C604   C1318   1.408   1_554 S
C605   C1344   1.409   .     S
C606   C1343   1.409   1_554 S
Cu607  N619    2.029   .     S
Cu607  O624    1.963   .     S
Cu607  O621    1.963   .     S
Cu607  O628    1.932   .     S
Cu607  O625    1.940   .     S
Cu608  N620    2.029   .     S
Cu608  O622    1.963   .     S
Cu608  O623    1.963   .     S
Cu608  O626    1.940   .     S
Cu608  O627    1.932   .     S
Cu608  Cu689   2.700   .     S
H609   C680    1.082   .     S
O622   C658    1.298   .     S
O626   C674    1.305   .     S
N629   H630    1.031   .     S
N629   C631    1.447   .     S
C631   H633    1.112   .     S
C631   H634    1.111   .     S
C631   H632    1.110   .     S
N635   C637    1.453   .     S
N635   H636    1.032   .     S
C637   H639    1.112   .     S
C637   H640    1.106   .     S
C637   H638    1.112   .     S
N641   H642    1.028   .     S
N641   C643    1.450   .     S
C643   H644    1.111   .     S
C643   H645    1.111   .     S
C643   H646    1.109   .     S
N647   H648    1.028   .     S
N647   C649    1.449   .     S
C649   H650    1.111   .     S
C649   H651    1.109   .     S
C649   H652    1.111   .     S
C657   O705    1.298   .     A
C657   C504    1.450   1_655 S
C657   O539    1.298   1_655 S
C658   O706    1.298   .     A
C658   C667    1.450   .     S
C659   H695    1.084   .     S
C659   C661    1.398   .     A
C659   C688    1.408   .     A
C660   H696    1.083   .     S
C660   C662    1.395   .     A
C660   C687    1.405   .     A
C661   N711    1.424   .     S
C661   C1423   1.411   1_554 S
C662   N717    1.418   .     S
C662   C1424   1.408   .     S
C663   H697    1.083   .     S
C663   C504    1.401   1_655 S
C664   H698    1.083   .     S
C664   C667    1.401   .     A
C664   C174    1.383   1_565 S
C665   H699    1.083   .     S
C665   C171    1.383   1_565 S
C665   C503    1.401   1_655 S
C666   H700    1.083   .     S
C666   C668    1.401   .     A
C669   F735    1.354   .     S
C669   N702    1.371   .     A
C669   C671    1.422   .     A
C670   C672    1.423   .     A
C670   F736    1.355   .     S
C670   N701    1.371   .     A
C671   F737    1.355   .     S
C671   N701    1.369   .     A
C672   N702    1.370   .     A
C672   F738    1.355   .     S
C673   O709    1.302   .     A
C673   C675    1.463   .     S
C673   O543    1.300   1_655 S
C674   C676    1.473   .     S
C674   O710    1.300   .     A
C675   C679    1.397   .     A
C675   C681    1.407   .     A
C676   C680    1.402   .     A
C676   C682    1.413   .     A
C677   C679    1.393   .     A
C677   C685    1.399   .     A
C677   H693    1.079   .     S
C678   H694    1.080   .     S
C678   C680    1.395   .     A
C678   C686    1.403   .     A
C679   H528    1.081   1_655 S
C681   C683    1.415   .     A
C681   N729    1.434   .     S
C682   N723    1.435   .     S
C682   C684    1.411   .     A
C683   C685    1.415   .     A
C683   C687    1.407   .     A
C684   C688    1.411   .     A
C684   C686    1.415   .     A
C685   C1399   1.411   .     S
C686   C1400   1.408   1_554 S
C687   C1426   1.409   .     S
C688   C1425   1.409   1_554 S
Cu689  N701    2.029   .     S
Cu689  O706    1.963   .     S
Cu689  O703    1.963   .     S
Cu689  O710    1.932   .     S
Cu689  O707    1.940   .     S
Cu690  N702    2.029   .     S
Cu690  O704    1.963   .     S
Cu690  O705    1.963   .     S
Cu690  O708    1.940   .     S
Cu690  O709    1.932   .     S
Cu690  Cu525   2.700   1_655 S
H691   C516    1.082   1_655 S
O704   C494    1.298   1_655 S
O708   C510    1.305   1_655 S
N711   H712    1.031   .     S
N711   C713    1.447   .     S
C713   H715    1.112   .     S
C713   H716    1.111   .     S
C713   H714    1.110   .     S
N717   C719    1.453   .     S
N717   H718    1.032   .     S
C719   H721    1.112   .     S
C719   H722    1.106   .     S
C719   H720    1.112   .     S
N723   H724    1.028   .     S
N723   C725    1.450   .     S
C725   H726    1.111   .     S
C725   H727    1.111   .     S
C725   H728    1.109   .     S
N729   H730    1.028   .     S
N729   C731    1.449   .     S
C731   H732    1.111   .     S
C731   H733    1.109   .     S
C731   H734    1.111   .     S
C739   O787    1.298   .     A
C739   C832    1.450   .     S
C739   O867    1.298   .     S
C740   O788    1.298   .     A
C740   C749    1.450   .     S
C740   O950    1.298   1_455 S
C741   H777    1.084   .     S
C741   C743    1.398   .     A
C741   C770    1.408   .     A
C742   H778    1.083   .     S
C742   C744    1.395   .     A
C742   C769    1.405   .     A
C743   N793    1.424   .     S
C744   N799    1.418   .     S
C744   C30     1.408   1_556 S
C745   H779    1.083   .     S
C745   C1239   1.383   1_545 S
C745   C832    1.401   .     S
C746   H780    1.083   .     S
C746   C749    1.401   .     A
C746   C994    1.383   .     S
C747   H781    1.083   .     S
C747   C991    1.383   .     S
C747   C831    1.401   .     S
C748   H782    1.083   .     S
C748   C750    1.401   .     A
C748   C1238   1.383   1_545 S
C749   C911    1.401   1_455 S
C750   C909    1.401   1_455 S
C750   C903    1.450   1_455 S
C751   F817    1.354   .     S
C751   N784    1.371   .     A
C751   C753    1.422   .     A
C752   C754    1.423   .     A
C752   F818    1.355   .     S
C752   N783    1.371   .     A
C753   F819    1.355   .     S
C753   N783    1.369   .     A
C754   N784    1.370   .     A
C754   F820    1.355   .     S
C755   O791    1.302   .     A
C755   C757    1.463   .     S
C755   O871    1.300   .     S
C756   C758    1.473   .     S
C756   O792    1.300   .     A
C756   O954    1.305   1_455 S
C757   C761    1.397   .     A
C757   C763    1.407   .     A
C758   C762    1.402   .     A
C758   C764    1.413   .     A
C759   C761    1.393   .     A
C759   C767    1.399   .     A
C759   H775    1.079   .     S
C760   H776    1.080   .     S
C760   C762    1.395   .     A
C760   C768    1.403   .     A
C761   H856    1.081   .     S
C762   H937    1.082   1_455 S
C763   C765    1.415   .     A
C763   N811    1.434   .     S
C764   N805    1.435   .     S
C764   C766    1.411   .     A
C765   C767    1.415   .     A
C765   C769    1.407   .     A
C766   C770    1.411   .     A
C766   C768    1.415   .     A
C767   C5      1.411   1_556 S
C769   C32     1.409   1_556 S
Cu771  N783    2.029   .     S
Cu771  O788    1.963   .     S
Cu771  O785    1.963   .     S
Cu771  O792    1.932   .     S
Cu771  O789    1.940   .     S
Cu771  Cu936   2.700   1_455 S
Cu772  N784    2.029   .     S
Cu772  O786    1.963   .     S
Cu772  O787    1.963   .     S
Cu772  O790    1.940   .     S
Cu772  O791    1.932   .     S
Cu772  Cu853   2.700   .     S
H773   C844    1.082   .     S
H774   C925    1.081   1_455 S
O785   C903    1.298   1_455 S
O786   C822    1.298   .     S
O789   C919    1.300   1_455 S
O790   C838    1.305   .     S
N793   H794    1.031   .     S
N793   C795    1.447   .     S
C795   H797    1.112   .     S
C795   H798    1.111   .     S
C795   H796    1.110   .     S
N799   C801    1.453   .     S
N799   H800    1.032   .     S
C801   H803    1.112   .     S
C801   H804    1.106   .     S
C801   H802    1.112   .     S
N805   H806    1.028   .     S
N805   C807    1.450   .     S
C807   H808    1.111   .     S
C807   H809    1.111   .     S
C807   H810    1.109   .     S
N811   H812    1.028   .     S
N811   C813    1.449   .     S
C813   H814    1.111   .     S
C813   H815    1.109   .     S
C813   H816    1.111   .     S
C821   O869    1.298   .     A
C821   C914    1.450   .     S
C821   O949    1.298   .     S
C822   O870    1.298   .     A
C822   C831    1.450   .     S
C823   H859    1.084   .     S
C823   C825    1.398   .     A
C823   C852    1.408   .     A
C824   H860    1.083   .     S
C824   C826    1.395   .     A
C824   C851    1.405   .     A
C825   N875    1.424   .     S
C826   N881    1.418   .     S
C826   C112    1.408   1_556 S
C827   H861    1.083   .     S
C827   C1321   1.383   1_545 S
C827   C914    1.401   .     S
C828   H862    1.083   .     S
C828   C831    1.401   .     A
C828   C1076   1.383   .     S
C829   H863    1.083   .     S
C829   C1073   1.383   .     S
C829   C913    1.401   .     S
C830   H864    1.083   .     S
C830   C832    1.401   .     A
C830   C1320   1.383   1_545 S
C833   F899    1.354   .     S
C833   N866    1.371   .     A
C833   C835    1.422   .     A
C834   C836    1.423   .     A
C834   F900    1.355   .     S
C834   N865    1.371   .     A
C835   F901    1.355   .     S
C835   N865    1.369   .     A
C836   N866    1.370   .     A
C836   F902    1.355   .     S
C837   O873    1.302   .     A
C837   C839    1.463   .     S
C837   O953    1.300   .     S
C838   C840    1.473   .     S
C838   O874    1.300   .     A
C839   C843    1.397   .     A
C839   C845    1.407   .     A
C840   C844    1.402   .     A
C840   C846    1.413   .     A
C841   C843    1.393   .     A
C841   C849    1.399   .     A
C841   H857    1.079   .     S
C842   H858    1.080   .     S
C842   C844    1.395   .     A
C842   C850    1.403   .     A
C843   H938    1.081   .     S
C845   C847    1.415   .     A
C845   N893    1.434   .     S
C846   N887    1.435   .     S
C846   C848    1.411   .     A
C847   C849    1.415   .     A
C847   C851    1.407   .     A
C848   C852    1.411   .     A
C848   C850    1.415   .     A
C849   C87     1.411   1_556 S
C851   C114    1.409   1_556 S
Cu853  N865    2.029   .     S
Cu853  O870    1.963   .     S
Cu853  O867    1.963   .     S
Cu853  O874    1.932   .     S
Cu853  O871    1.940   .     S
Cu854  N866    2.029   .     S
Cu854  O868    1.963   .     S
Cu854  O869    1.963   .     S
Cu854  O872    1.940   .     S
Cu854  O873    1.932   .     S
Cu854  Cu935   2.700   .     S
H855   C926    1.082   .     S
O868   C904    1.298   .     S
O872   C920    1.305   .     S
N875   H876    1.031   .     S
N875   C877    1.447   .     S
C877   H879    1.112   .     S
C877   H880    1.111   .     S
C877   H878    1.110   .     S
N881   C883    1.453   .     S
N881   H882    1.032   .     S
C883   H885    1.112   .     S
C883   H886    1.106   .     S
C883   H884    1.112   .     S
N887   H888    1.028   .     S
N887   C889    1.450   .     S
C889   H890    1.111   .     S
C889   H891    1.111   .     S
C889   H892    1.109   .     S
N893   H894    1.028   .     S
N893   C895    1.449   .     S
C895   H896    1.111   .     S
C895   H897    1.109   .     S
C895   H898    1.111   .     S
C903   O951    1.298   .     A
C903   C750    1.450   1_655 S
C903   O785    1.298   1_655 S
C904   O952    1.298   .     A
C904   C913    1.450   .     S
C905   H941    1.084   .     S
C905   C907    1.398   .     A
C905   C934    1.408   .     A
C906   H942    1.083   .     S
C906   C908    1.395   .     A
C906   C933    1.405   .     A
C907   N957    1.424   .     S
C908   N963    1.418   .     S
C908   C194    1.408   1_556 S
C909   H943    1.083   .     S
C909   C1403   1.383   1_545 S
C909   C750    1.401   1_655 S
C910   H944    1.083   .     S
C910   C913    1.401   .     A
C910   C1158   1.383   .     S
C911   H945    1.083   .     S
C911   C1155   1.383   .     S
C911   C749    1.401   1_655 S
C912   H946    1.083   .     S
C912   C914    1.401   .     A
C912   C1402   1.383   1_545 S
C915   F981    1.354   .     S
C915   N948    1.371   .     A
C915   C917    1.422   .     A
C916   C918    1.423   .     A
C916   F982    1.355   .     S
C916   N947    1.371   .     A
C917   F983    1.355   .     S
C917   N947    1.369   .     A
C918   N948    1.370   .     A
C918   F984    1.355   .     S
C919   O955    1.302   .     A
C919   C921    1.463   .     S
C919   O789    1.300   1_655 S
C920   C922    1.473   .     S
C920   O956    1.300   .     A
C921   C925    1.397   .     A
C921   C927    1.407   .     A
C922   C926    1.402   .     A
C922   C928    1.413   .     A
C923   C925    1.393   .     A
C923   C931    1.399   .     A
C923   H939    1.079   .     S
C924   H940    1.080   .     S
C924   C926    1.395   .     A
C924   C932    1.403   .     A
C925   H774    1.081   1_655 S
C927   C929    1.415   .     A
C927   N975    1.434   .     S
C928   N969    1.435   .     S
C928   C930    1.411   .     A
C929   C931    1.415   .     A
C929   C933    1.407   .     A
C930   C934    1.411   .     A
C930   C932    1.415   .     A
C931   C169    1.411   1_556 S
C933   C196    1.409   1_556 S
Cu935  N947    2.029   .     S
Cu935  O952    1.963   .     S
Cu935  O949    1.963   .     S
Cu935  O956    1.932   .     S
Cu935  O953    1.940   .     S
Cu936  N948    2.029   .     S
Cu936  O950    1.963   .     S
Cu936  O951    1.963   .     S
Cu936  O954    1.940   .     S
Cu936  O955    1.932   .     S
Cu936  Cu771   2.700   1_655 S
H937   C762    1.082   1_655 S
O950   C740    1.298   1_655 S
O954   C756    1.305   1_655 S
N957   H958    1.031   .     S
N957   C959    1.447   .     S
C959   H961    1.112   .     S
C959   H962    1.111   .     S
C959   H960    1.110   .     S
N963   C965    1.453   .     S
N963   H964    1.032   .     S
C965   H967    1.112   .     S
C965   H968    1.106   .     S
C965   H966    1.112   .     S
N969   H970    1.028   .     S
N969   C971    1.450   .     S
C971   H972    1.111   .     S
C971   H973    1.111   .     S
C971   H974    1.109   .     S
N975   H976    1.028   .     S
N975   C977    1.449   .     S
C977   H978    1.111   .     S
C977   H979    1.109   .     S
C977   H980    1.111   .     S
C985   O1033   1.298   .     A
C985   C1078   1.450   .     S
C985   O1113   1.298   .     S
C986   O1034   1.298   .     A
C986   C995    1.450   .     S
C986   O1196   1.298   1_455 S
C987   H1023   1.084   .     S
C987   C989    1.398   .     A
C987   C1016   1.408   .     A
C988   H1024   1.083   .     S
C988   C990    1.395   .     A
C988   C1015   1.405   .     A
C989   N1039   1.424   .     S
C990   N1045   1.418   .     S
C990   C276    1.408   1_556 S
C991   H1025   1.083   .     S
C991   C1078   1.401   .     S
C992   H1026   1.083   .     S
C992   C995    1.401   .     A
C992   C1240   1.383   .     S
C993   H1027   1.083   .     S
C993   C1237   1.383   .     S
C993   C1077   1.401   .     S
C994   H1028   1.083   .     S
C994   C996    1.401   .     A
C995   C1157   1.401   1_455 S
C996   C1155   1.401   1_455 S
C996   C1149   1.450   1_455 S
C997   F1063   1.354   .     S
C997   N1030   1.371   .     A
C997   C999    1.422   .     A
C998   C1000   1.423   .     A
C998   F1064   1.355   .     S
C998   N1029   1.371   .     A
C999   F1065   1.355   .     S
C999   N1029   1.369   .     A
C1000  N1030   1.370   .     A
C1000  F1066   1.355   .     S
C1001  O1037   1.302   .     A
C1001  C1003   1.463   .     S
C1001  O1117   1.300   .     S
C1002  C1004   1.473   .     S
C1002  O1038   1.300   .     A
C1002  O1200   1.305   1_455 S
C1003  C1007   1.397   .     A
C1003  C1009   1.407   .     A
C1004  C1008   1.402   .     A
C1004  C1010   1.413   .     A
C1005  C1007   1.393   .     A
C1005  C1013   1.399   .     A
C1005  H1021   1.079   .     S
C1006  H1022   1.080   .     S
C1006  C1008   1.395   .     A
C1006  C1014   1.403   .     A
C1007  H1102   1.081   .     S
C1008  H1183   1.082   1_455 S
C1009  C1011   1.415   .     A
C1009  N1057   1.434   .     S
C1010  N1051   1.435   .     S
C1010  C1012   1.411   .     A
C1011  C1013   1.415   .     A
C1011  C1015   1.407   .     A
C1012  C1016   1.411   .     A
C1012  C1014   1.415   .     A
C1013  C251    1.411   1_556 S
C1015  C278    1.409   1_556 S
Cu1017 N1029   2.029   .     S
Cu1017 O1034   1.963   .     S
Cu1017 O1031   1.963   .     S
Cu1017 O1038   1.932   .     S
Cu1017 O1035   1.940   .     S
Cu1017 Cu1182  2.700   1_455 S
Cu1018 N1030   2.029   .     S
Cu1018 O1032   1.963   .     S
Cu1018 O1033   1.963   .     S
Cu1018 O1036   1.940   .     S
Cu1018 O1037   1.932   .     S
Cu1018 Cu1099  2.700   .     S
H1019  C1090   1.082   .     S
H1020  C1171   1.081   1_455 S
O1031  C1149   1.298   1_455 S
O1032  C1068   1.298   .     S
O1035  C1165   1.300   1_455 S
O1036  C1084   1.305   .     S
N1039  H1040   1.031   .     S
N1039  C1041   1.447   .     S
C1041  H1043   1.112   .     S
C1041  H1044   1.111   .     S
C1041  H1042   1.110   .     S
N1045  C1047   1.453   .     S
N1045  H1046   1.032   .     S
C1047  H1049   1.112   .     S
C1047  H1050   1.106   .     S
C1047  H1048   1.112   .     S
N1051  H1052   1.028   .     S
N1051  C1053   1.450   .     S
C1053  H1054   1.111   .     S
C1053  H1055   1.111   .     S
C1053  H1056   1.109   .     S
N1057  H1058   1.028   .     S
N1057  C1059   1.449   .     S
C1059  H1060   1.111   .     S
C1059  H1061   1.109   .     S
C1059  H1062   1.111   .     S
C1067  O1115   1.298   .     A
C1067  C1160   1.450   .     S
C1067  O1195   1.298   .     S
C1068  O1116   1.298   .     A
C1068  C1077   1.450   .     S
C1069  H1105   1.084   .     S
C1069  C1071   1.398   .     A
C1069  C1098   1.408   .     A
C1070  H1106   1.083   .     S
C1070  C1072   1.395   .     A
C1070  C1097   1.405   .     A
C1071  N1121   1.424   .     S
C1072  N1127   1.418   .     S
C1072  C358    1.408   1_556 S
C1073  H1107   1.083   .     S
C1073  C1160   1.401   .     S
C1074  H1108   1.083   .     S
C1074  C1077   1.401   .     A
C1074  C1322   1.383   .     S
C1075  H1109   1.083   .     S
C1075  C1319   1.383   .     S
C1075  C1159   1.401   .     S
C1076  H1110   1.083   .     S
C1076  C1078   1.401   .     A
C1079  F1145   1.354   .     S
C1079  N1112   1.371   .     A
C1079  C1081   1.422   .     A
C1080  C1082   1.423   .     A
C1080  F1146   1.355   .     S
C1080  N1111   1.371   .     A
C1081  F1147   1.355   .     S
C1081  N1111   1.369   .     A
C1082  N1112   1.370   .     A
C1082  F1148   1.355   .     S
C1083  O1119   1.302   .     A
C1083  C1085   1.463   .     S
C1083  O1199   1.300   .     S
C1084  C1086   1.473   .     S
C1084  O1120   1.300   .     A
C1085  C1089   1.397   .     A
C1085  C1091   1.407   .     A
C1086  C1090   1.402   .     A
C1086  C1092   1.413   .     A
C1087  C1089   1.393   .     A
C1087  C1095   1.399   .     A
C1087  H1103   1.079   .     S
C1088  H1104   1.080   .     S
C1088  C1090   1.395   .     A
C1088  C1096   1.403   .     A
C1089  H1184   1.081   .     S
C1091  C1093   1.415   .     A
C1091  N1139   1.434   .     S
C1092  N1133   1.435   .     S
C1092  C1094   1.411   .     A
C1093  C1095   1.415   .     A
C1093  C1097   1.407   .     A
C1094  C1098   1.411   .     A
C1094  C1096   1.415   .     A
C1095  C333    1.411   1_556 S
C1097  C360    1.409   1_556 S
Cu1099 N1111   2.029   .     S
Cu1099 O1116   1.963   .     S
Cu1099 O1113   1.963   .     S
Cu1099 O1120   1.932   .     S
Cu1099 O1117   1.940   .     S
Cu1100 N1112   2.029   .     S
Cu1100 O1114   1.963   .     S
Cu1100 O1115   1.963   .     S
Cu1100 O1118   1.940   .     S
Cu1100 O1119   1.932   .     S
Cu1100 Cu1181  2.700   .     S
H1101  C1172   1.082   .     S
O1114  C1150   1.298   .     S
O1118  C1166   1.305   .     S
N1121  H1122   1.031   .     S
N1121  C1123   1.447   .     S
C1123  H1125   1.112   .     S
C1123  H1126   1.111   .     S
C1123  H1124   1.110   .     S
N1127  C1129   1.453   .     S
N1127  H1128   1.032   .     S
C1129  H1131   1.112   .     S
C1129  H1132   1.106   .     S
C1129  H1130   1.112   .     S
N1133  H1134   1.028   .     S
N1133  C1135   1.450   .     S
C1135  H1136   1.111   .     S
C1135  H1137   1.111   .     S
C1135  H1138   1.109   .     S
N1139  H1140   1.028   .     S
N1139  C1141   1.449   .     S
C1141  H1142   1.111   .     S
C1141  H1143   1.109   .     S
C1141  H1144   1.111   .     S
C1149  O1197   1.298   .     A
C1149  C996    1.450   1_655 S
C1149  O1031   1.298   1_655 S
C1150  O1198   1.298   .     A
C1150  C1159   1.450   .     S
C1151  H1187   1.084   .     S
C1151  C1153   1.398   .     A
C1151  C1180   1.408   .     A
C1152  H1188   1.083   .     S
C1152  C1154   1.395   .     A
C1152  C1179   1.405   .     A
C1153  N1203   1.424   .     S
C1154  N1209   1.418   .     S
C1154  C440    1.408   1_556 S
C1155  H1189   1.083   .     S
C1155  C996    1.401   1_655 S
C1156  H1190   1.083   .     S
C1156  C1159   1.401   .     A
C1156  C1404   1.383   .     S
C1157  H1191   1.083   .     S
C1157  C1401   1.383   .     S
C1157  C995    1.401   1_655 S
C1158  H1192   1.083   .     S
C1158  C1160   1.401   .     A
C1161  F1227   1.354   .     S
C1161  N1194   1.371   .     A
C1161  C1163   1.422   .     A
C1162  C1164   1.423   .     A
C1162  F1228   1.355   .     S
C1162  N1193   1.371   .     A
C1163  F1229   1.355   .     S
C1163  N1193   1.369   .     A
C1164  N1194   1.370   .     A
C1164  F1230   1.355   .     S
C1165  O1201   1.302   .     A
C1165  C1167   1.463   .     S
C1165  O1035   1.300   1_655 S
C1166  C1168   1.473   .     S
C1166  O1202   1.300   .     A
C1167  C1171   1.397   .     A
C1167  C1173   1.407   .     A
C1168  C1172   1.402   .     A
C1168  C1174   1.413   .     A
C1169  C1171   1.393   .     A
C1169  C1177   1.399   .     A
C1169  H1185   1.079   .     S
C1170  H1186   1.080   .     S
C1170  C1172   1.395   .     A
C1170  C1178   1.403   .     A
C1171  H1020   1.081   1_655 S
C1173  C1175   1.415   .     A
C1173  N1221   1.434   .     S
C1174  N1215   1.435   .     S
C1174  C1176   1.411   .     A
C1175  C1177   1.415   .     A
C1175  C1179   1.407   .     A
C1176  C1180   1.411   .     A
C1176  C1178   1.415   .     A
C1177  C415    1.411   1_556 S
C1179  C442    1.409   1_556 S
Cu1181 N1193   2.029   .     S
Cu1181 O1198   1.963   .     S
Cu1181 O1195   1.963   .     S
Cu1181 O1202   1.932   .     S
Cu1181 O1199   1.940   .     S
Cu1182 N1194   2.029   .     S
Cu1182 O1196   1.963   .     S
Cu1182 O1197   1.963   .     S
Cu1182 O1200   1.940   .     S
Cu1182 O1201   1.932   .     S
Cu1182 Cu1017  2.700   1_655 S
H1183  C1008   1.082   1_655 S
O1196  C986    1.298   1_655 S
O1200  C1002   1.305   1_655 S
N1203  H1204   1.031   .     S
N1203  C1205   1.447   .     S
C1205  H1207   1.112   .     S
C1205  H1208   1.111   .     S
C1205  H1206   1.110   .     S
N1209  C1211   1.453   .     S
N1209  H1210   1.032   .     S
C1211  H1213   1.112   .     S
C1211  H1214   1.106   .     S
C1211  H1212   1.112   .     S
N1215  H1216   1.028   .     S
N1215  C1217   1.450   .     S
C1217  H1218   1.111   .     S
C1217  H1219   1.111   .     S
C1217  H1220   1.109   .     S
N1221  H1222   1.028   .     S
N1221  C1223   1.449   .     S
C1223  H1224   1.111   .     S
C1223  H1225   1.109   .     S
C1223  H1226   1.111   .     S
C1231  O1279   1.298   .     A
C1231  C1324   1.450   .     S
C1231  O1359   1.298   .     S
C1232  O1280   1.298   .     A
C1232  C1241   1.450   .     S
C1232  O1442   1.298   1_455 S
C1233  H1269   1.084   .     S
C1233  C1235   1.398   .     A
C1233  C1262   1.408   .     A
C1234  H1270   1.083   .     S
C1234  C1236   1.395   .     A
C1234  C1261   1.405   .     A
C1235  N1285   1.424   .     S
C1236  N1291   1.418   .     S
C1236  C522    1.408   1_556 S
C1237  H1271   1.083   .     S
C1237  C1324   1.401   .     S
C1238  H1272   1.083   .     S
C1238  C1241   1.401   .     A
C1238  C748    1.383   1_565 S
C1239  H1273   1.083   .     S
C1239  C745    1.383   1_565 S
C1239  C1323   1.401   .     S
C1240  H1274   1.083   .     S
C1240  C1242   1.401   .     A
C1241  C1403   1.401   1_455 S
C1242  C1401   1.401   1_455 S
C1242  C1395   1.450   1_455 S
C1243  F1309   1.354   .     S
C1243  N1276   1.371   .     A
C1243  C1245   1.422   .     A
C1244  C1246   1.423   .     A
C1244  F1310   1.355   .     S
C1244  N1275   1.371   .     A
C1245  F1311   1.355   .     S
C1245  N1275   1.369   .     A
C1246  N1276   1.370   .     A
C1246  F1312   1.355   .     S
C1247  O1283   1.302   .     A
C1247  C1249   1.463   .     S
C1247  O1363   1.300   .     S
C1248  C1250   1.473   .     S
C1248  O1284   1.300   .     A
C1248  O1446   1.305   1_455 S
C1249  C1253   1.397   .     A
C1249  C1255   1.407   .     A
C1250  C1254   1.402   .     A
C1250  C1256   1.413   .     A
C1251  C1253   1.393   .     A
C1251  C1259   1.399   .     A
C1251  H1267   1.079   .     S
C1252  H1268   1.080   .     S
C1252  C1254   1.395   .     A
C1252  C1260   1.403   .     A
C1253  H1348   1.081   .     S
C1254  H1429   1.082   1_455 S
C1255  C1257   1.415   .     A
C1255  N1303   1.434   .     S
C1256  N1297   1.435   .     S
C1256  C1258   1.411   .     A
C1257  C1259   1.415   .     A
C1257  C1261   1.407   .     A
C1258  C1262   1.411   .     A
C1258  C1260   1.415   .     A
C1259  C497    1.411   1_556 S
C1261  C524    1.409   1_556 S
Cu1263 N1275   2.029   .     S
Cu1263 O1280   1.963   .     S
Cu1263 O1277   1.963   .     S
Cu1263 O1284   1.932   .     S
Cu1263 O1281   1.940   .     S
Cu1263 Cu1428  2.700   1_455 S
Cu1264 N1276   2.029   .     S
Cu1264 O1278   1.963   .     S
Cu1264 O1279   1.963   .     S
Cu1264 O1282   1.940   .     S
Cu1264 O1283   1.932   .     S
Cu1264 Cu1345  2.700   .     S
H1265  C1336   1.082   .     S
H1266  C1417   1.081   1_455 S
O1277  C1395   1.298   1_455 S
O1278  C1314   1.298   .     S
O1281  C1411   1.300   1_455 S
O1282  C1330   1.305   .     S
N1285  H1286   1.031   .     S
N1285  C1287   1.447   .     S
C1287  H1289   1.112   .     S
C1287  H1290   1.111   .     S
C1287  H1288   1.110   .     S
N1291  C1293   1.453   .     S
N1291  H1292   1.032   .     S
C1293  H1295   1.112   .     S
C1293  H1296   1.106   .     S
C1293  H1294   1.112   .     S
N1297  H1298   1.028   .     S
N1297  C1299   1.450   .     S
C1299  H1300   1.111   .     S
C1299  H1301   1.111   .     S
C1299  H1302   1.109   .     S
N1303  H1304   1.028   .     S
N1303  C1305   1.449   .     S
C1305  H1306   1.111   .     S
C1305  H1307   1.109   .     S
C1305  H1308   1.111   .     S
C1313  O1361   1.298   .     A
C1313  C1406   1.450   .     S
C1313  O1441   1.298   .     S
C1314  O1362   1.298   .     A
C1314  C1323   1.450   .     S
C1315  H1351   1.084   .     S
C1315  C1317   1.398   .     A
C1315  C1344   1.408   .     A
C1316  H1352   1.083   .     S
C1316  C1318   1.395   .     A
C1316  C1343   1.405   .     A
C1317  N1367   1.424   .     S
C1318  N1373   1.418   .     S
C1318  C604    1.408   1_556 S
C1319  H1353   1.083   .     S
C1319  C1406   1.401   .     S
C1320  H1354   1.083   .     S
C1320  C1323   1.401   .     A
C1320  C830    1.383   1_565 S
C1321  H1355   1.083   .     S
C1321  C827    1.383   1_565 S
C1321  C1405   1.401   .     S
C1322  H1356   1.083   .     S
C1322  C1324   1.401   .     A
C1325  F1391   1.354   .     S
C1325  N1358   1.371   .     A
C1325  C1327   1.422   .     A
C1326  C1328   1.423   .     A
C1326  F1392   1.355   .     S
C1326  N1357   1.371   .     A
C1327  F1393   1.355   .     S
C1327  N1357   1.369   .     A
C1328  N1358   1.370   .     A
C1328  F1394   1.355   .     S
C1329  O1365   1.302   .     A
C1329  C1331   1.463   .     S
C1329  O1445   1.300   .     S
C1330  C1332   1.473   .     S
C1330  O1366   1.300   .     A
C1331  C1335   1.397   .     A
C1331  C1337   1.407   .     A
C1332  C1336   1.402   .     A
C1332  C1338   1.413   .     A
C1333  C1335   1.393   .     A
C1333  C1341   1.399   .     A
C1333  H1349   1.079   .     S
C1334  H1350   1.080   .     S
C1334  C1336   1.395   .     A
C1334  C1342   1.403   .     A
C1335  H1430   1.081   .     S
C1337  C1339   1.415   .     A
C1337  N1385   1.434   .     S
C1338  N1379   1.435   .     S
C1338  C1340   1.411   .     A
C1339  C1341   1.415   .     A
C1339  C1343   1.407   .     A
C1340  C1344   1.411   .     A
C1340  C1342   1.415   .     A
C1341  C579    1.411   1_556 S
C1343  C606    1.409   1_556 S
Cu1345 N1357   2.029   .     S
Cu1345 O1362   1.963   .     S
Cu1345 O1359   1.963   .     S
Cu1345 O1366   1.932   .     S
Cu1345 O1363   1.940   .     S
Cu1346 N1358   2.029   .     S
Cu1346 O1360   1.963   .     S
Cu1346 O1361   1.963   .     S
Cu1346 O1364   1.940   .     S
Cu1346 O1365   1.932   .     S
Cu1346 Cu1427  2.700   .     S
H1347  C1418   1.082   .     S
O1360  C1396   1.298   .     S
O1364  C1412   1.305   .     S
N1367  H1368   1.031   .     S
N1367  C1369   1.447   .     S
C1369  H1371   1.112   .     S
C1369  H1372   1.111   .     S
C1369  H1370   1.110   .     S
N1373  C1375   1.453   .     S
N1373  H1374   1.032   .     S
C1375  H1377   1.112   .     S
C1375  H1378   1.106   .     S
C1375  H1376   1.112   .     S
N1379  H1380   1.028   .     S
N1379  C1381   1.450   .     S
C1381  H1382   1.111   .     S
C1381  H1383   1.111   .     S
C1381  H1384   1.109   .     S
N1385  H1386   1.028   .     S
N1385  C1387   1.449   .     S
C1387  H1388   1.111   .     S
C1387  H1389   1.109   .     S
C1387  H1390   1.111   .     S
C1395  O1443   1.298   .     A
C1395  C1242   1.450   1_655 S
C1395  O1277   1.298   1_655 S
C1396  O1444   1.298   .     A
C1396  C1405   1.450   .     S
C1397  H1433   1.084   .     S
C1397  C1399   1.398   .     A
C1397  C1426   1.408   .     A
C1398  H1434   1.083   .     S
C1398  C1400   1.395   .     A
C1398  C1425   1.405   .     A
C1399  N1449   1.424   .     S
C1400  N1455   1.418   .     S
C1400  C686    1.408   1_556 S
C1401  H1435   1.083   .     S
C1401  C1242   1.401   1_655 S
C1402  H1436   1.083   .     S
C1402  C1405   1.401   .     A
C1402  C912    1.383   1_565 S
C1403  H1437   1.083   .     S
C1403  C909    1.383   1_565 S
C1403  C1241   1.401   1_655 S
C1404  H1438   1.083   .     S
C1404  C1406   1.401   .     A
C1407  F1473   1.354   .     S
C1407  N1440   1.371   .     A
C1407  C1409   1.422   .     A
C1408  C1410   1.423   .     A
C1408  F1474   1.355   .     S
C1408  N1439   1.371   .     A
C1409  F1475   1.355   .     S
C1409  N1439   1.369   .     A
C1410  N1440   1.370   .     A
C1410  F1476   1.355   .     S
C1411  O1447   1.302   .     A
C1411  C1413   1.463   .     S
C1411  O1281   1.300   1_655 S
C1412  C1414   1.473   .     S
C1412  O1448   1.300   .     A
C1413  C1417   1.397   .     A
C1413  C1419   1.407   .     A
C1414  C1418   1.402   .     A
C1414  C1420   1.413   .     A
C1415  C1417   1.393   .     A
C1415  C1423   1.399   .     A
C1415  H1431   1.079   .     S
C1416  H1432   1.080   .     S
C1416  C1418   1.395   .     A
C1416  C1424   1.403   .     A
C1417  H1266   1.081   1_655 S
C1419  C1421   1.415   .     A
C1419  N1467   1.434   .     S
C1420  N1461   1.435   .     S
C1420  C1422   1.411   .     A
C1421  C1423   1.415   .     A
C1421  C1425   1.407   .     A
C1422  C1426   1.411   .     A
C1422  C1424   1.415   .     A
C1423  C661    1.411   1_556 S
C1425  C688    1.409   1_556 S
Cu1427 N1439   2.029   .     S
Cu1427 O1444   1.963   .     S
Cu1427 O1441   1.963   .     S
Cu1427 O1448   1.932   .     S
Cu1427 O1445   1.940   .     S
Cu1428 N1440   2.029   .     S
Cu1428 O1442   1.963   .     S
Cu1428 O1443   1.963   .     S
Cu1428 O1446   1.940   .     S
Cu1428 O1447   1.932   .     S
Cu1428 Cu1263  2.700   1_655 S
H1429  C1254   1.082   1_655 S
O1442  C1232   1.298   1_655 S
O1446  C1248   1.305   1_655 S
N1449  H1450   1.031   .     S
N1449  C1451   1.447   .     S
C1451  H1453   1.112   .     S
C1451  H1454   1.111   .     S
C1451  H1452   1.110   .     S
N1455  C1457   1.453   .     S
N1455  H1456   1.032   .     S
C1457  H1459   1.112   .     S
C1457  H1460   1.106   .     S
C1457  H1458   1.112   .     S
N1461  H1462   1.028   .     S
N1461  C1463   1.450   .     S
C1463  H1464   1.111   .     S
C1463  H1465   1.111   .     S
C1463  H1466   1.109   .     S
N1467  H1468   1.028   .     S
N1467  C1469   1.449   .     S
C1469  H1470   1.111   .     S
C1469  H1471   1.109   .     S
C1469  H1472   1.111   .     S
