data_str_m2_o2_o10_pcu_sym.44
_audit_creation_date              2020-01-03
_audit_creation_method            'Materials Studio'
_symmetry_space_group_name_H-M    'P1'
_symmetry_Int_Tables_number       1
_symmetry_cell_setting            triclinic
loop_
_symmetry_equiv_pos_as_xyz
  x,y,z
_cell_length_a                    26.1911
_cell_length_b                    30.2723
_cell_length_c                    27.7948
_cell_angle_alpha                 89.7215
_cell_angle_beta                  97.7100
_cell_angle_gamma                 90.5318
loop_
_atom_site_label
_atom_site_type_symbol
_atom_site_fract_x
_atom_site_fract_y
_atom_site_fract_z
_atom_site_U_iso_or_equiv
_atom_site_adp_type
_atom_site_occupancy
C1     C     0.16668   0.16495   0.25008   0.00000  Uiso   1.00
C2     C     0.19267   0.28322   0.44888   0.00000  Uiso   1.00
C3     C     0.16615   0.25041   0.02729   0.00000  Uiso   1.00
C4     C     0.16630   0.25049   0.47257   0.00000  Uiso   1.00
C5     C     0.06794   0.24998   0.23761   0.00000  Uiso   1.00
C6     C     0.26539   0.25019   0.26237   0.00000  Uiso   1.00
C7     C     0.01271   0.24983   0.23073   0.00000  Uiso   1.00
C8     C     0.32061   0.25066   0.26918   0.00000  Uiso   1.00
C9     C     0.15201   0.04718   0.28952   0.00000  Uiso   1.00
C10    C     0.15047   0.45246   0.20703   0.00000  Uiso   1.00
C11    C     0.15222   0.09311   0.28973   0.00000  Uiso   1.00
C12    C     0.16679   0.33503   0.24993   0.00000  Uiso   1.00
C13    C     0.15070   0.40654   0.20692   0.00000  Uiso   1.00
C14    C     0.16688   0.11669   0.25019   0.00000  Uiso   1.00
C15    C     0.16705   0.38325   0.24984   0.00000  Uiso   1.00
C16    C     0.18170   0.09383   0.21063   0.00000  Uiso   1.00
C17    C     0.18352   0.40635   0.29279   0.00000  Uiso   1.00
C18    C     0.18213   0.04793   0.21070   0.00000  Uiso   1.00
C19    C     0.18390   0.45226   0.29278   0.00000  Uiso   1.00
C20    C     0.16711   0.02424   0.25006   0.00000  Uiso   1.00
C21    C     0.16718   0.47568   0.24995   0.00000  Uiso   1.00
C22    C     0.23864   0.34257   0.12686   0.00000  Uiso   1.00
C23    C     0.20445   0.27293   0.05852   0.00000  Uiso   1.00
C24    C     0.06057   0.18172   0.37365   0.00000  Uiso   1.00
C25    C     0.13994   0.21769   0.44295   0.00000  Uiso   1.00
C26    C     0.20296   0.27412   0.10923   0.00000  Uiso   1.00
C27    C     0.13831   0.21896   0.39172   0.00000  Uiso   1.00
C28    C     0.12937   0.22747   0.10019   0.00000  Uiso   1.00
C29    C     0.19317   0.28186   0.39837   0.00000  Uiso   1.00
C30    C     0.12783   0.22793   0.04940   0.00000  Uiso   1.00
Cu31   Cu    0.16667   0.24999   0.29822   0.00000  Uiso   1.00
Cu32   Cu    0.16667   0.25000   0.20179   0.00000  Uiso   1.00
H33    H     0.32622   0.24889   0.19378   0.00000  Uiso   1.00
H34    H     0.19782   0.46942   0.32614   0.00000  Uiso   1.00
H35    H     0.23610   0.28917   0.04423   0.00000  Uiso   1.00
H36    H     0.12123   0.19062   0.45920   0.00000  Uiso   1.00
H37    H     0.10010   0.20935   0.11626   0.00000  Uiso   1.00
H38    H     0.21445   0.30686   0.38123   0.00000  Uiso   1.00
H39    H     0.09624   0.21089   0.02801   0.00000  Uiso   1.00
H40    H     0.21272   0.31022   0.46875   0.00000  Uiso   1.00
H41    H     0.25879   0.36158   0.15789   0.00000  Uiso   1.00
H42    H     0.19856   0.35534   0.11956   0.00000  Uiso   1.00
H43    H     0.25948   0.34881   0.09520   0.00000  Uiso   1.00
H44    H     0.00710   0.25182   0.30608   0.00000  Uiso   1.00
H45    H     0.03621   0.16804   0.34132   0.00000  Uiso   1.00
H46    H     0.04284   0.21336   0.38292   0.00000  Uiso   1.00
H47    H     0.06008   0.15733   0.40355   0.00000  Uiso   1.00
H48    H     0.13942   0.02965   0.31994   0.00000  Uiso   1.00
H49    H     0.13655   0.46976   0.17372   0.00000  Uiso   1.00
H50    H     0.14025   0.11009   0.32047   0.00000  Uiso   1.00
H51    H     0.13726   0.38928   0.17351   0.00000  Uiso   1.00
H52    H     0.19360   0.11141   0.17990   0.00000  Uiso   1.00
H53    H     0.19673   0.38895   0.32624   0.00000  Uiso   1.00
H54    H     0.19479   0.03100   0.18023   0.00000  Uiso   1.00
N55    N     0.16667   0.25001   0.12935   0.00000  Uiso   1.00
N56    N     0.16667   0.24999   0.37066   0.00000  Uiso   1.00
O57    O     0.16667   0.18572   0.29072   0.00000  Uiso   1.00
O58    O     0.11116   0.18748   0.36222   0.00000  Uiso   1.00
O59    O     0.16666   0.31427   0.20929   0.00000  Uiso   1.00
O60    O     0.16667   0.18573   0.20928   0.00000  Uiso   1.00
O61    O     0.16666   0.31427   0.29072   0.00000  Uiso   1.00
O62    O     0.09161   0.24999   0.28132   0.00000  Uiso   1.00
O63    O     0.24172   0.25000   0.21868   0.00000  Uiso   1.00
O64    O     0.09161   0.25000   0.19989   0.00000  Uiso   1.00
O65    O     0.24172   0.25000   0.30012   0.00000  Uiso   1.00
O66    O     0.24001   0.29732   0.13946   0.00000  Uiso   1.00
C67    C     0.50002   0.16495   0.25008   0.00000  Uiso   1.00
C68    C     0.52601   0.28322   0.44888   0.00000  Uiso   1.00
C69    C     0.49949   0.25041   0.02729   0.00000  Uiso   1.00
C70    C     0.49964   0.25049   0.47257   0.00000  Uiso   1.00
C71    C     0.40128   0.24998   0.23761   0.00000  Uiso   1.00
C72    C     0.59872   0.25019   0.26237   0.00000  Uiso   1.00
C73    C     0.34604   0.24983   0.23073   0.00000  Uiso   1.00
C74    C     0.65394   0.25066   0.26918   0.00000  Uiso   1.00
C75    C     0.48534   0.04718   0.28952   0.00000  Uiso   1.00
C76    C     0.48381   0.45246   0.20703   0.00000  Uiso   1.00
C77    C     0.48556   0.09311   0.28973   0.00000  Uiso   1.00
C78    C     0.50013   0.33503   0.24993   0.00000  Uiso   1.00
C79    C     0.48403   0.40654   0.20692   0.00000  Uiso   1.00
C80    C     0.50022   0.11669   0.25019   0.00000  Uiso   1.00
C81    C     0.50038   0.38325   0.24984   0.00000  Uiso   1.00
C82    C     0.51504   0.09383   0.21063   0.00000  Uiso   1.00
C83    C     0.51686   0.40635   0.29279   0.00000  Uiso   1.00
C84    C     0.51547   0.04793   0.21070   0.00000  Uiso   1.00
C85    C     0.51724   0.45226   0.29278   0.00000  Uiso   1.00
C86    C     0.50044   0.02424   0.25006   0.00000  Uiso   1.00
C87    C     0.50051   0.47568   0.24995   0.00000  Uiso   1.00
C88    C     0.57197   0.34257   0.12686   0.00000  Uiso   1.00
C89    C     0.53778   0.27293   0.05852   0.00000  Uiso   1.00
C90    C     0.39391   0.18172   0.37365   0.00000  Uiso   1.00
C91    C     0.47327   0.21769   0.44295   0.00000  Uiso   1.00
C92    C     0.53630   0.27412   0.10923   0.00000  Uiso   1.00
C93    C     0.47164   0.21896   0.39172   0.00000  Uiso   1.00
C94    C     0.46270   0.22747   0.10019   0.00000  Uiso   1.00
C95    C     0.52651   0.28186   0.39837   0.00000  Uiso   1.00
C96    C     0.46116   0.22793   0.04940   0.00000  Uiso   1.00
Cu97   Cu    0.50000   0.24999   0.29822   0.00000  Uiso   1.00
Cu98   Cu    0.50000   0.25000   0.20179   0.00000  Uiso   1.00
H99    H     0.65955   0.24889   0.19378   0.00000  Uiso   1.00
H100   H     0.53115   0.46942   0.32614   0.00000  Uiso   1.00
H101   H     0.56943   0.28917   0.04423   0.00000  Uiso   1.00
H102   H     0.45456   0.19062   0.45920   0.00000  Uiso   1.00
H103   H     0.43343   0.20935   0.11626   0.00000  Uiso   1.00
H104   H     0.54778   0.30686   0.38123   0.00000  Uiso   1.00
H105   H     0.42957   0.21089   0.02801   0.00000  Uiso   1.00
H106   H     0.54605   0.31022   0.46875   0.00000  Uiso   1.00
H107   H     0.59212   0.36158   0.15789   0.00000  Uiso   1.00
H108   H     0.53189   0.35534   0.11956   0.00000  Uiso   1.00
H109   H     0.59281   0.34881   0.09520   0.00000  Uiso   1.00
H110   H     0.34043   0.25182   0.30608   0.00000  Uiso   1.00
H111   H     0.36954   0.16804   0.34132   0.00000  Uiso   1.00
H112   H     0.37617   0.21336   0.38292   0.00000  Uiso   1.00
H113   H     0.39341   0.15733   0.40355   0.00000  Uiso   1.00
H114   H     0.47275   0.02965   0.31994   0.00000  Uiso   1.00
H115   H     0.46989   0.46976   0.17372   0.00000  Uiso   1.00
H116   H     0.47358   0.11009   0.32047   0.00000  Uiso   1.00
H117   H     0.47059   0.38928   0.17351   0.00000  Uiso   1.00
H118   H     0.52693   0.11141   0.17990   0.00000  Uiso   1.00
H119   H     0.53006   0.38895   0.32624   0.00000  Uiso   1.00
H120   H     0.52813   0.03100   0.18023   0.00000  Uiso   1.00
N121   N     0.50000   0.25001   0.12935   0.00000  Uiso   1.00
N122   N     0.50000   0.24999   0.37066   0.00000  Uiso   1.00
O123   O     0.50000   0.18572   0.29072   0.00000  Uiso   1.00
O124   O     0.44449   0.18748   0.36222   0.00000  Uiso   1.00
O125   O     0.50000   0.31427   0.20929   0.00000  Uiso   1.00
O126   O     0.50000   0.18573   0.20928   0.00000  Uiso   1.00
O127   O     0.50000   0.31427   0.29072   0.00000  Uiso   1.00
O128   O     0.42495   0.24999   0.28132   0.00000  Uiso   1.00
O129   O     0.57505   0.25000   0.21868   0.00000  Uiso   1.00
O130   O     0.42495   0.25000   0.19989   0.00000  Uiso   1.00
O131   O     0.57505   0.25000   0.30012   0.00000  Uiso   1.00
O132   O     0.57334   0.29732   0.13946   0.00000  Uiso   1.00
C133   C     0.83335   0.16495   0.25008   0.00000  Uiso   1.00
C134   C     0.85934   0.28322   0.44888   0.00000  Uiso   1.00
C135   C     0.83282   0.25041   0.02729   0.00000  Uiso   1.00
C136   C     0.83297   0.25049   0.47257   0.00000  Uiso   1.00
C137   C     0.73461   0.24998   0.23761   0.00000  Uiso   1.00
C138   C     0.93205   0.25019   0.26237   0.00000  Uiso   1.00
C139   C     0.67937   0.24983   0.23073   0.00000  Uiso   1.00
C140   C     0.98728   0.25066   0.26918   0.00000  Uiso   1.00
C141   C     0.81867   0.04718   0.28952   0.00000  Uiso   1.00
C142   C     0.81714   0.45246   0.20703   0.00000  Uiso   1.00
C143   C     0.81889   0.09311   0.28973   0.00000  Uiso   1.00
C144   C     0.83346   0.33503   0.24993   0.00000  Uiso   1.00
C145   C     0.81736   0.40654   0.20692   0.00000  Uiso   1.00
C146   C     0.83355   0.11669   0.25019   0.00000  Uiso   1.00
C147   C     0.83372   0.38325   0.24984   0.00000  Uiso   1.00
C148   C     0.84837   0.09383   0.21063   0.00000  Uiso   1.00
C149   C     0.85019   0.40635   0.29279   0.00000  Uiso   1.00
C150   C     0.84880   0.04793   0.21070   0.00000  Uiso   1.00
C151   C     0.85057   0.45226   0.29278   0.00000  Uiso   1.00
C152   C     0.83377   0.02424   0.25006   0.00000  Uiso   1.00
C153   C     0.83385   0.47568   0.24995   0.00000  Uiso   1.00
C154   C     0.90531   0.34257   0.12686   0.00000  Uiso   1.00
C155   C     0.87112   0.27293   0.05852   0.00000  Uiso   1.00
C156   C     0.72724   0.18172   0.37365   0.00000  Uiso   1.00
C157   C     0.80661   0.21769   0.44295   0.00000  Uiso   1.00
C158   C     0.86963   0.27412   0.10923   0.00000  Uiso   1.00
C159   C     0.80497   0.21896   0.39172   0.00000  Uiso   1.00
C160   C     0.79604   0.22747   0.10019   0.00000  Uiso   1.00
C161   C     0.85984   0.28186   0.39837   0.00000  Uiso   1.00
C162   C     0.79449   0.22793   0.04940   0.00000  Uiso   1.00
Cu163  Cu    0.83333   0.24999   0.29822   0.00000  Uiso   1.00
Cu164  Cu    0.83333   0.25000   0.20179   0.00000  Uiso   1.00
H165   H     0.99289   0.24889   0.19378   0.00000  Uiso   1.00
H166   H     0.86449   0.46942   0.32614   0.00000  Uiso   1.00
H167   H     0.90277   0.28917   0.04423   0.00000  Uiso   1.00
H168   H     0.78789   0.19062   0.45920   0.00000  Uiso   1.00
H169   H     0.76676   0.20935   0.11626   0.00000  Uiso   1.00
H170   H     0.88112   0.30686   0.38123   0.00000  Uiso   1.00
H171   H     0.76291   0.21089   0.02801   0.00000  Uiso   1.00
H172   H     0.87939   0.31022   0.46875   0.00000  Uiso   1.00
H173   H     0.92545   0.36158   0.15789   0.00000  Uiso   1.00
H174   H     0.86523   0.35534   0.11956   0.00000  Uiso   1.00
H175   H     0.92614   0.34881   0.09520   0.00000  Uiso   1.00
H176   H     0.67377   0.25182   0.30608   0.00000  Uiso   1.00
H177   H     0.70288   0.16804   0.34132   0.00000  Uiso   1.00
H178   H     0.70950   0.21336   0.38292   0.00000  Uiso   1.00
H179   H     0.72674   0.15733   0.40355   0.00000  Uiso   1.00
H180   H     0.80609   0.02965   0.31994   0.00000  Uiso   1.00
H181   H     0.80322   0.46976   0.17372   0.00000  Uiso   1.00
H182   H     0.80692   0.11009   0.32047   0.00000  Uiso   1.00
H183   H     0.80393   0.38928   0.17351   0.00000  Uiso   1.00
H184   H     0.86027   0.11141   0.17990   0.00000  Uiso   1.00
H185   H     0.86340   0.38895   0.32624   0.00000  Uiso   1.00
H186   H     0.86146   0.03100   0.18023   0.00000  Uiso   1.00
N187   N     0.83333   0.25001   0.12935   0.00000  Uiso   1.00
N188   N     0.83333   0.24999   0.37066   0.00000  Uiso   1.00
O189   O     0.83334   0.18572   0.29072   0.00000  Uiso   1.00
O190   O     0.77783   0.18748   0.36222   0.00000  Uiso   1.00
O191   O     0.83333   0.31427   0.20929   0.00000  Uiso   1.00
O192   O     0.83334   0.18573   0.20928   0.00000  Uiso   1.00
O193   O     0.83333   0.31427   0.29072   0.00000  Uiso   1.00
O194   O     0.75828   0.24999   0.28132   0.00000  Uiso   1.00
O195   O     0.90839   0.25000   0.21868   0.00000  Uiso   1.00
O196   O     0.75828   0.25000   0.19989   0.00000  Uiso   1.00
O197   O     0.90839   0.25000   0.30012   0.00000  Uiso   1.00
O198   O     0.90668   0.29732   0.13946   0.00000  Uiso   1.00
C199   C     0.16668   0.66495   0.25008   0.00000  Uiso   1.00
C200   C     0.19267   0.78322   0.44888   0.00000  Uiso   1.00
C201   C     0.16615   0.75041   0.02729   0.00000  Uiso   1.00
C202   C     0.16630   0.75049   0.47257   0.00000  Uiso   1.00
C203   C     0.06794   0.74998   0.23761   0.00000  Uiso   1.00
C204   C     0.26539   0.75019   0.26237   0.00000  Uiso   1.00
C205   C     0.01271   0.74983   0.23073   0.00000  Uiso   1.00
C206   C     0.32061   0.75066   0.26918   0.00000  Uiso   1.00
C207   C     0.15201   0.54718   0.28952   0.00000  Uiso   1.00
C208   C     0.15047   0.95246   0.20703   0.00000  Uiso   1.00
C209   C     0.15222   0.59311   0.28973   0.00000  Uiso   1.00
C210   C     0.16679   0.83503   0.24993   0.00000  Uiso   1.00
C211   C     0.15070   0.90654   0.20692   0.00000  Uiso   1.00
C212   C     0.16688   0.61669   0.25019   0.00000  Uiso   1.00
C213   C     0.16705   0.88325   0.24984   0.00000  Uiso   1.00
C214   C     0.18170   0.59383   0.21063   0.00000  Uiso   1.00
C215   C     0.18352   0.90635   0.29279   0.00000  Uiso   1.00
C216   C     0.18213   0.54793   0.21070   0.00000  Uiso   1.00
C217   C     0.18390   0.95226   0.29278   0.00000  Uiso   1.00
C218   C     0.16711   0.52424   0.25006   0.00000  Uiso   1.00
C219   C     0.16718   0.97568   0.24995   0.00000  Uiso   1.00
C220   C     0.23864   0.84257   0.12686   0.00000  Uiso   1.00
C221   C     0.20445   0.77293   0.05852   0.00000  Uiso   1.00
C222   C     0.06057   0.68172   0.37365   0.00000  Uiso   1.00
C223   C     0.13994   0.71769   0.44295   0.00000  Uiso   1.00
C224   C     0.20296   0.77412   0.10923   0.00000  Uiso   1.00
C225   C     0.13831   0.71896   0.39172   0.00000  Uiso   1.00
C226   C     0.12937   0.72747   0.10019   0.00000  Uiso   1.00
C227   C     0.19317   0.78186   0.39837   0.00000  Uiso   1.00
C228   C     0.12783   0.72793   0.04940   0.00000  Uiso   1.00
Cu229  Cu    0.16667   0.74999   0.29822   0.00000  Uiso   1.00
Cu230  Cu    0.16667   0.75000   0.20179   0.00000  Uiso   1.00
H231   H     0.32622   0.74889   0.19378   0.00000  Uiso   1.00
H232   H     0.19782   0.96942   0.32614   0.00000  Uiso   1.00
H233   H     0.23610   0.78917   0.04423   0.00000  Uiso   1.00
H234   H     0.12123   0.69062   0.45920   0.00000  Uiso   1.00
H235   H     0.10010   0.70935   0.11626   0.00000  Uiso   1.00
H236   H     0.21445   0.80686   0.38123   0.00000  Uiso   1.00
H237   H     0.09624   0.71089   0.02801   0.00000  Uiso   1.00
H238   H     0.21272   0.81022   0.46875   0.00000  Uiso   1.00
H239   H     0.25879   0.86158   0.15789   0.00000  Uiso   1.00
H240   H     0.19856   0.85534   0.11956   0.00000  Uiso   1.00
H241   H     0.25948   0.84881   0.09520   0.00000  Uiso   1.00
H242   H     0.00710   0.75182   0.30608   0.00000  Uiso   1.00
H243   H     0.03621   0.66804   0.34132   0.00000  Uiso   1.00
H244   H     0.04284   0.71336   0.38292   0.00000  Uiso   1.00
H245   H     0.06008   0.65733   0.40355   0.00000  Uiso   1.00
H246   H     0.13942   0.52965   0.31994   0.00000  Uiso   1.00
H247   H     0.13655   0.96976   0.17372   0.00000  Uiso   1.00
H248   H     0.14025   0.61009   0.32047   0.00000  Uiso   1.00
H249   H     0.13726   0.88928   0.17351   0.00000  Uiso   1.00
H250   H     0.19360   0.61141   0.17990   0.00000  Uiso   1.00
H251   H     0.19673   0.88895   0.32624   0.00000  Uiso   1.00
H252   H     0.19479   0.53100   0.18023   0.00000  Uiso   1.00
N253   N     0.16667   0.75001   0.12935   0.00000  Uiso   1.00
N254   N     0.16667   0.74999   0.37066   0.00000  Uiso   1.00
O255   O     0.16667   0.68572   0.29072   0.00000  Uiso   1.00
O256   O     0.11116   0.68748   0.36222   0.00000  Uiso   1.00
O257   O     0.16666   0.81427   0.20929   0.00000  Uiso   1.00
O258   O     0.16667   0.68573   0.20928   0.00000  Uiso   1.00
O259   O     0.16666   0.81427   0.29072   0.00000  Uiso   1.00
O260   O     0.09161   0.74999   0.28132   0.00000  Uiso   1.00
O261   O     0.24172   0.75000   0.21868   0.00000  Uiso   1.00
O262   O     0.09161   0.75000   0.19989   0.00000  Uiso   1.00
O263   O     0.24172   0.75000   0.30012   0.00000  Uiso   1.00
O264   O     0.24001   0.79732   0.13946   0.00000  Uiso   1.00
C265   C     0.50002   0.66495   0.25008   0.00000  Uiso   1.00
C266   C     0.52601   0.78322   0.44888   0.00000  Uiso   1.00
C267   C     0.49949   0.75041   0.02729   0.00000  Uiso   1.00
C268   C     0.49964   0.75049   0.47257   0.00000  Uiso   1.00
C269   C     0.40128   0.74998   0.23761   0.00000  Uiso   1.00
C270   C     0.59872   0.75019   0.26237   0.00000  Uiso   1.00
C271   C     0.34604   0.74983   0.23073   0.00000  Uiso   1.00
C272   C     0.65394   0.75066   0.26918   0.00000  Uiso   1.00
C273   C     0.48534   0.54718   0.28952   0.00000  Uiso   1.00
C274   C     0.48381   0.95246   0.20703   0.00000  Uiso   1.00
C275   C     0.48556   0.59311   0.28973   0.00000  Uiso   1.00
C276   C     0.50013   0.83503   0.24993   0.00000  Uiso   1.00
C277   C     0.48403   0.90654   0.20692   0.00000  Uiso   1.00
C278   C     0.50022   0.61669   0.25019   0.00000  Uiso   1.00
C279   C     0.50038   0.88325   0.24984   0.00000  Uiso   1.00
C280   C     0.51504   0.59383   0.21063   0.00000  Uiso   1.00
C281   C     0.51686   0.90635   0.29279   0.00000  Uiso   1.00
C282   C     0.51547   0.54793   0.21070   0.00000  Uiso   1.00
C283   C     0.51724   0.95226   0.29278   0.00000  Uiso   1.00
C284   C     0.50044   0.52424   0.25006   0.00000  Uiso   1.00
C285   C     0.50051   0.97568   0.24995   0.00000  Uiso   1.00
C286   C     0.57197   0.84257   0.12686   0.00000  Uiso   1.00
C287   C     0.53778   0.77293   0.05852   0.00000  Uiso   1.00
C288   C     0.39391   0.68172   0.37365   0.00000  Uiso   1.00
C289   C     0.47327   0.71769   0.44295   0.00000  Uiso   1.00
C290   C     0.53630   0.77412   0.10923   0.00000  Uiso   1.00
C291   C     0.47164   0.71896   0.39172   0.00000  Uiso   1.00
C292   C     0.46270   0.72747   0.10019   0.00000  Uiso   1.00
C293   C     0.52651   0.78186   0.39837   0.00000  Uiso   1.00
C294   C     0.46116   0.72793   0.04940   0.00000  Uiso   1.00
Cu295  Cu    0.50000   0.74999   0.29822   0.00000  Uiso   1.00
Cu296  Cu    0.50000   0.75000   0.20179   0.00000  Uiso   1.00
H297   H     0.65955   0.74889   0.19378   0.00000  Uiso   1.00
H298   H     0.53115   0.96942   0.32614   0.00000  Uiso   1.00
H299   H     0.56943   0.78917   0.04423   0.00000  Uiso   1.00
H300   H     0.45456   0.69062   0.45920   0.00000  Uiso   1.00
H301   H     0.43343   0.70935   0.11626   0.00000  Uiso   1.00
H302   H     0.54778   0.80686   0.38123   0.00000  Uiso   1.00
H303   H     0.42957   0.71089   0.02801   0.00000  Uiso   1.00
H304   H     0.54605   0.81022   0.46875   0.00000  Uiso   1.00
H305   H     0.59212   0.86158   0.15789   0.00000  Uiso   1.00
H306   H     0.53189   0.85534   0.11956   0.00000  Uiso   1.00
H307   H     0.59281   0.84881   0.09520   0.00000  Uiso   1.00
H308   H     0.34043   0.75182   0.30608   0.00000  Uiso   1.00
H309   H     0.36954   0.66804   0.34132   0.00000  Uiso   1.00
H310   H     0.37617   0.71336   0.38292   0.00000  Uiso   1.00
H311   H     0.39341   0.65733   0.40355   0.00000  Uiso   1.00
H312   H     0.47275   0.52965   0.31994   0.00000  Uiso   1.00
H313   H     0.46989   0.96976   0.17372   0.00000  Uiso   1.00
H314   H     0.47358   0.61009   0.32047   0.00000  Uiso   1.00
H315   H     0.47059   0.88928   0.17351   0.00000  Uiso   1.00
H316   H     0.52693   0.61141   0.17990   0.00000  Uiso   1.00
H317   H     0.53006   0.88895   0.32624   0.00000  Uiso   1.00
H318   H     0.52813   0.53100   0.18023   0.00000  Uiso   1.00
N319   N     0.50000   0.75001   0.12935   0.00000  Uiso   1.00
N320   N     0.50000   0.74999   0.37066   0.00000  Uiso   1.00
O321   O     0.50000   0.68572   0.29072   0.00000  Uiso   1.00
O322   O     0.44449   0.68748   0.36222   0.00000  Uiso   1.00
O323   O     0.50000   0.81427   0.20929   0.00000  Uiso   1.00
O324   O     0.50000   0.68573   0.20928   0.00000  Uiso   1.00
O325   O     0.50000   0.81427   0.29072   0.00000  Uiso   1.00
O326   O     0.42495   0.74999   0.28132   0.00000  Uiso   1.00
O327   O     0.57505   0.75000   0.21868   0.00000  Uiso   1.00
O328   O     0.42495   0.75000   0.19989   0.00000  Uiso   1.00
O329   O     0.57505   0.75000   0.30012   0.00000  Uiso   1.00
O330   O     0.57334   0.79732   0.13946   0.00000  Uiso   1.00
C331   C     0.83335   0.66495   0.25008   0.00000  Uiso   1.00
C332   C     0.85934   0.78322   0.44888   0.00000  Uiso   1.00
C333   C     0.83282   0.75041   0.02729   0.00000  Uiso   1.00
C334   C     0.83297   0.75049   0.47257   0.00000  Uiso   1.00
C335   C     0.73461   0.74998   0.23761   0.00000  Uiso   1.00
C336   C     0.93205   0.75019   0.26237   0.00000  Uiso   1.00
C337   C     0.67937   0.74983   0.23073   0.00000  Uiso   1.00
C338   C     0.98728   0.75066   0.26918   0.00000  Uiso   1.00
C339   C     0.81867   0.54718   0.28952   0.00000  Uiso   1.00
C340   C     0.81714   0.95246   0.20703   0.00000  Uiso   1.00
C341   C     0.81889   0.59311   0.28973   0.00000  Uiso   1.00
C342   C     0.83346   0.83503   0.24993   0.00000  Uiso   1.00
C343   C     0.81736   0.90654   0.20692   0.00000  Uiso   1.00
C344   C     0.83355   0.61669   0.25019   0.00000  Uiso   1.00
C345   C     0.83372   0.88325   0.24984   0.00000  Uiso   1.00
C346   C     0.84837   0.59383   0.21063   0.00000  Uiso   1.00
C347   C     0.85019   0.90635   0.29279   0.00000  Uiso   1.00
C348   C     0.84880   0.54793   0.21070   0.00000  Uiso   1.00
C349   C     0.85057   0.95226   0.29278   0.00000  Uiso   1.00
C350   C     0.83377   0.52424   0.25006   0.00000  Uiso   1.00
C351   C     0.83385   0.97568   0.24995   0.00000  Uiso   1.00
C352   C     0.90531   0.84257   0.12686   0.00000  Uiso   1.00
C353   C     0.87112   0.77293   0.05852   0.00000  Uiso   1.00
C354   C     0.72724   0.68172   0.37365   0.00000  Uiso   1.00
C355   C     0.80661   0.71769   0.44295   0.00000  Uiso   1.00
C356   C     0.86963   0.77412   0.10923   0.00000  Uiso   1.00
C357   C     0.80497   0.71896   0.39172   0.00000  Uiso   1.00
C358   C     0.79604   0.72747   0.10019   0.00000  Uiso   1.00
C359   C     0.85984   0.78186   0.39837   0.00000  Uiso   1.00
C360   C     0.79449   0.72793   0.04940   0.00000  Uiso   1.00
Cu361  Cu    0.83333   0.74999   0.29822   0.00000  Uiso   1.00
Cu362  Cu    0.83333   0.75000   0.20179   0.00000  Uiso   1.00
H363   H     0.99289   0.74889   0.19378   0.00000  Uiso   1.00
H364   H     0.86449   0.96942   0.32614   0.00000  Uiso   1.00
H365   H     0.90277   0.78917   0.04423   0.00000  Uiso   1.00
H366   H     0.78789   0.69062   0.45920   0.00000  Uiso   1.00
H367   H     0.76676   0.70935   0.11626   0.00000  Uiso   1.00
H368   H     0.88112   0.80686   0.38123   0.00000  Uiso   1.00
H369   H     0.76291   0.71089   0.02801   0.00000  Uiso   1.00
H370   H     0.87939   0.81022   0.46875   0.00000  Uiso   1.00
H371   H     0.92545   0.86158   0.15789   0.00000  Uiso   1.00
H372   H     0.86523   0.85534   0.11956   0.00000  Uiso   1.00
H373   H     0.92614   0.84881   0.09520   0.00000  Uiso   1.00
H374   H     0.67377   0.75182   0.30608   0.00000  Uiso   1.00
H375   H     0.70288   0.66804   0.34132   0.00000  Uiso   1.00
H376   H     0.70950   0.71336   0.38292   0.00000  Uiso   1.00
H377   H     0.72674   0.65733   0.40355   0.00000  Uiso   1.00
H378   H     0.80609   0.52965   0.31994   0.00000  Uiso   1.00
H379   H     0.80322   0.96976   0.17372   0.00000  Uiso   1.00
H380   H     0.80692   0.61009   0.32047   0.00000  Uiso   1.00
H381   H     0.80393   0.88928   0.17351   0.00000  Uiso   1.00
H382   H     0.86027   0.61141   0.17990   0.00000  Uiso   1.00
H383   H     0.86340   0.88895   0.32624   0.00000  Uiso   1.00
H384   H     0.86146   0.53100   0.18023   0.00000  Uiso   1.00
N385   N     0.83333   0.75001   0.12935   0.00000  Uiso   1.00
N386   N     0.83333   0.74999   0.37066   0.00000  Uiso   1.00
O387   O     0.83334   0.68572   0.29072   0.00000  Uiso   1.00
O388   O     0.77783   0.68748   0.36222   0.00000  Uiso   1.00
O389   O     0.83333   0.81427   0.20929   0.00000  Uiso   1.00
O390   O     0.83334   0.68573   0.20928   0.00000  Uiso   1.00
O391   O     0.83333   0.81427   0.29072   0.00000  Uiso   1.00
O392   O     0.75828   0.74999   0.28132   0.00000  Uiso   1.00
O393   O     0.90839   0.75000   0.21868   0.00000  Uiso   1.00
O394   O     0.75828   0.75000   0.19989   0.00000  Uiso   1.00
O395   O     0.90839   0.75000   0.30012   0.00000  Uiso   1.00
O396   O     0.90668   0.79732   0.13946   0.00000  Uiso   1.00
C397   C     0.16668   0.16495   0.75008   0.00000  Uiso   1.00
C398   C     0.19267   0.28322   0.94888   0.00000  Uiso   1.00
C399   C     0.16615   0.25041   0.52729   0.00000  Uiso   1.00
C400   C     0.16630   0.25049   0.97257   0.00000  Uiso   1.00
C401   C     0.06794   0.24998   0.73761   0.00000  Uiso   1.00
C402   C     0.26539   0.25019   0.76237   0.00000  Uiso   1.00
C403   C     0.01271   0.24983   0.73073   0.00000  Uiso   1.00
C404   C     0.32061   0.25066   0.76918   0.00000  Uiso   1.00
C405   C     0.15201   0.04718   0.78952   0.00000  Uiso   1.00
C406   C     0.15047   0.45246   0.70703   0.00000  Uiso   1.00
C407   C     0.15222   0.09311   0.78973   0.00000  Uiso   1.00
C408   C     0.16679   0.33503   0.74993   0.00000  Uiso   1.00
C409   C     0.15070   0.40654   0.70692   0.00000  Uiso   1.00
C410   C     0.16688   0.11669   0.75019   0.00000  Uiso   1.00
C411   C     0.16705   0.38325   0.74984   0.00000  Uiso   1.00
C412   C     0.18170   0.09383   0.71063   0.00000  Uiso   1.00
C413   C     0.18352   0.40635   0.79279   0.00000  Uiso   1.00
C414   C     0.18213   0.04793   0.71070   0.00000  Uiso   1.00
C415   C     0.18390   0.45226   0.79278   0.00000  Uiso   1.00
C416   C     0.16711   0.02424   0.75006   0.00000  Uiso   1.00
C417   C     0.16718   0.47568   0.74995   0.00000  Uiso   1.00
C418   C     0.23864   0.34257   0.62686   0.00000  Uiso   1.00
C419   C     0.20445   0.27293   0.55852   0.00000  Uiso   1.00
C420   C     0.06057   0.18172   0.87365   0.00000  Uiso   1.00
C421   C     0.13994   0.21769   0.94295   0.00000  Uiso   1.00
C422   C     0.20296   0.27412   0.60923   0.00000  Uiso   1.00
C423   C     0.13831   0.21896   0.89172   0.00000  Uiso   1.00
C424   C     0.12937   0.22747   0.60019   0.00000  Uiso   1.00
C425   C     0.19317   0.28186   0.89837   0.00000  Uiso   1.00
C426   C     0.12783   0.22793   0.54940   0.00000  Uiso   1.00
Cu427  Cu    0.16667   0.24999   0.79822   0.00000  Uiso   1.00
Cu428  Cu    0.16667   0.25000   0.70179   0.00000  Uiso   1.00
H429   H     0.32622   0.24889   0.69378   0.00000  Uiso   1.00
H430   H     0.19782   0.46942   0.82614   0.00000  Uiso   1.00
H431   H     0.23610   0.28917   0.54423   0.00000  Uiso   1.00
H432   H     0.12123   0.19062   0.95920   0.00000  Uiso   1.00
H433   H     0.10010   0.20935   0.61626   0.00000  Uiso   1.00
H434   H     0.21445   0.30686   0.88123   0.00000  Uiso   1.00
H435   H     0.09624   0.21089   0.52801   0.00000  Uiso   1.00
H436   H     0.21272   0.31022   0.96875   0.00000  Uiso   1.00
H437   H     0.25879   0.36158   0.65789   0.00000  Uiso   1.00
H438   H     0.19856   0.35534   0.61956   0.00000  Uiso   1.00
H439   H     0.25948   0.34881   0.59520   0.00000  Uiso   1.00
H440   H     0.00710   0.25182   0.80608   0.00000  Uiso   1.00
H441   H     0.03621   0.16804   0.84132   0.00000  Uiso   1.00
H442   H     0.04284   0.21336   0.88292   0.00000  Uiso   1.00
H443   H     0.06008   0.15733   0.90355   0.00000  Uiso   1.00
H444   H     0.13942   0.02965   0.81994   0.00000  Uiso   1.00
H445   H     0.13655   0.46976   0.67372   0.00000  Uiso   1.00
H446   H     0.14025   0.11009   0.82047   0.00000  Uiso   1.00
H447   H     0.13726   0.38928   0.67351   0.00000  Uiso   1.00
H448   H     0.19360   0.11141   0.67990   0.00000  Uiso   1.00
H449   H     0.19673   0.38895   0.82624   0.00000  Uiso   1.00
H450   H     0.19479   0.03100   0.68023   0.00000  Uiso   1.00
N451   N     0.16667   0.25001   0.62935   0.00000  Uiso   1.00
N452   N     0.16667   0.24999   0.87066   0.00000  Uiso   1.00
O453   O     0.16667   0.18572   0.79072   0.00000  Uiso   1.00
O454   O     0.11116   0.18748   0.86222   0.00000  Uiso   1.00
O455   O     0.16666   0.31427   0.70929   0.00000  Uiso   1.00
O456   O     0.16667   0.18573   0.70928   0.00000  Uiso   1.00
O457   O     0.16666   0.31427   0.79072   0.00000  Uiso   1.00
O458   O     0.09161   0.24999   0.78132   0.00000  Uiso   1.00
O459   O     0.24172   0.25000   0.71868   0.00000  Uiso   1.00
O460   O     0.09161   0.25000   0.69989   0.00000  Uiso   1.00
O461   O     0.24172   0.25000   0.80012   0.00000  Uiso   1.00
O462   O     0.24001   0.29732   0.63946   0.00000  Uiso   1.00
C463   C     0.50002   0.16495   0.75008   0.00000  Uiso   1.00
C464   C     0.52601   0.28322   0.94888   0.00000  Uiso   1.00
C465   C     0.49949   0.25041   0.52729   0.00000  Uiso   1.00
C466   C     0.49964   0.25049   0.97257   0.00000  Uiso   1.00
C467   C     0.40128   0.24998   0.73761   0.00000  Uiso   1.00
C468   C     0.59872   0.25019   0.76237   0.00000  Uiso   1.00
C469   C     0.34604   0.24983   0.73073   0.00000  Uiso   1.00
C470   C     0.65394   0.25066   0.76918   0.00000  Uiso   1.00
C471   C     0.48534   0.04718   0.78952   0.00000  Uiso   1.00
C472   C     0.48381   0.45246   0.70703   0.00000  Uiso   1.00
C473   C     0.48556   0.09311   0.78973   0.00000  Uiso   1.00
C474   C     0.50013   0.33503   0.74993   0.00000  Uiso   1.00
C475   C     0.48403   0.40654   0.70692   0.00000  Uiso   1.00
C476   C     0.50022   0.11669   0.75019   0.00000  Uiso   1.00
C477   C     0.50038   0.38325   0.74984   0.00000  Uiso   1.00
C478   C     0.51504   0.09383   0.71063   0.00000  Uiso   1.00
C479   C     0.51686   0.40635   0.79279   0.00000  Uiso   1.00
C480   C     0.51547   0.04793   0.71070   0.00000  Uiso   1.00
C481   C     0.51724   0.45226   0.79278   0.00000  Uiso   1.00
C482   C     0.50044   0.02424   0.75006   0.00000  Uiso   1.00
C483   C     0.50051   0.47568   0.74995   0.00000  Uiso   1.00
C484   C     0.57197   0.34257   0.62686   0.00000  Uiso   1.00
C485   C     0.53778   0.27293   0.55852   0.00000  Uiso   1.00
C486   C     0.39391   0.18172   0.87365   0.00000  Uiso   1.00
C487   C     0.47327   0.21769   0.94295   0.00000  Uiso   1.00
C488   C     0.53630   0.27412   0.60923   0.00000  Uiso   1.00
C489   C     0.47164   0.21896   0.89172   0.00000  Uiso   1.00
C490   C     0.46270   0.22747   0.60019   0.00000  Uiso   1.00
C491   C     0.52651   0.28186   0.89837   0.00000  Uiso   1.00
C492   C     0.46116   0.22793   0.54940   0.00000  Uiso   1.00
Cu493  Cu    0.50000   0.24999   0.79822   0.00000  Uiso   1.00
Cu494  Cu    0.50000   0.25000   0.70179   0.00000  Uiso   1.00
H495   H     0.65955   0.24889   0.69378   0.00000  Uiso   1.00
H496   H     0.53115   0.46942   0.82614   0.00000  Uiso   1.00
H497   H     0.56943   0.28917   0.54423   0.00000  Uiso   1.00
H498   H     0.45456   0.19062   0.95920   0.00000  Uiso   1.00
H499   H     0.43343   0.20935   0.61626   0.00000  Uiso   1.00
H500   H     0.54778   0.30686   0.88123   0.00000  Uiso   1.00
H501   H     0.42957   0.21089   0.52801   0.00000  Uiso   1.00
H502   H     0.54605   0.31022   0.96875   0.00000  Uiso   1.00
H503   H     0.59212   0.36158   0.65789   0.00000  Uiso   1.00
H504   H     0.53189   0.35534   0.61956   0.00000  Uiso   1.00
H505   H     0.59281   0.34881   0.59520   0.00000  Uiso   1.00
H506   H     0.34043   0.25182   0.80608   0.00000  Uiso   1.00
H507   H     0.36954   0.16804   0.84132   0.00000  Uiso   1.00
H508   H     0.37617   0.21336   0.88292   0.00000  Uiso   1.00
H509   H     0.39341   0.15733   0.90355   0.00000  Uiso   1.00
H510   H     0.47275   0.02965   0.81994   0.00000  Uiso   1.00
H511   H     0.46989   0.46976   0.67372   0.00000  Uiso   1.00
H512   H     0.47358   0.11009   0.82047   0.00000  Uiso   1.00
H513   H     0.47059   0.38928   0.67351   0.00000  Uiso   1.00
H514   H     0.52693   0.11141   0.67990   0.00000  Uiso   1.00
H515   H     0.53006   0.38895   0.82624   0.00000  Uiso   1.00
H516   H     0.52813   0.03100   0.68023   0.00000  Uiso   1.00
N517   N     0.50000   0.25001   0.62935   0.00000  Uiso   1.00
N518   N     0.50000   0.24999   0.87066   0.00000  Uiso   1.00
O519   O     0.50000   0.18572   0.79072   0.00000  Uiso   1.00
O520   O     0.44449   0.18748   0.86222   0.00000  Uiso   1.00
O521   O     0.50000   0.31427   0.70929   0.00000  Uiso   1.00
O522   O     0.50000   0.18573   0.70928   0.00000  Uiso   1.00
O523   O     0.50000   0.31427   0.79072   0.00000  Uiso   1.00
O524   O     0.42495   0.24999   0.78132   0.00000  Uiso   1.00
O525   O     0.57505   0.25000   0.71868   0.00000  Uiso   1.00
O526   O     0.42495   0.25000   0.69989   0.00000  Uiso   1.00
O527   O     0.57505   0.25000   0.80012   0.00000  Uiso   1.00
O528   O     0.57334   0.29732   0.63946   0.00000  Uiso   1.00
C529   C     0.83335   0.16495   0.75008   0.00000  Uiso   1.00
C530   C     0.85934   0.28322   0.94888   0.00000  Uiso   1.00
C531   C     0.83282   0.25041   0.52729   0.00000  Uiso   1.00
C532   C     0.83297   0.25049   0.97257   0.00000  Uiso   1.00
C533   C     0.73461   0.24998   0.73761   0.00000  Uiso   1.00
C534   C     0.93205   0.25019   0.76237   0.00000  Uiso   1.00
C535   C     0.67937   0.24983   0.73073   0.00000  Uiso   1.00
C536   C     0.98728   0.25066   0.76918   0.00000  Uiso   1.00
C537   C     0.81867   0.04718   0.78952   0.00000  Uiso   1.00
C538   C     0.81714   0.45246   0.70703   0.00000  Uiso   1.00
C539   C     0.81889   0.09311   0.78973   0.00000  Uiso   1.00
C540   C     0.83346   0.33503   0.74993   0.00000  Uiso   1.00
C541   C     0.81736   0.40654   0.70692   0.00000  Uiso   1.00
C542   C     0.83355   0.11669   0.75019   0.00000  Uiso   1.00
C543   C     0.83372   0.38325   0.74984   0.00000  Uiso   1.00
C544   C     0.84837   0.09383   0.71063   0.00000  Uiso   1.00
C545   C     0.85019   0.40635   0.79279   0.00000  Uiso   1.00
C546   C     0.84880   0.04793   0.71070   0.00000  Uiso   1.00
C547   C     0.85057   0.45226   0.79278   0.00000  Uiso   1.00
C548   C     0.83377   0.02424   0.75006   0.00000  Uiso   1.00
C549   C     0.83385   0.47568   0.74995   0.00000  Uiso   1.00
C550   C     0.90531   0.34257   0.62686   0.00000  Uiso   1.00
C551   C     0.87112   0.27293   0.55852   0.00000  Uiso   1.00
C552   C     0.72724   0.18172   0.87365   0.00000  Uiso   1.00
C553   C     0.80661   0.21769   0.94295   0.00000  Uiso   1.00
C554   C     0.86963   0.27412   0.60923   0.00000  Uiso   1.00
C555   C     0.80497   0.21896   0.89172   0.00000  Uiso   1.00
C556   C     0.79604   0.22747   0.60019   0.00000  Uiso   1.00
C557   C     0.85984   0.28186   0.89837   0.00000  Uiso   1.00
C558   C     0.79449   0.22793   0.54940   0.00000  Uiso   1.00
Cu559  Cu    0.83333   0.24999   0.79822   0.00000  Uiso   1.00
Cu560  Cu    0.83333   0.25000   0.70179   0.00000  Uiso   1.00
H561   H     0.99289   0.24889   0.69378   0.00000  Uiso   1.00
H562   H     0.86449   0.46942   0.82614   0.00000  Uiso   1.00
H563   H     0.90277   0.28917   0.54423   0.00000  Uiso   1.00
H564   H     0.78789   0.19062   0.95920   0.00000  Uiso   1.00
H565   H     0.76676   0.20935   0.61626   0.00000  Uiso   1.00
H566   H     0.88112   0.30686   0.88123   0.00000  Uiso   1.00
H567   H     0.76291   0.21089   0.52801   0.00000  Uiso   1.00
H568   H     0.87939   0.31022   0.96875   0.00000  Uiso   1.00
H569   H     0.92545   0.36158   0.65789   0.00000  Uiso   1.00
H570   H     0.86523   0.35534   0.61956   0.00000  Uiso   1.00
H571   H     0.92614   0.34881   0.59520   0.00000  Uiso   1.00
H572   H     0.67377   0.25182   0.80608   0.00000  Uiso   1.00
H573   H     0.70288   0.16804   0.84132   0.00000  Uiso   1.00
H574   H     0.70950   0.21336   0.88292   0.00000  Uiso   1.00
H575   H     0.72674   0.15733   0.90355   0.00000  Uiso   1.00
H576   H     0.80609   0.02965   0.81994   0.00000  Uiso   1.00
H577   H     0.80322   0.46976   0.67372   0.00000  Uiso   1.00
H578   H     0.80692   0.11009   0.82047   0.00000  Uiso   1.00
H579   H     0.80393   0.38928   0.67351   0.00000  Uiso   1.00
H580   H     0.86027   0.11141   0.67990   0.00000  Uiso   1.00
H581   H     0.86340   0.38895   0.82624   0.00000  Uiso   1.00
H582   H     0.86146   0.03100   0.68023   0.00000  Uiso   1.00
N583   N     0.83333   0.25001   0.62935   0.00000  Uiso   1.00
N584   N     0.83333   0.24999   0.87066   0.00000  Uiso   1.00
O585   O     0.83334   0.18572   0.79072   0.00000  Uiso   1.00
O586   O     0.77783   0.18748   0.86222   0.00000  Uiso   1.00
O587   O     0.83333   0.31427   0.70929   0.00000  Uiso   1.00
O588   O     0.83334   0.18573   0.70928   0.00000  Uiso   1.00
O589   O     0.83333   0.31427   0.79072   0.00000  Uiso   1.00
O590   O     0.75828   0.24999   0.78132   0.00000  Uiso   1.00
O591   O     0.90839   0.25000   0.71868   0.00000  Uiso   1.00
O592   O     0.75828   0.25000   0.69989   0.00000  Uiso   1.00
O593   O     0.90839   0.25000   0.80012   0.00000  Uiso   1.00
O594   O     0.90668   0.29732   0.63946   0.00000  Uiso   1.00
C595   C     0.16668   0.66495   0.75008   0.00000  Uiso   1.00
C596   C     0.19267   0.78322   0.94888   0.00000  Uiso   1.00
C597   C     0.16615   0.75041   0.52729   0.00000  Uiso   1.00
C598   C     0.16630   0.75049   0.97257   0.00000  Uiso   1.00
C599   C     0.06794   0.74998   0.73761   0.00000  Uiso   1.00
C600   C     0.26539   0.75019   0.76237   0.00000  Uiso   1.00
C601   C     0.01271   0.74983   0.73073   0.00000  Uiso   1.00
C602   C     0.32061   0.75066   0.76918   0.00000  Uiso   1.00
C603   C     0.15201   0.54718   0.78952   0.00000  Uiso   1.00
C604   C     0.15047   0.95246   0.70703   0.00000  Uiso   1.00
C605   C     0.15222   0.59311   0.78973   0.00000  Uiso   1.00
C606   C     0.16679   0.83503   0.74993   0.00000  Uiso   1.00
C607   C     0.15070   0.90654   0.70692   0.00000  Uiso   1.00
C608   C     0.16688   0.61669   0.75019   0.00000  Uiso   1.00
C609   C     0.16705   0.88325   0.74984   0.00000  Uiso   1.00
C610   C     0.18170   0.59383   0.71063   0.00000  Uiso   1.00
C611   C     0.18352   0.90635   0.79279   0.00000  Uiso   1.00
C612   C     0.18213   0.54793   0.71070   0.00000  Uiso   1.00
C613   C     0.18390   0.95226   0.79278   0.00000  Uiso   1.00
C614   C     0.16711   0.52424   0.75006   0.00000  Uiso   1.00
C615   C     0.16718   0.97568   0.74995   0.00000  Uiso   1.00
C616   C     0.23864   0.84257   0.62686   0.00000  Uiso   1.00
C617   C     0.20445   0.77293   0.55852   0.00000  Uiso   1.00
C618   C     0.06057   0.68172   0.87365   0.00000  Uiso   1.00
C619   C     0.13994   0.71769   0.94295   0.00000  Uiso   1.00
C620   C     0.20296   0.77412   0.60923   0.00000  Uiso   1.00
C621   C     0.13831   0.71896   0.89172   0.00000  Uiso   1.00
C622   C     0.12937   0.72747   0.60019   0.00000  Uiso   1.00
C623   C     0.19317   0.78186   0.89837   0.00000  Uiso   1.00
C624   C     0.12783   0.72793   0.54940   0.00000  Uiso   1.00
Cu625  Cu    0.16667   0.74999   0.79822   0.00000  Uiso   1.00
Cu626  Cu    0.16667   0.75000   0.70179   0.00000  Uiso   1.00
H627   H     0.32622   0.74889   0.69378   0.00000  Uiso   1.00
H628   H     0.19782   0.96942   0.82614   0.00000  Uiso   1.00
H629   H     0.23610   0.78917   0.54423   0.00000  Uiso   1.00
H630   H     0.12123   0.69062   0.95920   0.00000  Uiso   1.00
H631   H     0.10010   0.70935   0.61626   0.00000  Uiso   1.00
H632   H     0.21445   0.80686   0.88123   0.00000  Uiso   1.00
H633   H     0.09624   0.71089   0.52801   0.00000  Uiso   1.00
H634   H     0.21272   0.81022   0.96875   0.00000  Uiso   1.00
H635   H     0.25879   0.86158   0.65789   0.00000  Uiso   1.00
H636   H     0.19856   0.85534   0.61956   0.00000  Uiso   1.00
H637   H     0.25948   0.84881   0.59520   0.00000  Uiso   1.00
H638   H     0.00710   0.75182   0.80608   0.00000  Uiso   1.00
H639   H     0.03621   0.66804   0.84132   0.00000  Uiso   1.00
H640   H     0.04284   0.71336   0.88292   0.00000  Uiso   1.00
H641   H     0.06008   0.65733   0.90355   0.00000  Uiso   1.00
H642   H     0.13942   0.52965   0.81994   0.00000  Uiso   1.00
H643   H     0.13655   0.96976   0.67372   0.00000  Uiso   1.00
H644   H     0.14025   0.61009   0.82047   0.00000  Uiso   1.00
H645   H     0.13726   0.88928   0.67351   0.00000  Uiso   1.00
H646   H     0.19360   0.61141   0.67990   0.00000  Uiso   1.00
H647   H     0.19673   0.88895   0.82624   0.00000  Uiso   1.00
H648   H     0.19479   0.53100   0.68023   0.00000  Uiso   1.00
N649   N     0.16667   0.75001   0.62935   0.00000  Uiso   1.00
N650   N     0.16667   0.74999   0.87066   0.00000  Uiso   1.00
O651   O     0.16667   0.68572   0.79072   0.00000  Uiso   1.00
O652   O     0.11116   0.68748   0.86222   0.00000  Uiso   1.00
O653   O     0.16666   0.81427   0.70929   0.00000  Uiso   1.00
O654   O     0.16667   0.68573   0.70928   0.00000  Uiso   1.00
O655   O     0.16666   0.81427   0.79072   0.00000  Uiso   1.00
O656   O     0.09161   0.74999   0.78132   0.00000  Uiso   1.00
O657   O     0.24172   0.75000   0.71868   0.00000  Uiso   1.00
O658   O     0.09161   0.75000   0.69989   0.00000  Uiso   1.00
O659   O     0.24172   0.75000   0.80012   0.00000  Uiso   1.00
O660   O     0.24001   0.79732   0.63946   0.00000  Uiso   1.00
C661   C     0.50002   0.66495   0.75008   0.00000  Uiso   1.00
C662   C     0.52601   0.78322   0.94888   0.00000  Uiso   1.00
C663   C     0.49949   0.75041   0.52729   0.00000  Uiso   1.00
C664   C     0.49964   0.75049   0.97257   0.00000  Uiso   1.00
C665   C     0.40128   0.74998   0.73761   0.00000  Uiso   1.00
C666   C     0.59872   0.75019   0.76237   0.00000  Uiso   1.00
C667   C     0.34604   0.74983   0.73073   0.00000  Uiso   1.00
C668   C     0.65394   0.75066   0.76918   0.00000  Uiso   1.00
C669   C     0.48534   0.54718   0.78952   0.00000  Uiso   1.00
C670   C     0.48381   0.95246   0.70703   0.00000  Uiso   1.00
C671   C     0.48556   0.59311   0.78973   0.00000  Uiso   1.00
C672   C     0.50013   0.83503   0.74993   0.00000  Uiso   1.00
C673   C     0.48403   0.90654   0.70692   0.00000  Uiso   1.00
C674   C     0.50022   0.61669   0.75019   0.00000  Uiso   1.00
C675   C     0.50038   0.88325   0.74984   0.00000  Uiso   1.00
C676   C     0.51504   0.59383   0.71063   0.00000  Uiso   1.00
C677   C     0.51686   0.90635   0.79279   0.00000  Uiso   1.00
C678   C     0.51547   0.54793   0.71070   0.00000  Uiso   1.00
C679   C     0.51724   0.95226   0.79278   0.00000  Uiso   1.00
C680   C     0.50044   0.52424   0.75006   0.00000  Uiso   1.00
C681   C     0.50051   0.97568   0.74995   0.00000  Uiso   1.00
C682   C     0.57197   0.84257   0.62686   0.00000  Uiso   1.00
C683   C     0.53778   0.77293   0.55852   0.00000  Uiso   1.00
C684   C     0.39391   0.68172   0.87365   0.00000  Uiso   1.00
C685   C     0.47327   0.71769   0.94295   0.00000  Uiso   1.00
C686   C     0.53630   0.77412   0.60923   0.00000  Uiso   1.00
C687   C     0.47164   0.71896   0.89172   0.00000  Uiso   1.00
C688   C     0.46270   0.72747   0.60019   0.00000  Uiso   1.00
C689   C     0.52651   0.78186   0.89837   0.00000  Uiso   1.00
C690   C     0.46116   0.72793   0.54940   0.00000  Uiso   1.00
Cu691  Cu    0.50000   0.74999   0.79822   0.00000  Uiso   1.00
Cu692  Cu    0.50000   0.75000   0.70179   0.00000  Uiso   1.00
H693   H     0.65955   0.74889   0.69378   0.00000  Uiso   1.00
H694   H     0.53115   0.96942   0.82614   0.00000  Uiso   1.00
H695   H     0.56943   0.78917   0.54423   0.00000  Uiso   1.00
H696   H     0.45456   0.69062   0.95920   0.00000  Uiso   1.00
H697   H     0.43343   0.70935   0.61626   0.00000  Uiso   1.00
H698   H     0.54778   0.80686   0.88123   0.00000  Uiso   1.00
H699   H     0.42957   0.71089   0.52801   0.00000  Uiso   1.00
H700   H     0.54605   0.81022   0.96875   0.00000  Uiso   1.00
H701   H     0.59212   0.86158   0.65789   0.00000  Uiso   1.00
H702   H     0.53189   0.85534   0.61956   0.00000  Uiso   1.00
H703   H     0.59281   0.84881   0.59520   0.00000  Uiso   1.00
H704   H     0.34043   0.75182   0.80608   0.00000  Uiso   1.00
H705   H     0.36954   0.66804   0.84132   0.00000  Uiso   1.00
H706   H     0.37617   0.71336   0.88292   0.00000  Uiso   1.00
H707   H     0.39341   0.65733   0.90355   0.00000  Uiso   1.00
H708   H     0.47275   0.52965   0.81994   0.00000  Uiso   1.00
H709   H     0.46989   0.96976   0.67372   0.00000  Uiso   1.00
H710   H     0.47358   0.61009   0.82047   0.00000  Uiso   1.00
H711   H     0.47059   0.88928   0.67351   0.00000  Uiso   1.00
H712   H     0.52693   0.61141   0.67990   0.00000  Uiso   1.00
H713   H     0.53006   0.88895   0.82624   0.00000  Uiso   1.00
H714   H     0.52813   0.53100   0.68023   0.00000  Uiso   1.00
N715   N     0.50000   0.75001   0.62935   0.00000  Uiso   1.00
N716   N     0.50000   0.74999   0.87066   0.00000  Uiso   1.00
O717   O     0.50000   0.68572   0.79072   0.00000  Uiso   1.00
O718   O     0.44449   0.68748   0.86222   0.00000  Uiso   1.00
O719   O     0.50000   0.81427   0.70929   0.00000  Uiso   1.00
O720   O     0.50000   0.68573   0.70928   0.00000  Uiso   1.00
O721   O     0.50000   0.81427   0.79072   0.00000  Uiso   1.00
O722   O     0.42495   0.74999   0.78132   0.00000  Uiso   1.00
O723   O     0.57505   0.75000   0.71868   0.00000  Uiso   1.00
O724   O     0.42495   0.75000   0.69989   0.00000  Uiso   1.00
O725   O     0.57505   0.75000   0.80012   0.00000  Uiso   1.00
O726   O     0.57334   0.79732   0.63946   0.00000  Uiso   1.00
C727   C     0.83335   0.66495   0.75008   0.00000  Uiso   1.00
C728   C     0.85934   0.78322   0.94888   0.00000  Uiso   1.00
C729   C     0.83282   0.75041   0.52729   0.00000  Uiso   1.00
C730   C     0.83297   0.75049   0.97257   0.00000  Uiso   1.00
C731   C     0.73461   0.74998   0.73761   0.00000  Uiso   1.00
C732   C     0.93205   0.75019   0.76237   0.00000  Uiso   1.00
C733   C     0.67937   0.74983   0.73073   0.00000  Uiso   1.00
C734   C     0.98728   0.75066   0.76918   0.00000  Uiso   1.00
C735   C     0.81867   0.54718   0.78952   0.00000  Uiso   1.00
C736   C     0.81714   0.95246   0.70703   0.00000  Uiso   1.00
C737   C     0.81889   0.59311   0.78973   0.00000  Uiso   1.00
C738   C     0.83346   0.83503   0.74993   0.00000  Uiso   1.00
C739   C     0.81736   0.90654   0.70692   0.00000  Uiso   1.00
C740   C     0.83355   0.61669   0.75019   0.00000  Uiso   1.00
C741   C     0.83372   0.88325   0.74984   0.00000  Uiso   1.00
C742   C     0.84837   0.59383   0.71063   0.00000  Uiso   1.00
C743   C     0.85019   0.90635   0.79279   0.00000  Uiso   1.00
C744   C     0.84880   0.54793   0.71070   0.00000  Uiso   1.00
C745   C     0.85057   0.95226   0.79278   0.00000  Uiso   1.00
C746   C     0.83377   0.52424   0.75006   0.00000  Uiso   1.00
C747   C     0.83385   0.97568   0.74995   0.00000  Uiso   1.00
C748   C     0.90531   0.84257   0.62686   0.00000  Uiso   1.00
C749   C     0.87112   0.77293   0.55852   0.00000  Uiso   1.00
C750   C     0.72724   0.68172   0.87365   0.00000  Uiso   1.00
C751   C     0.80661   0.71769   0.94295   0.00000  Uiso   1.00
C752   C     0.86963   0.77412   0.60923   0.00000  Uiso   1.00
C753   C     0.80497   0.71896   0.89172   0.00000  Uiso   1.00
C754   C     0.79604   0.72747   0.60019   0.00000  Uiso   1.00
C755   C     0.85984   0.78186   0.89837   0.00000  Uiso   1.00
C756   C     0.79449   0.72793   0.54940   0.00000  Uiso   1.00
Cu757  Cu    0.83333   0.74999   0.79822   0.00000  Uiso   1.00
Cu758  Cu    0.83333   0.75000   0.70179   0.00000  Uiso   1.00
H759   H     0.99289   0.74889   0.69378   0.00000  Uiso   1.00
H760   H     0.86449   0.96942   0.82614   0.00000  Uiso   1.00
H761   H     0.90277   0.78917   0.54423   0.00000  Uiso   1.00
H762   H     0.78789   0.69062   0.95920   0.00000  Uiso   1.00
H763   H     0.76676   0.70935   0.61626   0.00000  Uiso   1.00
H764   H     0.88112   0.80686   0.88123   0.00000  Uiso   1.00
H765   H     0.76291   0.71089   0.52801   0.00000  Uiso   1.00
H766   H     0.87939   0.81022   0.96875   0.00000  Uiso   1.00
H767   H     0.92545   0.86158   0.65789   0.00000  Uiso   1.00
H768   H     0.86523   0.85534   0.61956   0.00000  Uiso   1.00
H769   H     0.92614   0.84881   0.59520   0.00000  Uiso   1.00
H770   H     0.67377   0.75182   0.80608   0.00000  Uiso   1.00
H771   H     0.70288   0.66804   0.84132   0.00000  Uiso   1.00
H772   H     0.70950   0.71336   0.88292   0.00000  Uiso   1.00
H773   H     0.72674   0.65733   0.90355   0.00000  Uiso   1.00
H774   H     0.80609   0.52965   0.81994   0.00000  Uiso   1.00
H775   H     0.80322   0.96976   0.67372   0.00000  Uiso   1.00
H776   H     0.80692   0.61009   0.82047   0.00000  Uiso   1.00
H777   H     0.80393   0.88928   0.67351   0.00000  Uiso   1.00
H778   H     0.86027   0.61141   0.67990   0.00000  Uiso   1.00
H779   H     0.86340   0.88895   0.82624   0.00000  Uiso   1.00
H780   H     0.86146   0.53100   0.68023   0.00000  Uiso   1.00
N781   N     0.83333   0.75001   0.62935   0.00000  Uiso   1.00
N782   N     0.83333   0.74999   0.87066   0.00000  Uiso   1.00
O783   O     0.83334   0.68572   0.79072   0.00000  Uiso   1.00
O784   O     0.77783   0.68748   0.86222   0.00000  Uiso   1.00
O785   O     0.83333   0.81427   0.70929   0.00000  Uiso   1.00
O786   O     0.83334   0.68573   0.70928   0.00000  Uiso   1.00
O787   O     0.83333   0.81427   0.79072   0.00000  Uiso   1.00
O788   O     0.75828   0.74999   0.78132   0.00000  Uiso   1.00
O789   O     0.90839   0.75000   0.71868   0.00000  Uiso   1.00
O790   O     0.75828   0.75000   0.69989   0.00000  Uiso   1.00
O791   O     0.90839   0.75000   0.80012   0.00000  Uiso   1.00
O792   O     0.90668   0.79732   0.63946   0.00000  Uiso   1.00
loop_
_geom_bond_atom_site_label_1
_geom_bond_atom_site_label_2
_geom_bond_distance
_geom_bond_site_symmetry_2
_ccdc_geom_bond_type
C1     O57     1.295   .     A
C1     O60     1.294   .     A
C1     C14     1.461   .     S
C2     C4      1.413   .     A
C2     H40     1.080   .     S
C2     C29     1.407   .     A
C3     C30     1.413   .     A
C3     C23     1.408   .     A
C3     C400    1.522   1_554 S
C4     C25     1.408   .     A
C4     C399    1.522   .     S
C5     C7      1.434   .     S
C5     O62     1.288   .     A
C5     O64     1.288   .     A
C6     O63     1.287   .     A
C6     C8      1.433   .     S
C6     O65     1.288   .     A
C7     C140    1.333   1_455 S
C7     H165    1.087   1_455 S
C8     C73     1.333   .     S
C8     H110    1.086   .     S
C9     C11     1.390   .     A
C9     H48     1.083   .     S
C9     C20     1.404   .     A
C10    H49     1.083   .     S
C10    C13     1.390   .     A
C10    C21     1.404   .     A
C11    H50     1.083   .     S
C11    C14     1.402   .     A
C12    C15     1.460   .     S
C12    O61     1.294   .     A
C12    O59     1.295   .     A
C13    C15     1.401   .     A
C13    H51     1.083   .     S
C14    C16     1.402   .     A
C15    C17     1.402   .     A
C16    C18     1.390   .     A
C16    H52     1.083   .     S
C17    C19     1.390   .     A
C17    H53     1.083   .     S
C18    H54     1.083   .     S
C18    C20     1.403   .     A
C19    C21     1.403   .     A
C19    H34     1.083   .     S
C20    C219    1.470   1_545 S
C21    C218    1.470   .     S
C22    H43     1.111   .     S
C22    H42     1.115   .     S
C22    H41     1.109   .     S
C22    O66     1.412   .     S
C23    H35     1.080   .     S
C23    C26     1.416   .     A
C24    H46     1.115   .     S
C24    H45     1.109   .     S
C24    H47     1.110   .     S
C24    O58     1.412   .     S
C25    C27     1.419   .     A
C25    H36     1.079   .     S
C26    N55     1.369   .     A
C26    O66     1.384   .     S
C27    N56     1.369   .     A
C27    O58     1.387   .     S
C28    C30     1.407   .     A
C28    H37     1.082   .     S
C28    N55     1.363   .     A
C29    N56     1.363   .     A
C29    H38     1.082   .     S
C30    H39     1.080   .     S
Cu31   N56     2.013   .     S
Cu31   O61     1.956   .     S
Cu31   O57     1.958   .     S
Cu31   O62     1.959   .     S
Cu31   O65     1.959   .     S
Cu31   Cu32    2.680   .     S
Cu32   N55     2.013   .     S
Cu32   O60     1.956   .     S
Cu32   O63     1.959   .     S
Cu32   O64     1.959   .     S
Cu32   O59     1.958   .     S
H33    C73     1.087   .     S
H44    C140    1.086   1_455 S
C67    O123    1.295   .     A
C67    O126    1.294   .     A
C67    C80     1.461   .     S
C68    C70     1.413   .     A
C68    H106    1.080   .     S
C68    C95     1.407   .     A
C69    C96     1.413   .     A
C69    C89     1.408   .     A
C69    C466    1.522   1_554 S
C70    C91     1.408   .     A
C70    C465    1.522   .     S
C71    C73     1.434   .     S
C71    O128    1.288   .     A
C71    O130    1.288   .     A
C72    O129    1.287   .     A
C72    C74     1.433   .     S
C72    O131    1.288   .     A
C74    C139    1.333   .     S
C74    H176    1.086   .     S
C75    C77     1.390   .     A
C75    H114    1.083   .     S
C75    C86     1.404   .     A
C76    H115    1.083   .     S
C76    C79     1.390   .     A
C76    C87     1.404   .     A
C77    H116    1.083   .     S
C77    C80     1.402   .     A
C78    C81     1.460   .     S
C78    O127    1.294   .     A
C78    O125    1.295   .     A
C79    C81     1.401   .     A
C79    H117    1.083   .     S
C80    C82     1.402   .     A
C81    C83     1.402   .     A
C82    C84     1.390   .     A
C82    H118    1.083   .     S
C83    C85     1.390   .     A
C83    H119    1.083   .     S
C84    H120    1.083   .     S
C84    C86     1.403   .     A
C85    C87     1.403   .     A
C85    H100    1.083   .     S
C86    C285    1.470   1_545 S
C87    C284    1.470   .     S
C88    H109    1.111   .     S
C88    H108    1.115   .     S
C88    H107    1.109   .     S
C88    O132    1.412   .     S
C89    H101    1.080   .     S
C89    C92     1.416   .     A
C90    H112    1.115   .     S
C90    H111    1.109   .     S
C90    H113    1.110   .     S
C90    O124    1.412   .     S
C91    C93     1.419   .     A
C91    H102    1.079   .     S
C92    N121    1.369   .     A
C92    O132    1.384   .     S
C93    N122    1.369   .     A
C93    O124    1.387   .     S
C94    C96     1.407   .     A
C94    H103    1.082   .     S
C94    N121    1.363   .     A
C95    N122    1.363   .     A
C95    H104    1.082   .     S
C96    H105    1.080   .     S
Cu97   N122    2.013   .     S
Cu97   O127    1.956   .     S
Cu97   O123    1.958   .     S
Cu97   O128    1.959   .     S
Cu97   O131    1.959   .     S
Cu97   Cu98    2.680   .     S
Cu98   N121    2.013   .     S
Cu98   O126    1.956   .     S
Cu98   O129    1.959   .     S
Cu98   O130    1.959   .     S
Cu98   O125    1.958   .     S
H99    C139    1.087   .     S
C133   O189    1.295   .     A
C133   O192    1.294   .     A
C133   C146    1.461   .     S
C134   C136    1.413   .     A
C134   H172    1.080   .     S
C134   C161    1.407   .     A
C135   C162    1.413   .     A
C135   C155    1.408   .     A
C135   C532    1.522   1_554 S
C136   C157    1.408   .     A
C136   C531    1.522   .     S
C137   C139    1.434   .     S
C137   O194    1.288   .     A
C137   O196    1.288   .     A
C138   O195    1.287   .     A
C138   C140    1.433   .     S
C138   O197    1.288   .     A
C140   C7      1.333   1_655 S
C140   H44     1.086   1_655 S
C141   C143    1.390   .     A
C141   H180    1.083   .     S
C141   C152    1.404   .     A
C142   H181    1.083   .     S
C142   C145    1.390   .     A
C142   C153    1.404   .     A
C143   H182    1.083   .     S
C143   C146    1.402   .     A
C144   C147    1.460   .     S
C144   O193    1.294   .     A
C144   O191    1.295   .     A
C145   C147    1.401   .     A
C145   H183    1.083   .     S
C146   C148    1.402   .     A
C147   C149    1.402   .     A
C148   C150    1.390   .     A
C148   H184    1.083   .     S
C149   C151    1.390   .     A
C149   H185    1.083   .     S
C150   H186    1.083   .     S
C150   C152    1.403   .     A
C151   C153    1.403   .     A
C151   H166    1.083   .     S
C152   C351    1.470   1_545 S
C153   C350    1.470   .     S
C154   H175    1.111   .     S
C154   H174    1.115   .     S
C154   H173    1.109   .     S
C154   O198    1.412   .     S
C155   H167    1.080   .     S
C155   C158    1.416   .     A
C156   H178    1.115   .     S
C156   H177    1.109   .     S
C156   H179    1.110   .     S
C156   O190    1.412   .     S
C157   C159    1.419   .     A
C157   H168    1.079   .     S
C158   N187    1.369   .     A
C158   O198    1.384   .     S
C159   N188    1.369   .     A
C159   O190    1.387   .     S
C160   C162    1.407   .     A
C160   H169    1.082   .     S
C160   N187    1.363   .     A
C161   N188    1.363   .     A
C161   H170    1.082   .     S
C162   H171    1.080   .     S
Cu163  N188    2.013   .     S
Cu163  O193    1.956   .     S
Cu163  O189    1.958   .     S
Cu163  O194    1.959   .     S
Cu163  O197    1.959   .     S
Cu163  Cu164   2.680   .     S
Cu164  N187    2.013   .     S
Cu164  O192    1.956   .     S
Cu164  O195    1.959   .     S
Cu164  O196    1.959   .     S
Cu164  O191    1.958   .     S
H165   C7      1.087   1_655 S
C199   O255    1.295   .     A
C199   O258    1.294   .     A
C199   C212    1.461   .     S
C200   C202    1.413   .     A
C200   H238    1.080   .     S
C200   C227    1.407   .     A
C201   C228    1.413   .     A
C201   C221    1.408   .     A
C201   C598    1.522   1_554 S
C202   C223    1.408   .     A
C202   C597    1.522   .     S
C203   C205    1.434   .     S
C203   O260    1.288   .     A
C203   O262    1.288   .     A
C204   O261    1.287   .     A
C204   C206    1.433   .     S
C204   O263    1.288   .     A
C205   C338    1.333   1_455 S
C205   H363    1.087   1_455 S
C206   C271    1.333   .     S
C206   H308    1.086   .     S
C207   C209    1.390   .     A
C207   H246    1.083   .     S
C207   C218    1.404   .     A
C208   H247    1.083   .     S
C208   C211    1.390   .     A
C208   C219    1.404   .     A
C209   H248    1.083   .     S
C209   C212    1.402   .     A
C210   C213    1.460   .     S
C210   O259    1.294   .     A
C210   O257    1.295   .     A
C211   C213    1.401   .     A
C211   H249    1.083   .     S
C212   C214    1.402   .     A
C213   C215    1.402   .     A
C214   C216    1.390   .     A
C214   H250    1.083   .     S
C215   C217    1.390   .     A
C215   H251    1.083   .     S
C216   H252    1.083   .     S
C216   C218    1.403   .     A
C217   C219    1.403   .     A
C217   H232    1.083   .     S
C219   C20     1.470   1_565 S
C220   H241    1.111   .     S
C220   H240    1.115   .     S
C220   H239    1.109   .     S
C220   O264    1.412   .     S
C221   H233    1.080   .     S
C221   C224    1.416   .     A
C222   H244    1.115   .     S
C222   H243    1.109   .     S
C222   H245    1.110   .     S
C222   O256    1.412   .     S
C223   C225    1.419   .     A
C223   H234    1.079   .     S
C224   N253    1.369   .     A
C224   O264    1.384   .     S
C225   N254    1.369   .     A
C225   O256    1.387   .     S
C226   C228    1.407   .     A
C226   H235    1.082   .     S
C226   N253    1.363   .     A
C227   N254    1.363   .     A
C227   H236    1.082   .     S
C228   H237    1.080   .     S
Cu229  N254    2.013   .     S
Cu229  O259    1.956   .     S
Cu229  O255    1.958   .     S
Cu229  O260    1.959   .     S
Cu229  O263    1.959   .     S
Cu229  Cu230   2.680   .     S
Cu230  N253    2.013   .     S
Cu230  O258    1.956   .     S
Cu230  O261    1.959   .     S
Cu230  O262    1.959   .     S
Cu230  O257    1.958   .     S
H231   C271    1.087   .     S
H242   C338    1.086   1_455 S
C265   O321    1.295   .     A
C265   O324    1.294   .     A
C265   C278    1.461   .     S
C266   C268    1.413   .     A
C266   H304    1.080   .     S
C266   C293    1.407   .     A
C267   C294    1.413   .     A
C267   C287    1.408   .     A
C267   C664    1.522   1_554 S
C268   C289    1.408   .     A
C268   C663    1.522   .     S
C269   C271    1.434   .     S
C269   O326    1.288   .     A
C269   O328    1.288   .     A
C270   O327    1.287   .     A
C270   C272    1.433   .     S
C270   O329    1.288   .     A
C272   C337    1.333   .     S
C272   H374    1.086   .     S
C273   C275    1.390   .     A
C273   H312    1.083   .     S
C273   C284    1.404   .     A
C274   H313    1.083   .     S
C274   C277    1.390   .     A
C274   C285    1.404   .     A
C275   H314    1.083   .     S
C275   C278    1.402   .     A
C276   C279    1.460   .     S
C276   O325    1.294   .     A
C276   O323    1.295   .     A
C277   C279    1.401   .     A
C277   H315    1.083   .     S
C278   C280    1.402   .     A
C279   C281    1.402   .     A
C280   C282    1.390   .     A
C280   H316    1.083   .     S
C281   C283    1.390   .     A
C281   H317    1.083   .     S
C282   H318    1.083   .     S
C282   C284    1.403   .     A
C283   C285    1.403   .     A
C283   H298    1.083   .     S
C285   C86     1.470   1_565 S
C286   H307    1.111   .     S
C286   H306    1.115   .     S
C286   H305    1.109   .     S
C286   O330    1.412   .     S
C287   H299    1.080   .     S
C287   C290    1.416   .     A
C288   H310    1.115   .     S
C288   H309    1.109   .     S
C288   H311    1.110   .     S
C288   O322    1.412   .     S
C289   C291    1.419   .     A
C289   H300    1.079   .     S
C290   N319    1.369   .     A
C290   O330    1.384   .     S
C291   N320    1.369   .     A
C291   O322    1.387   .     S
C292   C294    1.407   .     A
C292   H301    1.082   .     S
C292   N319    1.363   .     A
C293   N320    1.363   .     A
C293   H302    1.082   .     S
C294   H303    1.080   .     S
Cu295  N320    2.013   .     S
Cu295  O325    1.956   .     S
Cu295  O321    1.958   .     S
Cu295  O326    1.959   .     S
Cu295  O329    1.959   .     S
Cu295  Cu296   2.680   .     S
Cu296  N319    2.013   .     S
Cu296  O324    1.956   .     S
Cu296  O327    1.959   .     S
Cu296  O328    1.959   .     S
Cu296  O323    1.958   .     S
H297   C337    1.087   .     S
C331   O387    1.295   .     A
C331   O390    1.294   .     A
C331   C344    1.461   .     S
C332   C334    1.413   .     A
C332   H370    1.080   .     S
C332   C359    1.407   .     A
C333   C360    1.413   .     A
C333   C353    1.408   .     A
C333   C730    1.522   1_554 S
C334   C355    1.408   .     A
C334   C729    1.522   .     S
C335   C337    1.434   .     S
C335   O392    1.288   .     A
C335   O394    1.288   .     A
C336   O393    1.287   .     A
C336   C338    1.433   .     S
C336   O395    1.288   .     A
C338   C205    1.333   1_655 S
C338   H242    1.086   1_655 S
C339   C341    1.390   .     A
C339   H378    1.083   .     S
C339   C350    1.404   .     A
C340   H379    1.083   .     S
C340   C343    1.390   .     A
C340   C351    1.404   .     A
C341   H380    1.083   .     S
C341   C344    1.402   .     A
C342   C345    1.460   .     S
C342   O391    1.294   .     A
C342   O389    1.295   .     A
C343   C345    1.401   .     A
C343   H381    1.083   .     S
C344   C346    1.402   .     A
C345   C347    1.402   .     A
C346   C348    1.390   .     A
C346   H382    1.083   .     S
C347   C349    1.390   .     A
C347   H383    1.083   .     S
C348   H384    1.083   .     S
C348   C350    1.403   .     A
C349   C351    1.403   .     A
C349   H364    1.083   .     S
C351   C152    1.470   1_565 S
C352   H373    1.111   .     S
C352   H372    1.115   .     S
C352   H371    1.109   .     S
C352   O396    1.412   .     S
C353   H365    1.080   .     S
C353   C356    1.416   .     A
C354   H376    1.115   .     S
C354   H375    1.109   .     S
C354   H377    1.110   .     S
C354   O388    1.412   .     S
C355   C357    1.419   .     A
C355   H366    1.079   .     S
C356   N385    1.369   .     A
C356   O396    1.384   .     S
C357   N386    1.369   .     A
C357   O388    1.387   .     S
C358   C360    1.407   .     A
C358   H367    1.082   .     S
C358   N385    1.363   .     A
C359   N386    1.363   .     A
C359   H368    1.082   .     S
C360   H369    1.080   .     S
Cu361  N386    2.013   .     S
Cu361  O391    1.956   .     S
Cu361  O387    1.958   .     S
Cu361  O392    1.959   .     S
Cu361  O395    1.959   .     S
Cu361  Cu362   2.680   .     S
Cu362  N385    2.013   .     S
Cu362  O390    1.956   .     S
Cu362  O393    1.959   .     S
Cu362  O394    1.959   .     S
Cu362  O389    1.958   .     S
H363   C205    1.087   1_655 S
C397   O453    1.295   .     A
C397   O456    1.294   .     A
C397   C410    1.461   .     S
C398   C400    1.413   .     A
C398   H436    1.080   .     S
C398   C425    1.407   .     A
C399   C426    1.413   .     A
C399   C419    1.408   .     A
C400   C421    1.408   .     A
C400   C3      1.522   1_556 S
C401   C403    1.434   .     S
C401   O458    1.288   .     A
C401   O460    1.288   .     A
C402   O459    1.287   .     A
C402   C404    1.433   .     S
C402   O461    1.288   .     A
C403   C536    1.333   1_455 S
C403   H561    1.087   1_455 S
C404   C469    1.333   .     S
C404   H506    1.086   .     S
C405   C407    1.390   .     A
C405   H444    1.083   .     S
C405   C416    1.404   .     A
C406   H445    1.083   .     S
C406   C409    1.390   .     A
C406   C417    1.404   .     A
C407   H446    1.083   .     S
C407   C410    1.402   .     A
C408   C411    1.460   .     S
C408   O457    1.294   .     A
C408   O455    1.295   .     A
C409   C411    1.401   .     A
C409   H447    1.083   .     S
C410   C412    1.402   .     A
C411   C413    1.402   .     A
C412   C414    1.390   .     A
C412   H448    1.083   .     S
C413   C415    1.390   .     A
C413   H449    1.083   .     S
C414   H450    1.083   .     S
C414   C416    1.403   .     A
C415   C417    1.403   .     A
C415   H430    1.083   .     S
C416   C615    1.470   1_545 S
C417   C614    1.470   .     S
C418   H439    1.111   .     S
C418   H438    1.115   .     S
C418   H437    1.109   .     S
C418   O462    1.412   .     S
C419   H431    1.080   .     S
C419   C422    1.416   .     A
C420   H442    1.115   .     S
C420   H441    1.109   .     S
C420   H443    1.110   .     S
C420   O454    1.412   .     S
C421   C423    1.419   .     A
C421   H432    1.079   .     S
C422   N451    1.369   .     A
C422   O462    1.384   .     S
C423   N452    1.369   .     A
C423   O454    1.387   .     S
C424   C426    1.407   .     A
C424   H433    1.082   .     S
C424   N451    1.363   .     A
C425   N452    1.363   .     A
C425   H434    1.082   .     S
C426   H435    1.080   .     S
Cu427  N452    2.013   .     S
Cu427  O457    1.956   .     S
Cu427  O453    1.958   .     S
Cu427  O458    1.959   .     S
Cu427  O461    1.959   .     S
Cu427  Cu428   2.680   .     S
Cu428  N451    2.013   .     S
Cu428  O456    1.956   .     S
Cu428  O459    1.959   .     S
Cu428  O460    1.959   .     S
Cu428  O455    1.958   .     S
H429   C469    1.087   .     S
H440   C536    1.086   1_455 S
C463   O519    1.295   .     A
C463   O522    1.294   .     A
C463   C476    1.461   .     S
C464   C466    1.413   .     A
C464   H502    1.080   .     S
C464   C491    1.407   .     A
C465   C492    1.413   .     A
C465   C485    1.408   .     A
C466   C487    1.408   .     A
C466   C69     1.522   1_556 S
C467   C469    1.434   .     S
C467   O524    1.288   .     A
C467   O526    1.288   .     A
C468   O525    1.287   .     A
C468   C470    1.433   .     S
C468   O527    1.288   .     A
C470   C535    1.333   .     S
C470   H572    1.086   .     S
C471   C473    1.390   .     A
C471   H510    1.083   .     S
C471   C482    1.404   .     A
C472   H511    1.083   .     S
C472   C475    1.390   .     A
C472   C483    1.404   .     A
C473   H512    1.083   .     S
C473   C476    1.402   .     A
C474   C477    1.460   .     S
C474   O523    1.294   .     A
C474   O521    1.295   .     A
C475   C477    1.401   .     A
C475   H513    1.083   .     S
C476   C478    1.402   .     A
C477   C479    1.402   .     A
C478   C480    1.390   .     A
C478   H514    1.083   .     S
C479   C481    1.390   .     A
C479   H515    1.083   .     S
C480   H516    1.083   .     S
C480   C482    1.403   .     A
C481   C483    1.403   .     A
C481   H496    1.083   .     S
C482   C681    1.470   1_545 S
C483   C680    1.470   .     S
C484   H505    1.111   .     S
C484   H504    1.115   .     S
C484   H503    1.109   .     S
C484   O528    1.412   .     S
C485   H497    1.080   .     S
C485   C488    1.416   .     A
C486   H508    1.115   .     S
C486   H507    1.109   .     S
C486   H509    1.110   .     S
C486   O520    1.412   .     S
C487   C489    1.419   .     A
C487   H498    1.079   .     S
C488   N517    1.369   .     A
C488   O528    1.384   .     S
C489   N518    1.369   .     A
C489   O520    1.387   .     S
C490   C492    1.407   .     A
C490   H499    1.082   .     S
C490   N517    1.363   .     A
C491   N518    1.363   .     A
C491   H500    1.082   .     S
C492   H501    1.080   .     S
Cu493  N518    2.013   .     S
Cu493  O523    1.956   .     S
Cu493  O519    1.958   .     S
Cu493  O524    1.959   .     S
Cu493  O527    1.959   .     S
Cu493  Cu494   2.680   .     S
Cu494  N517    2.013   .     S
Cu494  O522    1.956   .     S
Cu494  O525    1.959   .     S
Cu494  O526    1.959   .     S
Cu494  O521    1.958   .     S
H495   C535    1.087   .     S
C529   O585    1.295   .     A
C529   O588    1.294   .     A
C529   C542    1.461   .     S
C530   C532    1.413   .     A
C530   H568    1.080   .     S
C530   C557    1.407   .     A
C531   C558    1.413   .     A
C531   C551    1.408   .     A
C532   C553    1.408   .     A
C532   C135    1.522   1_556 S
C533   C535    1.434   .     S
C533   O590    1.288   .     A
C533   O592    1.288   .     A
C534   O591    1.287   .     A
C534   C536    1.433   .     S
C534   O593    1.288   .     A
C536   C403    1.333   1_655 S
C536   H440    1.086   1_655 S
C537   C539    1.390   .     A
C537   H576    1.083   .     S
C537   C548    1.404   .     A
C538   H577    1.083   .     S
C538   C541    1.390   .     A
C538   C549    1.404   .     A
C539   H578    1.083   .     S
C539   C542    1.402   .     A
C540   C543    1.460   .     S
C540   O589    1.294   .     A
C540   O587    1.295   .     A
C541   C543    1.401   .     A
C541   H579    1.083   .     S
C542   C544    1.402   .     A
C543   C545    1.402   .     A
C544   C546    1.390   .     A
C544   H580    1.083   .     S
C545   C547    1.390   .     A
C545   H581    1.083   .     S
C546   H582    1.083   .     S
C546   C548    1.403   .     A
C547   C549    1.403   .     A
C547   H562    1.083   .     S
C548   C747    1.470   1_545 S
C549   C746    1.470   .     S
C550   H571    1.111   .     S
C550   H570    1.115   .     S
C550   H569    1.109   .     S
C550   O594    1.412   .     S
C551   H563    1.080   .     S
C551   C554    1.416   .     A
C552   H574    1.115   .     S
C552   H573    1.109   .     S
C552   H575    1.110   .     S
C552   O586    1.412   .     S
C553   C555    1.419   .     A
C553   H564    1.079   .     S
C554   N583    1.369   .     A
C554   O594    1.384   .     S
C555   N584    1.369   .     A
C555   O586    1.387   .     S
C556   C558    1.407   .     A
C556   H565    1.082   .     S
C556   N583    1.363   .     A
C557   N584    1.363   .     A
C557   H566    1.082   .     S
C558   H567    1.080   .     S
Cu559  N584    2.013   .     S
Cu559  O589    1.956   .     S
Cu559  O585    1.958   .     S
Cu559  O590    1.959   .     S
Cu559  O593    1.959   .     S
Cu559  Cu560   2.680   .     S
Cu560  N583    2.013   .     S
Cu560  O588    1.956   .     S
Cu560  O591    1.959   .     S
Cu560  O592    1.959   .     S
Cu560  O587    1.958   .     S
H561   C403    1.087   1_655 S
C595   O651    1.295   .     A
C595   O654    1.294   .     A
C595   C608    1.461   .     S
C596   C598    1.413   .     A
C596   H634    1.080   .     S
C596   C623    1.407   .     A
C597   C624    1.413   .     A
C597   C617    1.408   .     A
C598   C619    1.408   .     A
C598   C201    1.522   1_556 S
C599   C601    1.434   .     S
C599   O656    1.288   .     A
C599   O658    1.288   .     A
C600   O657    1.287   .     A
C600   C602    1.433   .     S
C600   O659    1.288   .     A
C601   C734    1.333   1_455 S
C601   H759    1.087   1_455 S
C602   C667    1.333   .     S
C602   H704    1.086   .     S
C603   C605    1.390   .     A
C603   H642    1.083   .     S
C603   C614    1.404   .     A
C604   H643    1.083   .     S
C604   C607    1.390   .     A
C604   C615    1.404   .     A
C605   H644    1.083   .     S
C605   C608    1.402   .     A
C606   C609    1.460   .     S
C606   O655    1.294   .     A
C606   O653    1.295   .     A
C607   C609    1.401   .     A
C607   H645    1.083   .     S
C608   C610    1.402   .     A
C609   C611    1.402   .     A
C610   C612    1.390   .     A
C610   H646    1.083   .     S
C611   C613    1.390   .     A
C611   H647    1.083   .     S
C612   H648    1.083   .     S
C612   C614    1.403   .     A
C613   C615    1.403   .     A
C613   H628    1.083   .     S
C615   C416    1.470   1_565 S
C616   H637    1.111   .     S
C616   H636    1.115   .     S
C616   H635    1.109   .     S
C616   O660    1.412   .     S
C617   H629    1.080   .     S
C617   C620    1.416   .     A
C618   H640    1.115   .     S
C618   H639    1.109   .     S
C618   H641    1.110   .     S
C618   O652    1.412   .     S
C619   C621    1.419   .     A
C619   H630    1.079   .     S
C620   N649    1.369   .     A
C620   O660    1.384   .     S
C621   N650    1.369   .     A
C621   O652    1.387   .     S
C622   C624    1.407   .     A
C622   H631    1.082   .     S
C622   N649    1.363   .     A
C623   N650    1.363   .     A
C623   H632    1.082   .     S
C624   H633    1.080   .     S
Cu625  N650    2.013   .     S
Cu625  O655    1.956   .     S
Cu625  O651    1.958   .     S
Cu625  O656    1.959   .     S
Cu625  O659    1.959   .     S
Cu625  Cu626   2.680   .     S
Cu626  N649    2.013   .     S
Cu626  O654    1.956   .     S
Cu626  O657    1.959   .     S
Cu626  O658    1.959   .     S
Cu626  O653    1.958   .     S
H627   C667    1.087   .     S
H638   C734    1.086   1_455 S
C661   O717    1.295   .     A
C661   O720    1.294   .     A
C661   C674    1.461   .     S
C662   C664    1.413   .     A
C662   H700    1.080   .     S
C662   C689    1.407   .     A
C663   C690    1.413   .     A
C663   C683    1.408   .     A
C664   C685    1.408   .     A
C664   C267    1.522   1_556 S
C665   C667    1.434   .     S
C665   O722    1.288   .     A
C665   O724    1.288   .     A
C666   O723    1.287   .     A
C666   C668    1.433   .     S
C666   O725    1.288   .     A
C668   C733    1.333   .     S
C668   H770    1.086   .     S
C669   C671    1.390   .     A
C669   H708    1.083   .     S
C669   C680    1.404   .     A
C670   H709    1.083   .     S
C670   C673    1.390   .     A
C670   C681    1.404   .     A
C671   H710    1.083   .     S
C671   C674    1.402   .     A
C672   C675    1.460   .     S
C672   O721    1.294   .     A
C672   O719    1.295   .     A
C673   C675    1.401   .     A
C673   H711    1.083   .     S
C674   C676    1.402   .     A
C675   C677    1.402   .     A
C676   C678    1.390   .     A
C676   H712    1.083   .     S
C677   C679    1.390   .     A
C677   H713    1.083   .     S
C678   H714    1.083   .     S
C678   C680    1.403   .     A
C679   C681    1.403   .     A
C679   H694    1.083   .     S
C681   C482    1.470   1_565 S
C682   H703    1.111   .     S
C682   H702    1.115   .     S
C682   H701    1.109   .     S
C682   O726    1.412   .     S
C683   H695    1.080   .     S
C683   C686    1.416   .     A
C684   H706    1.115   .     S
C684   H705    1.109   .     S
C684   H707    1.110   .     S
C684   O718    1.412   .     S
C685   C687    1.419   .     A
C685   H696    1.079   .     S
C686   N715    1.369   .     A
C686   O726    1.384   .     S
C687   N716    1.369   .     A
C687   O718    1.387   .     S
C688   C690    1.407   .     A
C688   H697    1.082   .     S
C688   N715    1.363   .     A
C689   N716    1.363   .     A
C689   H698    1.082   .     S
C690   H699    1.080   .     S
Cu691  N716    2.013   .     S
Cu691  O721    1.956   .     S
Cu691  O717    1.958   .     S
Cu691  O722    1.959   .     S
Cu691  O725    1.959   .     S
Cu691  Cu692   2.680   .     S
Cu692  N715    2.013   .     S
Cu692  O720    1.956   .     S
Cu692  O723    1.959   .     S
Cu692  O724    1.959   .     S
Cu692  O719    1.958   .     S
H693   C733    1.087   .     S
C727   O783    1.295   .     A
C727   O786    1.294   .     A
C727   C740    1.461   .     S
C728   C730    1.413   .     A
C728   H766    1.080   .     S
C728   C755    1.407   .     A
C729   C756    1.413   .     A
C729   C749    1.408   .     A
C730   C751    1.408   .     A
C730   C333    1.522   1_556 S
C731   C733    1.434   .     S
C731   O788    1.288   .     A
C731   O790    1.288   .     A
C732   O789    1.287   .     A
C732   C734    1.433   .     S
C732   O791    1.288   .     A
C734   C601    1.333   1_655 S
C734   H638    1.086   1_655 S
C735   C737    1.390   .     A
C735   H774    1.083   .     S
C735   C746    1.404   .     A
C736   H775    1.083   .     S
C736   C739    1.390   .     A
C736   C747    1.404   .     A
C737   H776    1.083   .     S
C737   C740    1.402   .     A
C738   C741    1.460   .     S
C738   O787    1.294   .     A
C738   O785    1.295   .     A
C739   C741    1.401   .     A
C739   H777    1.083   .     S
C740   C742    1.402   .     A
C741   C743    1.402   .     A
C742   C744    1.390   .     A
C742   H778    1.083   .     S
C743   C745    1.390   .     A
C743   H779    1.083   .     S
C744   H780    1.083   .     S
C744   C746    1.403   .     A
C745   C747    1.403   .     A
C745   H760    1.083   .     S
C747   C548    1.470   1_565 S
C748   H769    1.111   .     S
C748   H768    1.115   .     S
C748   H767    1.109   .     S
C748   O792    1.412   .     S
C749   H761    1.080   .     S
C749   C752    1.416   .     A
C750   H772    1.115   .     S
C750   H771    1.109   .     S
C750   H773    1.110   .     S
C750   O784    1.412   .     S
C751   C753    1.419   .     A
C751   H762    1.079   .     S
C752   N781    1.369   .     A
C752   O792    1.384   .     S
C753   N782    1.369   .     A
C753   O784    1.387   .     S
C754   C756    1.407   .     A
C754   H763    1.082   .     S
C754   N781    1.363   .     A
C755   N782    1.363   .     A
C755   H764    1.082   .     S
C756   H765    1.080   .     S
Cu757  N782    2.013   .     S
Cu757  O787    1.956   .     S
Cu757  O783    1.958   .     S
Cu757  O788    1.959   .     S
Cu757  O791    1.959   .     S
Cu757  Cu758   2.680   .     S
Cu758  N781    2.013   .     S
Cu758  O786    1.956   .     S
Cu758  O789    1.959   .     S
Cu758  O790    1.959   .     S
Cu758  O785    1.958   .     S
H759   C601    1.087   1_655 S
