data_str_m2_o2_o5_pcu_sym.130
_audit_creation_date              2020-01-03
_audit_creation_method            'Materials Studio'
_symmetry_space_group_name_H-M    'P1'
_symmetry_Int_Tables_number       1
_symmetry_cell_setting            triclinic
loop_
_symmetry_equiv_pos_as_xyz
  x,y,z
_cell_length_a                    30.2815
_cell_length_b                    27.7397
_cell_length_c                    27.2575
_cell_angle_alpha                 90.0000
_cell_angle_beta                  90.1553
_cell_angle_gamma                 90.0000
loop_
_atom_site_label
_atom_site_type_symbol
_atom_site_fract_x
_atom_site_fract_y
_atom_site_fract_z
_atom_site_U_iso_or_equiv
_atom_site_adp_type
_atom_site_occupancy
C1     C     0.16494   0.25000   0.16663   0.00000  Uiso   1.00
C2     C     0.33506   0.25000   0.16670   0.00000  Uiso   1.00
C3     C     0.28382   0.10466   0.18827   0.00000  Uiso   1.00
C4     C     0.22851   0.39530   0.13048   0.00000  Uiso   1.00
C5     C     0.21618   0.10466   0.14507   0.00000  Uiso   1.00
C6     C     0.27149   0.39530   0.20285   0.00000  Uiso   1.00
C7     C     0.28463   0.05394   0.18835   0.00000  Uiso   1.00
C8     C     0.22838   0.44603   0.12959   0.00000  Uiso   1.00
C9     C     0.21537   0.05394   0.14498   0.00000  Uiso   1.00
C10    C     0.27162   0.44603   0.20375   0.00000  Uiso   1.00
C11    C     0.24998   0.25000   0.07351   0.00000  Uiso   1.00
C12    C     0.25002   0.25000   0.25982   0.00000  Uiso   1.00
C13    C     0.25000   0.02732   0.16667   0.00000  Uiso   1.00
C14    C     0.25000   0.47265   0.16667   0.00000  Uiso   1.00
C15    C     0.24999   0.25001   0.02183   0.00000  Uiso   1.00
C16    C     0.25001   0.25001   0.31150   0.00000  Uiso   1.00
C17    C     0.04756   0.29115   0.15166   0.00000  Uiso   1.00
C18    C     0.45234   0.20876   0.15177   0.00000  Uiso   1.00
C19    C     0.45244   0.29115   0.18164   0.00000  Uiso   1.00
C20    C     0.04766   0.20876   0.18154   0.00000  Uiso   1.00
C21    C     0.09347   0.29126   0.15197   0.00000  Uiso   1.00
C22    C     0.40644   0.20866   0.15213   0.00000  Uiso   1.00
C23    C     0.40653   0.29126   0.18134   0.00000  Uiso   1.00
C24    C     0.09356   0.20867   0.18119   0.00000  Uiso   1.00
C25    C     0.11671   0.24998   0.16659   0.00000  Uiso   1.00
C26    C     0.38329   0.24998   0.16673   0.00000  Uiso   1.00
C27    C     0.02428   0.24996   0.16663   0.00000  Uiso   1.00
C28    C     0.47572   0.24996   0.16668   0.00000  Uiso   1.00
Cu29   Cu    0.25000   0.29822   0.16667   0.00000  Uiso   1.00
Cu30   Cu    0.25000   0.20179   0.16667   0.00000  Uiso   1.00
H31    H     0.11075   0.32340   0.14013   0.00000  Uiso   1.00
H32    H     0.38909   0.17653   0.14034   0.00000  Uiso   1.00
H33    H     0.38925   0.32340   0.19317   0.00000  Uiso   1.00
H34    H     0.11091   0.17653   0.19300   0.00000  Uiso   1.00
H35    H     0.31268   0.03596   0.20482   0.00000  Uiso   1.00
H36    H     0.21186   0.46400   0.09949   0.00000  Uiso   1.00
H37    H     0.18732   0.03596   0.12851   0.00000  Uiso   1.00
H38    H     0.28814   0.46400   0.23384   0.00000  Uiso   1.00
N39    N     0.25000   0.12935   0.16667   0.00000  Uiso   1.00
N40    N     0.25000   0.37066   0.16667   0.00000  Uiso   1.00
O41    O     0.18573   0.29072   0.16667   0.00000  Uiso   1.00
O42    O     0.31427   0.20929   0.16666   0.00000  Uiso   1.00
O43    O     0.31427   0.29072   0.16666   0.00000  Uiso   1.00
O44    O     0.18573   0.20929   0.16667   0.00000  Uiso   1.00
O45    O     0.25000   0.29071   0.09613   0.00000  Uiso   1.00
O46    O     0.25000   0.20929   0.23720   0.00000  Uiso   1.00
O47    O     0.25000   0.29071   0.23720   0.00000  Uiso   1.00
O48    O     0.25000   0.20929   0.09613   0.00000  Uiso   1.00
H49    H     0.31057   0.12423   0.20548   0.00000  Uiso   1.00
H50    H     0.21144   0.37567   0.10188   0.00000  Uiso   1.00
H51    H     0.18943   0.12423   0.12786   0.00000  Uiso   1.00
H52    H     0.28856   0.37567   0.23145   0.00000  Uiso   1.00
H53    H     0.03032   0.32308   0.13916   0.00000  Uiso   1.00
H54    H     0.46950   0.17682   0.13925   0.00000  Uiso   1.00
H55    H     0.46968   0.32308   0.19413   0.00000  Uiso   1.00
H56    H     0.03050   0.17682   0.19407   0.00000  Uiso   1.00
C57    C     0.66494   0.25000   0.16663   0.00000  Uiso   1.00
C58    C     0.83506   0.25000   0.16670   0.00000  Uiso   1.00
C59    C     0.78382   0.10466   0.18827   0.00000  Uiso   1.00
C60    C     0.72851   0.39530   0.13048   0.00000  Uiso   1.00
C61    C     0.71618   0.10466   0.14507   0.00000  Uiso   1.00
C62    C     0.77149   0.39530   0.20285   0.00000  Uiso   1.00
C63    C     0.78463   0.05394   0.18835   0.00000  Uiso   1.00
C64    C     0.72838   0.44603   0.12959   0.00000  Uiso   1.00
C65    C     0.71537   0.05394   0.14498   0.00000  Uiso   1.00
C66    C     0.77162   0.44603   0.20375   0.00000  Uiso   1.00
C67    C     0.74998   0.25000   0.07351   0.00000  Uiso   1.00
C68    C     0.75002   0.25000   0.25982   0.00000  Uiso   1.00
C69    C     0.75000   0.02732   0.16667   0.00000  Uiso   1.00
C70    C     0.75000   0.47265   0.16667   0.00000  Uiso   1.00
C71    C     0.74999   0.25001   0.02183   0.00000  Uiso   1.00
C72    C     0.75001   0.25001   0.31150   0.00000  Uiso   1.00
C73    C     0.54756   0.29115   0.15166   0.00000  Uiso   1.00
C74    C     0.95234   0.20876   0.15177   0.00000  Uiso   1.00
C75    C     0.95244   0.29115   0.18164   0.00000  Uiso   1.00
C76    C     0.54766   0.20876   0.18154   0.00000  Uiso   1.00
C77    C     0.59347   0.29126   0.15197   0.00000  Uiso   1.00
C78    C     0.90644   0.20866   0.15213   0.00000  Uiso   1.00
C79    C     0.90653   0.29126   0.18134   0.00000  Uiso   1.00
C80    C     0.59356   0.20867   0.18119   0.00000  Uiso   1.00
C81    C     0.61671   0.24998   0.16659   0.00000  Uiso   1.00
C82    C     0.88329   0.24998   0.16673   0.00000  Uiso   1.00
C83    C     0.52428   0.24996   0.16663   0.00000  Uiso   1.00
C84    C     0.97572   0.24996   0.16668   0.00000  Uiso   1.00
Cu85   Cu    0.75000   0.29822   0.16667   0.00000  Uiso   1.00
Cu86   Cu    0.75000   0.20179   0.16667   0.00000  Uiso   1.00
H87    H     0.61075   0.32340   0.14013   0.00000  Uiso   1.00
H88    H     0.88909   0.17653   0.14034   0.00000  Uiso   1.00
H89    H     0.88925   0.32340   0.19317   0.00000  Uiso   1.00
H90    H     0.61091   0.17653   0.19300   0.00000  Uiso   1.00
H91    H     0.81268   0.03596   0.20482   0.00000  Uiso   1.00
H92    H     0.71186   0.46400   0.09949   0.00000  Uiso   1.00
H93    H     0.68732   0.03596   0.12851   0.00000  Uiso   1.00
H94    H     0.78814   0.46400   0.23384   0.00000  Uiso   1.00
N95    N     0.75000   0.12935   0.16667   0.00000  Uiso   1.00
N96    N     0.75000   0.37066   0.16667   0.00000  Uiso   1.00
O97    O     0.68573   0.29072   0.16667   0.00000  Uiso   1.00
O98    O     0.81427   0.20929   0.16666   0.00000  Uiso   1.00
O99    O     0.81427   0.29072   0.16666   0.00000  Uiso   1.00
O100   O     0.68573   0.20929   0.16667   0.00000  Uiso   1.00
O101   O     0.75000   0.29071   0.09613   0.00000  Uiso   1.00
O102   O     0.75000   0.20929   0.23720   0.00000  Uiso   1.00
O103   O     0.75000   0.29071   0.23720   0.00000  Uiso   1.00
O104   O     0.75000   0.20929   0.09613   0.00000  Uiso   1.00
H105   H     0.81057   0.12423   0.20548   0.00000  Uiso   1.00
H106   H     0.71144   0.37567   0.10188   0.00000  Uiso   1.00
H107   H     0.68943   0.12423   0.12786   0.00000  Uiso   1.00
H108   H     0.78856   0.37567   0.23145   0.00000  Uiso   1.00
H109   H     0.53032   0.32308   0.13916   0.00000  Uiso   1.00
H110   H     0.96950   0.17682   0.13925   0.00000  Uiso   1.00
H111   H     0.96968   0.32308   0.19413   0.00000  Uiso   1.00
H112   H     0.53050   0.17682   0.19407   0.00000  Uiso   1.00
C113   C     0.16494   0.75000   0.16663   0.00000  Uiso   1.00
C114   C     0.33506   0.75000   0.16670   0.00000  Uiso   1.00
C115   C     0.28382   0.60466   0.18827   0.00000  Uiso   1.00
C116   C     0.22851   0.89530   0.13048   0.00000  Uiso   1.00
C117   C     0.21618   0.60466   0.14507   0.00000  Uiso   1.00
C118   C     0.27149   0.89530   0.20285   0.00000  Uiso   1.00
C119   C     0.28463   0.55394   0.18835   0.00000  Uiso   1.00
C120   C     0.22838   0.94603   0.12959   0.00000  Uiso   1.00
C121   C     0.21537   0.55394   0.14498   0.00000  Uiso   1.00
C122   C     0.27162   0.94603   0.20375   0.00000  Uiso   1.00
C123   C     0.24998   0.75000   0.07351   0.00000  Uiso   1.00
C124   C     0.25002   0.75000   0.25982   0.00000  Uiso   1.00
C125   C     0.25000   0.52732   0.16667   0.00000  Uiso   1.00
C126   C     0.25000   0.97265   0.16667   0.00000  Uiso   1.00
C127   C     0.24999   0.75001   0.02183   0.00000  Uiso   1.00
C128   C     0.25001   0.75001   0.31150   0.00000  Uiso   1.00
C129   C     0.04756   0.79115   0.15166   0.00000  Uiso   1.00
C130   C     0.45234   0.70876   0.15177   0.00000  Uiso   1.00
C131   C     0.45244   0.79115   0.18164   0.00000  Uiso   1.00
C132   C     0.04766   0.70876   0.18154   0.00000  Uiso   1.00
C133   C     0.09347   0.79126   0.15197   0.00000  Uiso   1.00
C134   C     0.40644   0.70866   0.15213   0.00000  Uiso   1.00
C135   C     0.40653   0.79126   0.18134   0.00000  Uiso   1.00
C136   C     0.09356   0.70867   0.18119   0.00000  Uiso   1.00
C137   C     0.11671   0.74998   0.16659   0.00000  Uiso   1.00
C138   C     0.38329   0.74998   0.16673   0.00000  Uiso   1.00
C139   C     0.02428   0.74996   0.16663   0.00000  Uiso   1.00
C140   C     0.47572   0.74996   0.16668   0.00000  Uiso   1.00
Cu141  Cu    0.25000   0.79822   0.16667   0.00000  Uiso   1.00
Cu142  Cu    0.25000   0.70179   0.16667   0.00000  Uiso   1.00
H143   H     0.11075   0.82340   0.14013   0.00000  Uiso   1.00
H144   H     0.38909   0.67653   0.14034   0.00000  Uiso   1.00
H145   H     0.38925   0.82340   0.19317   0.00000  Uiso   1.00
H146   H     0.11091   0.67653   0.19300   0.00000  Uiso   1.00
H147   H     0.31268   0.53596   0.20482   0.00000  Uiso   1.00
H148   H     0.21186   0.96400   0.09949   0.00000  Uiso   1.00
H149   H     0.18732   0.53596   0.12851   0.00000  Uiso   1.00
H150   H     0.28814   0.96400   0.23384   0.00000  Uiso   1.00
N151   N     0.25000   0.62935   0.16667   0.00000  Uiso   1.00
N152   N     0.25000   0.87066   0.16667   0.00000  Uiso   1.00
O153   O     0.18573   0.79072   0.16667   0.00000  Uiso   1.00
O154   O     0.31427   0.70929   0.16666   0.00000  Uiso   1.00
O155   O     0.31427   0.79072   0.16666   0.00000  Uiso   1.00
O156   O     0.18573   0.70929   0.16667   0.00000  Uiso   1.00
O157   O     0.25000   0.79071   0.09613   0.00000  Uiso   1.00
O158   O     0.25000   0.70929   0.23720   0.00000  Uiso   1.00
O159   O     0.25000   0.79071   0.23720   0.00000  Uiso   1.00
O160   O     0.25000   0.70929   0.09613   0.00000  Uiso   1.00
H161   H     0.31057   0.62423   0.20548   0.00000  Uiso   1.00
H162   H     0.21144   0.87567   0.10188   0.00000  Uiso   1.00
H163   H     0.18943   0.62423   0.12786   0.00000  Uiso   1.00
H164   H     0.28856   0.87567   0.23145   0.00000  Uiso   1.00
H165   H     0.03032   0.82308   0.13916   0.00000  Uiso   1.00
H166   H     0.46950   0.67682   0.13925   0.00000  Uiso   1.00
H167   H     0.46968   0.82308   0.19413   0.00000  Uiso   1.00
H168   H     0.03050   0.67682   0.19407   0.00000  Uiso   1.00
C169   C     0.66494   0.75000   0.16663   0.00000  Uiso   1.00
C170   C     0.83506   0.75000   0.16670   0.00000  Uiso   1.00
C171   C     0.78382   0.60466   0.18827   0.00000  Uiso   1.00
C172   C     0.72851   0.89530   0.13048   0.00000  Uiso   1.00
C173   C     0.71618   0.60466   0.14507   0.00000  Uiso   1.00
C174   C     0.77149   0.89530   0.20285   0.00000  Uiso   1.00
C175   C     0.78463   0.55394   0.18835   0.00000  Uiso   1.00
C176   C     0.72838   0.94603   0.12959   0.00000  Uiso   1.00
C177   C     0.71537   0.55394   0.14498   0.00000  Uiso   1.00
C178   C     0.77162   0.94603   0.20375   0.00000  Uiso   1.00
C179   C     0.74998   0.75000   0.07351   0.00000  Uiso   1.00
C180   C     0.75002   0.75000   0.25982   0.00000  Uiso   1.00
C181   C     0.75000   0.52732   0.16667   0.00000  Uiso   1.00
C182   C     0.75000   0.97265   0.16667   0.00000  Uiso   1.00
C183   C     0.74999   0.75001   0.02183   0.00000  Uiso   1.00
C184   C     0.75001   0.75001   0.31150   0.00000  Uiso   1.00
C185   C     0.54756   0.79115   0.15166   0.00000  Uiso   1.00
C186   C     0.95234   0.70876   0.15177   0.00000  Uiso   1.00
C187   C     0.95244   0.79115   0.18164   0.00000  Uiso   1.00
C188   C     0.54766   0.70876   0.18154   0.00000  Uiso   1.00
C189   C     0.59347   0.79126   0.15197   0.00000  Uiso   1.00
C190   C     0.90644   0.70866   0.15213   0.00000  Uiso   1.00
C191   C     0.90653   0.79126   0.18134   0.00000  Uiso   1.00
C192   C     0.59356   0.70867   0.18119   0.00000  Uiso   1.00
C193   C     0.61671   0.74998   0.16659   0.00000  Uiso   1.00
C194   C     0.88329   0.74998   0.16673   0.00000  Uiso   1.00
C195   C     0.52428   0.74996   0.16663   0.00000  Uiso   1.00
C196   C     0.97572   0.74996   0.16668   0.00000  Uiso   1.00
Cu197  Cu    0.75000   0.79822   0.16667   0.00000  Uiso   1.00
Cu198  Cu    0.75000   0.70179   0.16667   0.00000  Uiso   1.00
H199   H     0.61075   0.82340   0.14013   0.00000  Uiso   1.00
H200   H     0.88909   0.67653   0.14034   0.00000  Uiso   1.00
H201   H     0.88925   0.82340   0.19317   0.00000  Uiso   1.00
H202   H     0.61091   0.67653   0.19300   0.00000  Uiso   1.00
H203   H     0.81268   0.53596   0.20482   0.00000  Uiso   1.00
H204   H     0.71186   0.96400   0.09949   0.00000  Uiso   1.00
H205   H     0.68732   0.53596   0.12851   0.00000  Uiso   1.00
H206   H     0.78814   0.96400   0.23384   0.00000  Uiso   1.00
N207   N     0.75000   0.62935   0.16667   0.00000  Uiso   1.00
N208   N     0.75000   0.87066   0.16667   0.00000  Uiso   1.00
O209   O     0.68573   0.79072   0.16667   0.00000  Uiso   1.00
O210   O     0.81427   0.70929   0.16666   0.00000  Uiso   1.00
O211   O     0.81427   0.79072   0.16666   0.00000  Uiso   1.00
O212   O     0.68573   0.70929   0.16667   0.00000  Uiso   1.00
O213   O     0.75000   0.79071   0.09613   0.00000  Uiso   1.00
O214   O     0.75000   0.70929   0.23720   0.00000  Uiso   1.00
O215   O     0.75000   0.79071   0.23720   0.00000  Uiso   1.00
O216   O     0.75000   0.70929   0.09613   0.00000  Uiso   1.00
H217   H     0.81057   0.62423   0.20548   0.00000  Uiso   1.00
H218   H     0.71144   0.87567   0.10188   0.00000  Uiso   1.00
H219   H     0.68943   0.62423   0.12786   0.00000  Uiso   1.00
H220   H     0.78856   0.87567   0.23145   0.00000  Uiso   1.00
H221   H     0.53032   0.82308   0.13916   0.00000  Uiso   1.00
H222   H     0.96950   0.67682   0.13925   0.00000  Uiso   1.00
H223   H     0.96968   0.82308   0.19413   0.00000  Uiso   1.00
H224   H     0.53050   0.67682   0.19407   0.00000  Uiso   1.00
C225   C     0.16494   0.25000   0.49997   0.00000  Uiso   1.00
C226   C     0.33506   0.25000   0.50003   0.00000  Uiso   1.00
C227   C     0.28382   0.10466   0.52160   0.00000  Uiso   1.00
C228   C     0.22851   0.39530   0.46381   0.00000  Uiso   1.00
C229   C     0.21618   0.10466   0.47840   0.00000  Uiso   1.00
C230   C     0.27149   0.39530   0.53619   0.00000  Uiso   1.00
C231   C     0.28463   0.05394   0.52168   0.00000  Uiso   1.00
C232   C     0.22838   0.44603   0.46292   0.00000  Uiso   1.00
C233   C     0.21537   0.05394   0.47832   0.00000  Uiso   1.00
C234   C     0.27162   0.44603   0.53708   0.00000  Uiso   1.00
C235   C     0.24998   0.25000   0.40684   0.00000  Uiso   1.00
C236   C     0.25002   0.25000   0.59316   0.00000  Uiso   1.00
C237   C     0.25000   0.02732   0.50000   0.00000  Uiso   1.00
C238   C     0.25000   0.47265   0.50000   0.00000  Uiso   1.00
C239   C     0.24999   0.25001   0.35517   0.00000  Uiso   1.00
C240   C     0.25001   0.25001   0.64483   0.00000  Uiso   1.00
C241   C     0.04756   0.29115   0.48500   0.00000  Uiso   1.00
C242   C     0.45234   0.20876   0.48511   0.00000  Uiso   1.00
C243   C     0.45244   0.29115   0.51497   0.00000  Uiso   1.00
C244   C     0.04766   0.20876   0.51488   0.00000  Uiso   1.00
C245   C     0.09347   0.29126   0.48530   0.00000  Uiso   1.00
C246   C     0.40644   0.20866   0.48547   0.00000  Uiso   1.00
C247   C     0.40653   0.29126   0.51467   0.00000  Uiso   1.00
C248   C     0.09356   0.20867   0.51452   0.00000  Uiso   1.00
C249   C     0.11671   0.24998   0.49993   0.00000  Uiso   1.00
C250   C     0.38329   0.24998   0.50006   0.00000  Uiso   1.00
C251   C     0.02428   0.24996   0.49996   0.00000  Uiso   1.00
C252   C     0.47572   0.24996   0.50001   0.00000  Uiso   1.00
Cu253  Cu    0.25000   0.29822   0.50000   0.00000  Uiso   1.00
Cu254  Cu    0.25000   0.20179   0.50000   0.00000  Uiso   1.00
H255   H     0.11075   0.32340   0.47347   0.00000  Uiso   1.00
H256   H     0.38909   0.17653   0.47367   0.00000  Uiso   1.00
H257   H     0.38925   0.32340   0.52650   0.00000  Uiso   1.00
H258   H     0.11091   0.17653   0.52633   0.00000  Uiso   1.00
H259   H     0.31268   0.03596   0.53815   0.00000  Uiso   1.00
H260   H     0.21186   0.46400   0.43283   0.00000  Uiso   1.00
H261   H     0.18732   0.03596   0.46185   0.00000  Uiso   1.00
H262   H     0.28814   0.46400   0.56717   0.00000  Uiso   1.00
N263   N     0.25000   0.12935   0.50000   0.00000  Uiso   1.00
N264   N     0.25000   0.37066   0.50000   0.00000  Uiso   1.00
O265   O     0.18573   0.29072   0.50000   0.00000  Uiso   1.00
O266   O     0.31427   0.20929   0.50000   0.00000  Uiso   1.00
O267   O     0.31427   0.29072   0.50000   0.00000  Uiso   1.00
O268   O     0.18573   0.20929   0.50000   0.00000  Uiso   1.00
O269   O     0.25000   0.29071   0.42946   0.00000  Uiso   1.00
O270   O     0.25000   0.20929   0.57054   0.00000  Uiso   1.00
O271   O     0.25000   0.29071   0.57054   0.00000  Uiso   1.00
O272   O     0.25000   0.20929   0.42946   0.00000  Uiso   1.00
H273   H     0.31057   0.12423   0.53881   0.00000  Uiso   1.00
H274   H     0.21144   0.37567   0.43521   0.00000  Uiso   1.00
H275   H     0.18943   0.12423   0.46119   0.00000  Uiso   1.00
H276   H     0.28856   0.37567   0.56479   0.00000  Uiso   1.00
H277   H     0.03032   0.32308   0.47250   0.00000  Uiso   1.00
H278   H     0.46950   0.17682   0.47258   0.00000  Uiso   1.00
H279   H     0.46968   0.32308   0.52746   0.00000  Uiso   1.00
H280   H     0.03050   0.17682   0.52740   0.00000  Uiso   1.00
C281   C     0.66494   0.25000   0.49997   0.00000  Uiso   1.00
C282   C     0.83506   0.25000   0.50003   0.00000  Uiso   1.00
C283   C     0.78382   0.10466   0.52160   0.00000  Uiso   1.00
C284   C     0.72851   0.39530   0.46381   0.00000  Uiso   1.00
C285   C     0.71618   0.10466   0.47840   0.00000  Uiso   1.00
C286   C     0.77149   0.39530   0.53619   0.00000  Uiso   1.00
C287   C     0.78463   0.05394   0.52168   0.00000  Uiso   1.00
C288   C     0.72838   0.44603   0.46292   0.00000  Uiso   1.00
C289   C     0.71537   0.05394   0.47832   0.00000  Uiso   1.00
C290   C     0.77162   0.44603   0.53708   0.00000  Uiso   1.00
C291   C     0.74998   0.25000   0.40684   0.00000  Uiso   1.00
C292   C     0.75002   0.25000   0.59316   0.00000  Uiso   1.00
C293   C     0.75000   0.02732   0.50000   0.00000  Uiso   1.00
C294   C     0.75000   0.47265   0.50000   0.00000  Uiso   1.00
C295   C     0.74999   0.25001   0.35517   0.00000  Uiso   1.00
C296   C     0.75001   0.25001   0.64483   0.00000  Uiso   1.00
C297   C     0.54756   0.29115   0.48500   0.00000  Uiso   1.00
C298   C     0.95234   0.20876   0.48511   0.00000  Uiso   1.00
C299   C     0.95244   0.29115   0.51497   0.00000  Uiso   1.00
C300   C     0.54766   0.20876   0.51488   0.00000  Uiso   1.00
C301   C     0.59347   0.29126   0.48530   0.00000  Uiso   1.00
C302   C     0.90644   0.20866   0.48547   0.00000  Uiso   1.00
C303   C     0.90653   0.29126   0.51467   0.00000  Uiso   1.00
C304   C     0.59356   0.20867   0.51452   0.00000  Uiso   1.00
C305   C     0.61671   0.24998   0.49993   0.00000  Uiso   1.00
C306   C     0.88329   0.24998   0.50006   0.00000  Uiso   1.00
C307   C     0.52428   0.24996   0.49996   0.00000  Uiso   1.00
C308   C     0.97572   0.24996   0.50001   0.00000  Uiso   1.00
Cu309  Cu    0.75000   0.29822   0.50000   0.00000  Uiso   1.00
Cu310  Cu    0.75000   0.20179   0.50000   0.00000  Uiso   1.00
H311   H     0.61075   0.32340   0.47347   0.00000  Uiso   1.00
H312   H     0.88909   0.17653   0.47367   0.00000  Uiso   1.00
H313   H     0.88925   0.32340   0.52650   0.00000  Uiso   1.00
H314   H     0.61091   0.17653   0.52633   0.00000  Uiso   1.00
H315   H     0.81268   0.03596   0.53815   0.00000  Uiso   1.00
H316   H     0.71186   0.46400   0.43283   0.00000  Uiso   1.00
H317   H     0.68732   0.03596   0.46185   0.00000  Uiso   1.00
H318   H     0.78814   0.46400   0.56717   0.00000  Uiso   1.00
N319   N     0.75000   0.12935   0.50000   0.00000  Uiso   1.00
N320   N     0.75000   0.37066   0.50000   0.00000  Uiso   1.00
O321   O     0.68573   0.29072   0.50000   0.00000  Uiso   1.00
O322   O     0.81427   0.20929   0.50000   0.00000  Uiso   1.00
O323   O     0.81427   0.29072   0.50000   0.00000  Uiso   1.00
O324   O     0.68573   0.20929   0.50000   0.00000  Uiso   1.00
O325   O     0.75000   0.29071   0.42946   0.00000  Uiso   1.00
O326   O     0.75000   0.20929   0.57054   0.00000  Uiso   1.00
O327   O     0.75000   0.29071   0.57054   0.00000  Uiso   1.00
O328   O     0.75000   0.20929   0.42946   0.00000  Uiso   1.00
H329   H     0.81057   0.12423   0.53881   0.00000  Uiso   1.00
H330   H     0.71144   0.37567   0.43521   0.00000  Uiso   1.00
H331   H     0.68943   0.12423   0.46119   0.00000  Uiso   1.00
H332   H     0.78856   0.37567   0.56479   0.00000  Uiso   1.00
H333   H     0.53032   0.32308   0.47250   0.00000  Uiso   1.00
H334   H     0.96950   0.17682   0.47258   0.00000  Uiso   1.00
H335   H     0.96968   0.32308   0.52746   0.00000  Uiso   1.00
H336   H     0.53050   0.17682   0.52740   0.00000  Uiso   1.00
C337   C     0.16494   0.75000   0.49997   0.00000  Uiso   1.00
C338   C     0.33506   0.75000   0.50003   0.00000  Uiso   1.00
C339   C     0.28382   0.60466   0.52160   0.00000  Uiso   1.00
C340   C     0.22851   0.89530   0.46381   0.00000  Uiso   1.00
C341   C     0.21618   0.60466   0.47840   0.00000  Uiso   1.00
C342   C     0.27149   0.89530   0.53619   0.00000  Uiso   1.00
C343   C     0.28463   0.55394   0.52168   0.00000  Uiso   1.00
C344   C     0.22838   0.94603   0.46292   0.00000  Uiso   1.00
C345   C     0.21537   0.55394   0.47832   0.00000  Uiso   1.00
C346   C     0.27162   0.94603   0.53708   0.00000  Uiso   1.00
C347   C     0.24998   0.75000   0.40684   0.00000  Uiso   1.00
C348   C     0.25002   0.75000   0.59316   0.00000  Uiso   1.00
C349   C     0.25000   0.52732   0.50000   0.00000  Uiso   1.00
C350   C     0.25000   0.97265   0.50000   0.00000  Uiso   1.00
C351   C     0.24999   0.75001   0.35517   0.00000  Uiso   1.00
C352   C     0.25001   0.75001   0.64483   0.00000  Uiso   1.00
C353   C     0.04756   0.79115   0.48500   0.00000  Uiso   1.00
C354   C     0.45234   0.70876   0.48511   0.00000  Uiso   1.00
C355   C     0.45244   0.79115   0.51497   0.00000  Uiso   1.00
C356   C     0.04766   0.70876   0.51488   0.00000  Uiso   1.00
C357   C     0.09347   0.79126   0.48530   0.00000  Uiso   1.00
C358   C     0.40644   0.70866   0.48547   0.00000  Uiso   1.00
C359   C     0.40653   0.79126   0.51467   0.00000  Uiso   1.00
C360   C     0.09356   0.70867   0.51452   0.00000  Uiso   1.00
C361   C     0.11671   0.74998   0.49993   0.00000  Uiso   1.00
C362   C     0.38329   0.74998   0.50006   0.00000  Uiso   1.00
C363   C     0.02428   0.74996   0.49996   0.00000  Uiso   1.00
C364   C     0.47572   0.74996   0.50001   0.00000  Uiso   1.00
Cu365  Cu    0.25000   0.79822   0.50000   0.00000  Uiso   1.00
Cu366  Cu    0.25000   0.70179   0.50000   0.00000  Uiso   1.00
H367   H     0.11075   0.82340   0.47347   0.00000  Uiso   1.00
H368   H     0.38909   0.67653   0.47367   0.00000  Uiso   1.00
H369   H     0.38925   0.82340   0.52650   0.00000  Uiso   1.00
H370   H     0.11091   0.67653   0.52633   0.00000  Uiso   1.00
H371   H     0.31268   0.53596   0.53815   0.00000  Uiso   1.00
H372   H     0.21186   0.96400   0.43283   0.00000  Uiso   1.00
H373   H     0.18732   0.53596   0.46185   0.00000  Uiso   1.00
H374   H     0.28814   0.96400   0.56717   0.00000  Uiso   1.00
N375   N     0.25000   0.62935   0.50000   0.00000  Uiso   1.00
N376   N     0.25000   0.87066   0.50000   0.00000  Uiso   1.00
O377   O     0.18573   0.79072   0.50000   0.00000  Uiso   1.00
O378   O     0.31427   0.70929   0.50000   0.00000  Uiso   1.00
O379   O     0.31427   0.79072   0.50000   0.00000  Uiso   1.00
O380   O     0.18573   0.70929   0.50000   0.00000  Uiso   1.00
O381   O     0.25000   0.79071   0.42946   0.00000  Uiso   1.00
O382   O     0.25000   0.70929   0.57054   0.00000  Uiso   1.00
O383   O     0.25000   0.79071   0.57054   0.00000  Uiso   1.00
O384   O     0.25000   0.70929   0.42946   0.00000  Uiso   1.00
H385   H     0.31057   0.62423   0.53881   0.00000  Uiso   1.00
H386   H     0.21144   0.87567   0.43521   0.00000  Uiso   1.00
H387   H     0.18943   0.62423   0.46119   0.00000  Uiso   1.00
H388   H     0.28856   0.87567   0.56479   0.00000  Uiso   1.00
H389   H     0.03032   0.82308   0.47250   0.00000  Uiso   1.00
H390   H     0.46950   0.67682   0.47258   0.00000  Uiso   1.00
H391   H     0.46968   0.82308   0.52746   0.00000  Uiso   1.00
H392   H     0.03050   0.67682   0.52740   0.00000  Uiso   1.00
C393   C     0.66494   0.75000   0.49997   0.00000  Uiso   1.00
C394   C     0.83506   0.75000   0.50003   0.00000  Uiso   1.00
C395   C     0.78382   0.60466   0.52160   0.00000  Uiso   1.00
C396   C     0.72851   0.89530   0.46381   0.00000  Uiso   1.00
C397   C     0.71618   0.60466   0.47840   0.00000  Uiso   1.00
C398   C     0.77149   0.89530   0.53619   0.00000  Uiso   1.00
C399   C     0.78463   0.55394   0.52168   0.00000  Uiso   1.00
C400   C     0.72838   0.94603   0.46292   0.00000  Uiso   1.00
C401   C     0.71537   0.55394   0.47832   0.00000  Uiso   1.00
C402   C     0.77162   0.94603   0.53708   0.00000  Uiso   1.00
C403   C     0.74998   0.75000   0.40684   0.00000  Uiso   1.00
C404   C     0.75002   0.75000   0.59316   0.00000  Uiso   1.00
C405   C     0.75000   0.52732   0.50000   0.00000  Uiso   1.00
C406   C     0.75000   0.97265   0.50000   0.00000  Uiso   1.00
C407   C     0.74999   0.75001   0.35517   0.00000  Uiso   1.00
C408   C     0.75001   0.75001   0.64483   0.00000  Uiso   1.00
C409   C     0.54756   0.79115   0.48500   0.00000  Uiso   1.00
C410   C     0.95234   0.70876   0.48511   0.00000  Uiso   1.00
C411   C     0.95244   0.79115   0.51497   0.00000  Uiso   1.00
C412   C     0.54766   0.70876   0.51488   0.00000  Uiso   1.00
C413   C     0.59347   0.79126   0.48530   0.00000  Uiso   1.00
C414   C     0.90644   0.70866   0.48547   0.00000  Uiso   1.00
C415   C     0.90653   0.79126   0.51467   0.00000  Uiso   1.00
C416   C     0.59356   0.70867   0.51452   0.00000  Uiso   1.00
C417   C     0.61671   0.74998   0.49993   0.00000  Uiso   1.00
C418   C     0.88329   0.74998   0.50006   0.00000  Uiso   1.00
C419   C     0.52428   0.74996   0.49996   0.00000  Uiso   1.00
C420   C     0.97572   0.74996   0.50001   0.00000  Uiso   1.00
Cu421  Cu    0.75000   0.79822   0.50000   0.00000  Uiso   1.00
Cu422  Cu    0.75000   0.70179   0.50000   0.00000  Uiso   1.00
H423   H     0.61075   0.82340   0.47347   0.00000  Uiso   1.00
H424   H     0.88909   0.67653   0.47367   0.00000  Uiso   1.00
H425   H     0.88925   0.82340   0.52650   0.00000  Uiso   1.00
H426   H     0.61091   0.67653   0.52633   0.00000  Uiso   1.00
H427   H     0.81268   0.53596   0.53815   0.00000  Uiso   1.00
H428   H     0.71186   0.96400   0.43283   0.00000  Uiso   1.00
H429   H     0.68732   0.53596   0.46185   0.00000  Uiso   1.00
H430   H     0.78814   0.96400   0.56717   0.00000  Uiso   1.00
N431   N     0.75000   0.62935   0.50000   0.00000  Uiso   1.00
N432   N     0.75000   0.87066   0.50000   0.00000  Uiso   1.00
O433   O     0.68573   0.79072   0.50000   0.00000  Uiso   1.00
O434   O     0.81427   0.70929   0.50000   0.00000  Uiso   1.00
O435   O     0.81427   0.79072   0.50000   0.00000  Uiso   1.00
O436   O     0.68573   0.70929   0.50000   0.00000  Uiso   1.00
O437   O     0.75000   0.79071   0.42946   0.00000  Uiso   1.00
O438   O     0.75000   0.70929   0.57054   0.00000  Uiso   1.00
O439   O     0.75000   0.79071   0.57054   0.00000  Uiso   1.00
O440   O     0.75000   0.70929   0.42946   0.00000  Uiso   1.00
H441   H     0.81057   0.62423   0.53881   0.00000  Uiso   1.00
H442   H     0.71144   0.87567   0.43521   0.00000  Uiso   1.00
H443   H     0.68943   0.62423   0.46119   0.00000  Uiso   1.00
H444   H     0.78856   0.87567   0.56479   0.00000  Uiso   1.00
H445   H     0.53032   0.82308   0.47250   0.00000  Uiso   1.00
H446   H     0.96950   0.67682   0.47258   0.00000  Uiso   1.00
H447   H     0.96968   0.82308   0.52746   0.00000  Uiso   1.00
H448   H     0.53050   0.67682   0.52740   0.00000  Uiso   1.00
C449   C     0.16494   0.25000   0.83330   0.00000  Uiso   1.00
C450   C     0.33506   0.25000   0.83337   0.00000  Uiso   1.00
C451   C     0.28382   0.10466   0.85493   0.00000  Uiso   1.00
C452   C     0.22851   0.39530   0.79715   0.00000  Uiso   1.00
C453   C     0.21618   0.10466   0.81173   0.00000  Uiso   1.00
C454   C     0.27149   0.39530   0.86952   0.00000  Uiso   1.00
C455   C     0.28463   0.05394   0.85502   0.00000  Uiso   1.00
C456   C     0.22838   0.44603   0.79625   0.00000  Uiso   1.00
C457   C     0.21537   0.05394   0.81165   0.00000  Uiso   1.00
C458   C     0.27162   0.44603   0.87041   0.00000  Uiso   1.00
C459   C     0.24998   0.25000   0.74018   0.00000  Uiso   1.00
C460   C     0.25002   0.25000   0.92649   0.00000  Uiso   1.00
C461   C     0.25000   0.02732   0.83333   0.00000  Uiso   1.00
C462   C     0.25000   0.47265   0.83333   0.00000  Uiso   1.00
C463   C     0.24999   0.25001   0.68850   0.00000  Uiso   1.00
C464   C     0.25001   0.25001   0.97817   0.00000  Uiso   1.00
C465   C     0.04756   0.29115   0.81833   0.00000  Uiso   1.00
C466   C     0.45234   0.20876   0.81844   0.00000  Uiso   1.00
C467   C     0.45244   0.29115   0.84830   0.00000  Uiso   1.00
C468   C     0.04766   0.20876   0.84821   0.00000  Uiso   1.00
C469   C     0.09347   0.29126   0.81864   0.00000  Uiso   1.00
C470   C     0.40644   0.20866   0.81880   0.00000  Uiso   1.00
C471   C     0.40653   0.29126   0.84801   0.00000  Uiso   1.00
C472   C     0.09356   0.20867   0.84786   0.00000  Uiso   1.00
C473   C     0.11671   0.24998   0.83326   0.00000  Uiso   1.00
C474   C     0.38329   0.24998   0.83340   0.00000  Uiso   1.00
C475   C     0.02428   0.24996   0.83329   0.00000  Uiso   1.00
C476   C     0.47572   0.24996   0.83335   0.00000  Uiso   1.00
Cu477  Cu    0.25000   0.29822   0.83333   0.00000  Uiso   1.00
Cu478  Cu    0.25000   0.20179   0.83333   0.00000  Uiso   1.00
H479   H     0.11075   0.32340   0.80680   0.00000  Uiso   1.00
H480   H     0.38909   0.17653   0.80701   0.00000  Uiso   1.00
H481   H     0.38925   0.32340   0.85984   0.00000  Uiso   1.00
H482   H     0.11091   0.17653   0.85966   0.00000  Uiso   1.00
H483   H     0.31268   0.03596   0.87149   0.00000  Uiso   1.00
H484   H     0.21186   0.46400   0.76616   0.00000  Uiso   1.00
H485   H     0.18732   0.03596   0.79518   0.00000  Uiso   1.00
H486   H     0.28814   0.46400   0.90051   0.00000  Uiso   1.00
N487   N     0.25000   0.12935   0.83333   0.00000  Uiso   1.00
N488   N     0.25000   0.37066   0.83333   0.00000  Uiso   1.00
O489   O     0.18573   0.29072   0.83334   0.00000  Uiso   1.00
O490   O     0.31427   0.20929   0.83333   0.00000  Uiso   1.00
O491   O     0.31427   0.29072   0.83333   0.00000  Uiso   1.00
O492   O     0.18573   0.20929   0.83334   0.00000  Uiso   1.00
O493   O     0.25000   0.29071   0.76280   0.00000  Uiso   1.00
O494   O     0.25000   0.20929   0.90387   0.00000  Uiso   1.00
O495   O     0.25000   0.29071   0.90387   0.00000  Uiso   1.00
O496   O     0.25000   0.20929   0.76280   0.00000  Uiso   1.00
H497   H     0.31057   0.12423   0.87214   0.00000  Uiso   1.00
H498   H     0.21144   0.37567   0.76854   0.00000  Uiso   1.00
H499   H     0.18943   0.12423   0.79452   0.00000  Uiso   1.00
H500   H     0.28856   0.37567   0.89812   0.00000  Uiso   1.00
H501   H     0.03032   0.32308   0.80583   0.00000  Uiso   1.00
H502   H     0.46950   0.17682   0.80591   0.00000  Uiso   1.00
H503   H     0.46968   0.32308   0.86079   0.00000  Uiso   1.00
H504   H     0.03050   0.17682   0.86074   0.00000  Uiso   1.00
C505   C     0.66494   0.25000   0.83330   0.00000  Uiso   1.00
C506   C     0.83506   0.25000   0.83337   0.00000  Uiso   1.00
C507   C     0.78382   0.10466   0.85493   0.00000  Uiso   1.00
C508   C     0.72851   0.39530   0.79715   0.00000  Uiso   1.00
C509   C     0.71618   0.10466   0.81173   0.00000  Uiso   1.00
C510   C     0.77149   0.39530   0.86952   0.00000  Uiso   1.00
C511   C     0.78463   0.05394   0.85502   0.00000  Uiso   1.00
C512   C     0.72838   0.44603   0.79625   0.00000  Uiso   1.00
C513   C     0.71537   0.05394   0.81165   0.00000  Uiso   1.00
C514   C     0.77162   0.44603   0.87041   0.00000  Uiso   1.00
C515   C     0.74998   0.25000   0.74018   0.00000  Uiso   1.00
C516   C     0.75002   0.25000   0.92649   0.00000  Uiso   1.00
C517   C     0.75000   0.02732   0.83333   0.00000  Uiso   1.00
C518   C     0.75000   0.47265   0.83333   0.00000  Uiso   1.00
C519   C     0.74999   0.25001   0.68850   0.00000  Uiso   1.00
C520   C     0.75001   0.25001   0.97817   0.00000  Uiso   1.00
C521   C     0.54756   0.29115   0.81833   0.00000  Uiso   1.00
C522   C     0.95234   0.20876   0.81844   0.00000  Uiso   1.00
C523   C     0.95244   0.29115   0.84830   0.00000  Uiso   1.00
C524   C     0.54766   0.20876   0.84821   0.00000  Uiso   1.00
C525   C     0.59347   0.29126   0.81864   0.00000  Uiso   1.00
C526   C     0.90644   0.20866   0.81880   0.00000  Uiso   1.00
C527   C     0.90653   0.29126   0.84801   0.00000  Uiso   1.00
C528   C     0.59356   0.20867   0.84786   0.00000  Uiso   1.00
C529   C     0.61671   0.24998   0.83326   0.00000  Uiso   1.00
C530   C     0.88329   0.24998   0.83340   0.00000  Uiso   1.00
C531   C     0.52428   0.24996   0.83329   0.00000  Uiso   1.00
C532   C     0.97572   0.24996   0.83335   0.00000  Uiso   1.00
Cu533  Cu    0.75000   0.29822   0.83333   0.00000  Uiso   1.00
Cu534  Cu    0.75000   0.20179   0.83333   0.00000  Uiso   1.00
H535   H     0.61075   0.32340   0.80680   0.00000  Uiso   1.00
H536   H     0.88909   0.17653   0.80701   0.00000  Uiso   1.00
H537   H     0.88925   0.32340   0.85984   0.00000  Uiso   1.00
H538   H     0.61091   0.17653   0.85966   0.00000  Uiso   1.00
H539   H     0.81268   0.03596   0.87149   0.00000  Uiso   1.00
H540   H     0.71186   0.46400   0.76616   0.00000  Uiso   1.00
H541   H     0.68732   0.03596   0.79518   0.00000  Uiso   1.00
H542   H     0.78814   0.46400   0.90051   0.00000  Uiso   1.00
N543   N     0.75000   0.12935   0.83333   0.00000  Uiso   1.00
N544   N     0.75000   0.37066   0.83333   0.00000  Uiso   1.00
O545   O     0.68573   0.29072   0.83334   0.00000  Uiso   1.00
O546   O     0.81427   0.20929   0.83333   0.00000  Uiso   1.00
O547   O     0.81427   0.29072   0.83333   0.00000  Uiso   1.00
O548   O     0.68573   0.20929   0.83334   0.00000  Uiso   1.00
O549   O     0.75000   0.29071   0.76280   0.00000  Uiso   1.00
O550   O     0.75000   0.20929   0.90387   0.00000  Uiso   1.00
O551   O     0.75000   0.29071   0.90387   0.00000  Uiso   1.00
O552   O     0.75000   0.20929   0.76280   0.00000  Uiso   1.00
H553   H     0.81057   0.12423   0.87214   0.00000  Uiso   1.00
H554   H     0.71144   0.37567   0.76854   0.00000  Uiso   1.00
H555   H     0.68943   0.12423   0.79452   0.00000  Uiso   1.00
H556   H     0.78856   0.37567   0.89812   0.00000  Uiso   1.00
H557   H     0.53032   0.32308   0.80583   0.00000  Uiso   1.00
H558   H     0.96950   0.17682   0.80591   0.00000  Uiso   1.00
H559   H     0.96968   0.32308   0.86079   0.00000  Uiso   1.00
H560   H     0.53050   0.17682   0.86074   0.00000  Uiso   1.00
C561   C     0.16494   0.75000   0.83330   0.00000  Uiso   1.00
C562   C     0.33506   0.75000   0.83337   0.00000  Uiso   1.00
C563   C     0.28382   0.60466   0.85493   0.00000  Uiso   1.00
C564   C     0.22851   0.89530   0.79715   0.00000  Uiso   1.00
C565   C     0.21618   0.60466   0.81173   0.00000  Uiso   1.00
C566   C     0.27149   0.89530   0.86952   0.00000  Uiso   1.00
C567   C     0.28463   0.55394   0.85502   0.00000  Uiso   1.00
C568   C     0.22838   0.94603   0.79625   0.00000  Uiso   1.00
C569   C     0.21537   0.55394   0.81165   0.00000  Uiso   1.00
C570   C     0.27162   0.94603   0.87041   0.00000  Uiso   1.00
C571   C     0.24998   0.75000   0.74018   0.00000  Uiso   1.00
C572   C     0.25002   0.75000   0.92649   0.00000  Uiso   1.00
C573   C     0.25000   0.52732   0.83333   0.00000  Uiso   1.00
C574   C     0.25000   0.97265   0.83333   0.00000  Uiso   1.00
C575   C     0.24999   0.75001   0.68850   0.00000  Uiso   1.00
C576   C     0.25001   0.75001   0.97817   0.00000  Uiso   1.00
C577   C     0.04756   0.79115   0.81833   0.00000  Uiso   1.00
C578   C     0.45234   0.70876   0.81844   0.00000  Uiso   1.00
C579   C     0.45244   0.79115   0.84830   0.00000  Uiso   1.00
C580   C     0.04766   0.70876   0.84821   0.00000  Uiso   1.00
C581   C     0.09347   0.79126   0.81864   0.00000  Uiso   1.00
C582   C     0.40644   0.70866   0.81880   0.00000  Uiso   1.00
C583   C     0.40653   0.79126   0.84801   0.00000  Uiso   1.00
C584   C     0.09356   0.70867   0.84786   0.00000  Uiso   1.00
C585   C     0.11671   0.74998   0.83326   0.00000  Uiso   1.00
C586   C     0.38329   0.74998   0.83340   0.00000  Uiso   1.00
C587   C     0.02428   0.74996   0.83329   0.00000  Uiso   1.00
C588   C     0.47572   0.74996   0.83335   0.00000  Uiso   1.00
Cu589  Cu    0.25000   0.79822   0.83333   0.00000  Uiso   1.00
Cu590  Cu    0.25000   0.70179   0.83333   0.00000  Uiso   1.00
H591   H     0.11075   0.82340   0.80680   0.00000  Uiso   1.00
H592   H     0.38909   0.67653   0.80701   0.00000  Uiso   1.00
H593   H     0.38925   0.82340   0.85984   0.00000  Uiso   1.00
H594   H     0.11091   0.67653   0.85966   0.00000  Uiso   1.00
H595   H     0.31268   0.53596   0.87149   0.00000  Uiso   1.00
H596   H     0.21186   0.96400   0.76616   0.00000  Uiso   1.00
H597   H     0.18732   0.53596   0.79518   0.00000  Uiso   1.00
H598   H     0.28814   0.96400   0.90051   0.00000  Uiso   1.00
N599   N     0.25000   0.62935   0.83333   0.00000  Uiso   1.00
N600   N     0.25000   0.87066   0.83333   0.00000  Uiso   1.00
O601   O     0.18573   0.79072   0.83334   0.00000  Uiso   1.00
O602   O     0.31427   0.70929   0.83333   0.00000  Uiso   1.00
O603   O     0.31427   0.79072   0.83333   0.00000  Uiso   1.00
O604   O     0.18573   0.70929   0.83334   0.00000  Uiso   1.00
O605   O     0.25000   0.79071   0.76280   0.00000  Uiso   1.00
O606   O     0.25000   0.70929   0.90387   0.00000  Uiso   1.00
O607   O     0.25000   0.79071   0.90387   0.00000  Uiso   1.00
O608   O     0.25000   0.70929   0.76280   0.00000  Uiso   1.00
H609   H     0.31057   0.62423   0.87214   0.00000  Uiso   1.00
H610   H     0.21144   0.87567   0.76854   0.00000  Uiso   1.00
H611   H     0.18943   0.62423   0.79452   0.00000  Uiso   1.00
H612   H     0.28856   0.87567   0.89812   0.00000  Uiso   1.00
H613   H     0.03032   0.82308   0.80583   0.00000  Uiso   1.00
H614   H     0.46950   0.67682   0.80591   0.00000  Uiso   1.00
H615   H     0.46968   0.82308   0.86079   0.00000  Uiso   1.00
H616   H     0.03050   0.67682   0.86074   0.00000  Uiso   1.00
C617   C     0.66494   0.75000   0.83330   0.00000  Uiso   1.00
C618   C     0.83506   0.75000   0.83337   0.00000  Uiso   1.00
C619   C     0.78382   0.60466   0.85493   0.00000  Uiso   1.00
C620   C     0.72851   0.89530   0.79715   0.00000  Uiso   1.00
C621   C     0.71618   0.60466   0.81173   0.00000  Uiso   1.00
C622   C     0.77149   0.89530   0.86952   0.00000  Uiso   1.00
C623   C     0.78463   0.55394   0.85502   0.00000  Uiso   1.00
C624   C     0.72838   0.94603   0.79625   0.00000  Uiso   1.00
C625   C     0.71537   0.55394   0.81165   0.00000  Uiso   1.00
C626   C     0.77162   0.94603   0.87041   0.00000  Uiso   1.00
C627   C     0.74998   0.75000   0.74018   0.00000  Uiso   1.00
C628   C     0.75002   0.75000   0.92649   0.00000  Uiso   1.00
C629   C     0.75000   0.52732   0.83333   0.00000  Uiso   1.00
C630   C     0.75000   0.97265   0.83333   0.00000  Uiso   1.00
C631   C     0.74999   0.75001   0.68850   0.00000  Uiso   1.00
C632   C     0.75001   0.75001   0.97817   0.00000  Uiso   1.00
C633   C     0.54756   0.79115   0.81833   0.00000  Uiso   1.00
C634   C     0.95234   0.70876   0.81844   0.00000  Uiso   1.00
C635   C     0.95244   0.79115   0.84830   0.00000  Uiso   1.00
C636   C     0.54766   0.70876   0.84821   0.00000  Uiso   1.00
C637   C     0.59347   0.79126   0.81864   0.00000  Uiso   1.00
C638   C     0.90644   0.70866   0.81880   0.00000  Uiso   1.00
C639   C     0.90653   0.79126   0.84801   0.00000  Uiso   1.00
C640   C     0.59356   0.70867   0.84786   0.00000  Uiso   1.00
C641   C     0.61671   0.74998   0.83326   0.00000  Uiso   1.00
C642   C     0.88329   0.74998   0.83340   0.00000  Uiso   1.00
C643   C     0.52428   0.74996   0.83329   0.00000  Uiso   1.00
C644   C     0.97572   0.74996   0.83335   0.00000  Uiso   1.00
Cu645  Cu    0.75000   0.79822   0.83333   0.00000  Uiso   1.00
Cu646  Cu    0.75000   0.70179   0.83333   0.00000  Uiso   1.00
H647   H     0.61075   0.82340   0.80680   0.00000  Uiso   1.00
H648   H     0.88909   0.67653   0.80701   0.00000  Uiso   1.00
H649   H     0.88925   0.82340   0.85984   0.00000  Uiso   1.00
H650   H     0.61091   0.67653   0.85966   0.00000  Uiso   1.00
H651   H     0.81268   0.53596   0.87149   0.00000  Uiso   1.00
H652   H     0.71186   0.96400   0.76616   0.00000  Uiso   1.00
H653   H     0.68732   0.53596   0.79518   0.00000  Uiso   1.00
H654   H     0.78814   0.96400   0.90051   0.00000  Uiso   1.00
N655   N     0.75000   0.62935   0.83333   0.00000  Uiso   1.00
N656   N     0.75000   0.87066   0.83333   0.00000  Uiso   1.00
O657   O     0.68573   0.79072   0.83334   0.00000  Uiso   1.00
O658   O     0.81427   0.70929   0.83333   0.00000  Uiso   1.00
O659   O     0.81427   0.79072   0.83333   0.00000  Uiso   1.00
O660   O     0.68573   0.70929   0.83334   0.00000  Uiso   1.00
O661   O     0.75000   0.79071   0.76280   0.00000  Uiso   1.00
O662   O     0.75000   0.70929   0.90387   0.00000  Uiso   1.00
O663   O     0.75000   0.79071   0.90387   0.00000  Uiso   1.00
O664   O     0.75000   0.70929   0.76280   0.00000  Uiso   1.00
H665   H     0.81057   0.62423   0.87214   0.00000  Uiso   1.00
H666   H     0.71144   0.87567   0.76854   0.00000  Uiso   1.00
H667   H     0.68943   0.62423   0.79452   0.00000  Uiso   1.00
H668   H     0.78856   0.87567   0.89812   0.00000  Uiso   1.00
H669   H     0.53032   0.82308   0.80583   0.00000  Uiso   1.00
H670   H     0.96950   0.67682   0.80591   0.00000  Uiso   1.00
H671   H     0.96968   0.82308   0.86079   0.00000  Uiso   1.00
H672   H     0.53050   0.67682   0.86074   0.00000  Uiso   1.00
loop_
_geom_bond_atom_site_label_1
_geom_bond_atom_site_label_2
_geom_bond_distance
_geom_bond_site_symmetry_2
_ccdc_geom_bond_type
C1     O44     1.293   .     A
C1     C25     1.461   .     S
C1     O41     1.293   .     A
C2     O43     1.293   .     A
C2     C26     1.461   .     S
C2     O42     1.293   .     A
C3     H49     1.081   .     S
C3     N39     1.364   .     A
C3     C7      1.407   .     A
C4     C8      1.407   .     A
C4     N40     1.364   .     A
C4     H50     1.081   .     S
C5     C9      1.407   .     A
C5     N39     1.364   .     A
C5     H51     1.081   .     S
C6     C10     1.407   .     A
C6     N40     1.364   .     A
C6     H52     1.081   .     S
C7     H35     1.081   .     S
C7     C13     1.411   .     A
C8     H36     1.081   .     S
C8     C14     1.411   .     A
C9     H37     1.081   .     S
C9     C13     1.411   .     A
C10    H38     1.081   .     S
C10    C14     1.411   .     A
C11    O48     1.287   .     A
C11    O45     1.287   .     A
C11    C15     1.409   .     S
C12    O47     1.287   .     A
C12    C16     1.409   .     S
C12    O46     1.287   .     A
C13    C126    1.517   1_545 S
C14    C125    1.517   .     S
C15    C464    1.190   1_554 S
C16    C239    1.190   .     S
C17    C27     1.404   .     A
C17    H53     1.083   .     S
C17    C21     1.390   .     A
C18    H54     1.083   .     S
C18    C28     1.404   .     A
C18    C22     1.390   .     A
C19    C23     1.390   .     A
C19    C28     1.404   .     A
C19    H55     1.083   .     S
C20    C27     1.404   .     A
C20    H56     1.083   .     S
C20    C24     1.390   .     A
C21    H31     1.083   .     S
C21    C25     1.402   .     A
C22    H32     1.083   .     S
C22    C26     1.402   .     A
C23    C26     1.401   .     A
C23    H33     1.083   .     S
C24    C25     1.402   .     A
C24    H34     1.083   .     S
C27    C84     1.471   1_455 S
C28    C83     1.471   .     S
Cu29   Cu30    2.675   .     S
Cu29   O41     1.957   .     S
Cu29   O43     1.957   .     S
Cu29   O47     1.934   .     S
Cu29   N40     2.009   .     S
Cu29   O45     1.934   .     S
Cu30   O44     1.957   .     S
Cu30   N39     2.009   .     S
Cu30   O46     1.934   .     S
Cu30   O48     1.934   .     S
Cu30   O42     1.957   .     S
C57    O100    1.293   .     A
C57    C81     1.461   .     S
C57    O97     1.293   .     A
C58    O99     1.293   .     A
C58    C82     1.461   .     S
C58    O98     1.293   .     A
C59    H105    1.081   .     S
C59    N95     1.364   .     A
C59    C63     1.407   .     A
C60    C64     1.407   .     A
C60    N96     1.364   .     A
C60    H106    1.081   .     S
C61    C65     1.407   .     A
C61    N95     1.364   .     A
C61    H107    1.081   .     S
C62    C66     1.407   .     A
C62    N96     1.364   .     A
C62    H108    1.081   .     S
C63    H91     1.081   .     S
C63    C69     1.411   .     A
C64    H92     1.081   .     S
C64    C70     1.411   .     A
C65    H93     1.081   .     S
C65    C69     1.411   .     A
C66    H94     1.081   .     S
C66    C70     1.411   .     A
C67    O104    1.287   .     A
C67    O101    1.287   .     A
C67    C71     1.409   .     S
C68    O103    1.287   .     A
C68    C72     1.409   .     S
C68    O102    1.287   .     A
C69    C182    1.517   1_545 S
C70    C181    1.517   .     S
C71    C520    1.190   1_554 S
C72    C295    1.190   .     S
C73    C83     1.404   .     A
C73    H109    1.083   .     S
C73    C77     1.390   .     A
C74    H110    1.083   .     S
C74    C84     1.404   .     A
C74    C78     1.390   .     A
C75    C79     1.390   .     A
C75    C84     1.404   .     A
C75    H111    1.083   .     S
C76    C83     1.404   .     A
C76    H112    1.083   .     S
C76    C80     1.390   .     A
C77    H87     1.083   .     S
C77    C81     1.402   .     A
C78    H88     1.083   .     S
C78    C82     1.402   .     A
C79    C82     1.401   .     A
C79    H89     1.083   .     S
C80    C81     1.402   .     A
C80    H90     1.083   .     S
C84    C27     1.471   1_655 S
Cu85   Cu86    2.675   .     S
Cu85   O97     1.957   .     S
Cu85   O99     1.957   .     S
Cu85   O103    1.934   .     S
Cu85   N96     2.009   .     S
Cu85   O101    1.934   .     S
Cu86   O100    1.957   .     S
Cu86   N95     2.009   .     S
Cu86   O102    1.934   .     S
Cu86   O104    1.934   .     S
Cu86   O98     1.957   .     S
C113   O156    1.293   .     A
C113   C137    1.461   .     S
C113   O153    1.293   .     A
C114   O155    1.293   .     A
C114   C138    1.461   .     S
C114   O154    1.293   .     A
C115   H161    1.081   .     S
C115   N151    1.364   .     A
C115   C119    1.407   .     A
C116   C120    1.407   .     A
C116   N152    1.364   .     A
C116   H162    1.081   .     S
C117   C121    1.407   .     A
C117   N151    1.364   .     A
C117   H163    1.081   .     S
C118   C122    1.407   .     A
C118   N152    1.364   .     A
C118   H164    1.081   .     S
C119   H147    1.081   .     S
C119   C125    1.411   .     A
C120   H148    1.081   .     S
C120   C126    1.411   .     A
C121   H149    1.081   .     S
C121   C125    1.411   .     A
C122   H150    1.081   .     S
C122   C126    1.411   .     A
C123   O160    1.287   .     A
C123   O157    1.287   .     A
C123   C127    1.409   .     S
C124   O159    1.287   .     A
C124   C128    1.409   .     S
C124   O158    1.287   .     A
C126   C13     1.517   1_565 S
C127   C576    1.190   1_554 S
C128   C351    1.190   .     S
C129   C139    1.404   .     A
C129   H165    1.083   .     S
C129   C133    1.390   .     A
C130   H166    1.083   .     S
C130   C140    1.404   .     A
C130   C134    1.390   .     A
C131   C135    1.390   .     A
C131   C140    1.404   .     A
C131   H167    1.083   .     S
C132   C139    1.404   .     A
C132   H168    1.083   .     S
C132   C136    1.390   .     A
C133   H143    1.083   .     S
C133   C137    1.402   .     A
C134   H144    1.083   .     S
C134   C138    1.402   .     A
C135   C138    1.401   .     A
C135   H145    1.083   .     S
C136   C137    1.402   .     A
C136   H146    1.083   .     S
C139   C196    1.471   1_455 S
C140   C195    1.471   .     S
Cu141  Cu142   2.675   .     S
Cu141  O153    1.957   .     S
Cu141  O155    1.957   .     S
Cu141  O159    1.934   .     S
Cu141  N152    2.009   .     S
Cu141  O157    1.934   .     S
Cu142  O156    1.957   .     S
Cu142  N151    2.009   .     S
Cu142  O158    1.934   .     S
Cu142  O160    1.934   .     S
Cu142  O154    1.957   .     S
C169   O212    1.293   .     A
C169   C193    1.461   .     S
C169   O209    1.293   .     A
C170   O211    1.293   .     A
C170   C194    1.461   .     S
C170   O210    1.293   .     A
C171   H217    1.081   .     S
C171   N207    1.364   .     A
C171   C175    1.407   .     A
C172   C176    1.407   .     A
C172   N208    1.364   .     A
C172   H218    1.081   .     S
C173   C177    1.407   .     A
C173   N207    1.364   .     A
C173   H219    1.081   .     S
C174   C178    1.407   .     A
C174   N208    1.364   .     A
C174   H220    1.081   .     S
C175   H203    1.081   .     S
C175   C181    1.411   .     A
C176   H204    1.081   .     S
C176   C182    1.411   .     A
C177   H205    1.081   .     S
C177   C181    1.411   .     A
C178   H206    1.081   .     S
C178   C182    1.411   .     A
C179   O216    1.287   .     A
C179   O213    1.287   .     A
C179   C183    1.409   .     S
C180   O215    1.287   .     A
C180   C184    1.409   .     S
C180   O214    1.287   .     A
C182   C69     1.517   1_565 S
C183   C632    1.190   1_554 S
C184   C407    1.190   .     S
C185   C195    1.404   .     A
C185   H221    1.083   .     S
C185   C189    1.390   .     A
C186   H222    1.083   .     S
C186   C196    1.404   .     A
C186   C190    1.390   .     A
C187   C191    1.390   .     A
C187   C196    1.404   .     A
C187   H223    1.083   .     S
C188   C195    1.404   .     A
C188   H224    1.083   .     S
C188   C192    1.390   .     A
C189   H199    1.083   .     S
C189   C193    1.402   .     A
C190   H200    1.083   .     S
C190   C194    1.402   .     A
C191   C194    1.401   .     A
C191   H201    1.083   .     S
C192   C193    1.402   .     A
C192   H202    1.083   .     S
C196   C139    1.471   1_655 S
Cu197  Cu198   2.675   .     S
Cu197  O209    1.957   .     S
Cu197  O211    1.957   .     S
Cu197  O215    1.934   .     S
Cu197  N208    2.009   .     S
Cu197  O213    1.934   .     S
Cu198  O212    1.957   .     S
Cu198  N207    2.009   .     S
Cu198  O214    1.934   .     S
Cu198  O216    1.934   .     S
Cu198  O210    1.957   .     S
C225   O268    1.293   .     A
C225   C249    1.461   .     S
C225   O265    1.293   .     A
C226   O267    1.293   .     A
C226   C250    1.461   .     S
C226   O266    1.293   .     A
C227   H273    1.081   .     S
C227   N263    1.364   .     A
C227   C231    1.407   .     A
C228   C232    1.407   .     A
C228   N264    1.364   .     A
C228   H274    1.081   .     S
C229   C233    1.407   .     A
C229   N263    1.364   .     A
C229   H275    1.081   .     S
C230   C234    1.407   .     A
C230   N264    1.364   .     A
C230   H276    1.081   .     S
C231   H259    1.081   .     S
C231   C237    1.411   .     A
C232   H260    1.081   .     S
C232   C238    1.411   .     A
C233   H261    1.081   .     S
C233   C237    1.411   .     A
C234   H262    1.081   .     S
C234   C238    1.411   .     A
C235   O272    1.287   .     A
C235   O269    1.287   .     A
C235   C239    1.409   .     S
C236   O271    1.287   .     A
C236   C240    1.409   .     S
C236   O270    1.287   .     A
C237   C350    1.517   1_545 S
C238   C349    1.517   .     S
C240   C463    1.190   .     S
C241   C251    1.404   .     A
C241   H277    1.083   .     S
C241   C245    1.390   .     A
C242   H278    1.083   .     S
C242   C252    1.404   .     A
C242   C246    1.390   .     A
C243   C247    1.390   .     A
C243   C252    1.404   .     A
C243   H279    1.083   .     S
C244   C251    1.404   .     A
C244   H280    1.083   .     S
C244   C248    1.390   .     A
C245   H255    1.083   .     S
C245   C249    1.402   .     A
C246   H256    1.083   .     S
C246   C250    1.402   .     A
C247   C250    1.401   .     A
C247   H257    1.083   .     S
C248   C249    1.402   .     A
C248   H258    1.083   .     S
C251   C308    1.471   1_455 S
C252   C307    1.471   .     S
Cu253  Cu254   2.675   .     S
Cu253  O265    1.957   .     S
Cu253  O267    1.957   .     S
Cu253  O271    1.934   .     S
Cu253  N264    2.009   .     S
Cu253  O269    1.934   .     S
Cu254  O268    1.957   .     S
Cu254  N263    2.009   .     S
Cu254  O270    1.934   .     S
Cu254  O272    1.934   .     S
Cu254  O266    1.957   .     S
C281   O324    1.293   .     A
C281   C305    1.461   .     S
C281   O321    1.293   .     A
C282   O323    1.293   .     A
C282   C306    1.461   .     S
C282   O322    1.293   .     A
C283   H329    1.081   .     S
C283   N319    1.364   .     A
C283   C287    1.407   .     A
C284   C288    1.407   .     A
C284   N320    1.364   .     A
C284   H330    1.081   .     S
C285   C289    1.407   .     A
C285   N319    1.364   .     A
C285   H331    1.081   .     S
C286   C290    1.407   .     A
C286   N320    1.364   .     A
C286   H332    1.081   .     S
C287   H315    1.081   .     S
C287   C293    1.411   .     A
C288   H316    1.081   .     S
C288   C294    1.411   .     A
C289   H317    1.081   .     S
C289   C293    1.411   .     A
C290   H318    1.081   .     S
C290   C294    1.411   .     A
C291   O328    1.287   .     A
C291   O325    1.287   .     A
C291   C295    1.409   .     S
C292   O327    1.287   .     A
C292   C296    1.409   .     S
C292   O326    1.287   .     A
C293   C406    1.517   1_545 S
C294   C405    1.517   .     S
C296   C519    1.190   .     S
C297   C307    1.404   .     A
C297   H333    1.083   .     S
C297   C301    1.390   .     A
C298   H334    1.083   .     S
C298   C308    1.404   .     A
C298   C302    1.390   .     A
C299   C303    1.390   .     A
C299   C308    1.404   .     A
C299   H335    1.083   .     S
C300   C307    1.404   .     A
C300   H336    1.083   .     S
C300   C304    1.390   .     A
C301   H311    1.083   .     S
C301   C305    1.402   .     A
C302   H312    1.083   .     S
C302   C306    1.402   .     A
C303   C306    1.401   .     A
C303   H313    1.083   .     S
C304   C305    1.402   .     A
C304   H314    1.083   .     S
C308   C251    1.471   1_655 S
Cu309  Cu310   2.675   .     S
Cu309  O321    1.957   .     S
Cu309  O323    1.957   .     S
Cu309  O327    1.934   .     S
Cu309  N320    2.009   .     S
Cu309  O325    1.934   .     S
Cu310  O324    1.957   .     S
Cu310  N319    2.009   .     S
Cu310  O326    1.934   .     S
Cu310  O328    1.934   .     S
Cu310  O322    1.957   .     S
C337   O380    1.293   .     A
C337   C361    1.461   .     S
C337   O377    1.293   .     A
C338   O379    1.293   .     A
C338   C362    1.461   .     S
C338   O378    1.293   .     A
C339   H385    1.081   .     S
C339   N375    1.364   .     A
C339   C343    1.407   .     A
C340   C344    1.407   .     A
C340   N376    1.364   .     A
C340   H386    1.081   .     S
C341   C345    1.407   .     A
C341   N375    1.364   .     A
C341   H387    1.081   .     S
C342   C346    1.407   .     A
C342   N376    1.364   .     A
C342   H388    1.081   .     S
C343   H371    1.081   .     S
C343   C349    1.411   .     A
C344   H372    1.081   .     S
C344   C350    1.411   .     A
C345   H373    1.081   .     S
C345   C349    1.411   .     A
C346   H374    1.081   .     S
C346   C350    1.411   .     A
C347   O384    1.287   .     A
C347   O381    1.287   .     A
C347   C351    1.409   .     S
C348   O383    1.287   .     A
C348   C352    1.409   .     S
C348   O382    1.287   .     A
C350   C237    1.517   1_565 S
C352   C575    1.190   .     S
C353   C363    1.404   .     A
C353   H389    1.083   .     S
C353   C357    1.390   .     A
C354   H390    1.083   .     S
C354   C364    1.404   .     A
C354   C358    1.390   .     A
C355   C359    1.390   .     A
C355   C364    1.404   .     A
C355   H391    1.083   .     S
C356   C363    1.404   .     A
C356   H392    1.083   .     S
C356   C360    1.390   .     A
C357   H367    1.083   .     S
C357   C361    1.402   .     A
C358   H368    1.083   .     S
C358   C362    1.402   .     A
C359   C362    1.401   .     A
C359   H369    1.083   .     S
C360   C361    1.402   .     A
C360   H370    1.083   .     S
C363   C420    1.471   1_455 S
C364   C419    1.471   .     S
Cu365  Cu366   2.675   .     S
Cu365  O377    1.957   .     S
Cu365  O379    1.957   .     S
Cu365  O383    1.934   .     S
Cu365  N376    2.009   .     S
Cu365  O381    1.934   .     S
Cu366  O380    1.957   .     S
Cu366  N375    2.009   .     S
Cu366  O382    1.934   .     S
Cu366  O384    1.934   .     S
Cu366  O378    1.957   .     S
C393   O436    1.293   .     A
C393   C417    1.461   .     S
C393   O433    1.293   .     A
C394   O435    1.293   .     A
C394   C418    1.461   .     S
C394   O434    1.293   .     A
C395   H441    1.081   .     S
C395   N431    1.364   .     A
C395   C399    1.407   .     A
C396   C400    1.407   .     A
C396   N432    1.364   .     A
C396   H442    1.081   .     S
C397   C401    1.407   .     A
C397   N431    1.364   .     A
C397   H443    1.081   .     S
C398   C402    1.407   .     A
C398   N432    1.364   .     A
C398   H444    1.081   .     S
C399   H427    1.081   .     S
C399   C405    1.411   .     A
C400   H428    1.081   .     S
C400   C406    1.411   .     A
C401   H429    1.081   .     S
C401   C405    1.411   .     A
C402   H430    1.081   .     S
C402   C406    1.411   .     A
C403   O440    1.287   .     A
C403   O437    1.287   .     A
C403   C407    1.409   .     S
C404   O439    1.287   .     A
C404   C408    1.409   .     S
C404   O438    1.287   .     A
C406   C293    1.517   1_565 S
C408   C631    1.190   .     S
C409   C419    1.404   .     A
C409   H445    1.083   .     S
C409   C413    1.390   .     A
C410   H446    1.083   .     S
C410   C420    1.404   .     A
C410   C414    1.390   .     A
C411   C415    1.390   .     A
C411   C420    1.404   .     A
C411   H447    1.083   .     S
C412   C419    1.404   .     A
C412   H448    1.083   .     S
C412   C416    1.390   .     A
C413   H423    1.083   .     S
C413   C417    1.402   .     A
C414   H424    1.083   .     S
C414   C418    1.402   .     A
C415   C418    1.401   .     A
C415   H425    1.083   .     S
C416   C417    1.402   .     A
C416   H426    1.083   .     S
C420   C363    1.471   1_655 S
Cu421  Cu422   2.675   .     S
Cu421  O433    1.957   .     S
Cu421  O435    1.957   .     S
Cu421  O439    1.934   .     S
Cu421  N432    2.009   .     S
Cu421  O437    1.934   .     S
Cu422  O436    1.957   .     S
Cu422  N431    2.009   .     S
Cu422  O438    1.934   .     S
Cu422  O440    1.934   .     S
Cu422  O434    1.957   .     S
C449   O492    1.293   .     A
C449   C473    1.461   .     S
C449   O489    1.293   .     A
C450   O491    1.293   .     A
C450   C474    1.461   .     S
C450   O490    1.293   .     A
C451   H497    1.081   .     S
C451   N487    1.364   .     A
C451   C455    1.407   .     A
C452   C456    1.407   .     A
C452   N488    1.364   .     A
C452   H498    1.081   .     S
C453   C457    1.407   .     A
C453   N487    1.364   .     A
C453   H499    1.081   .     S
C454   C458    1.407   .     A
C454   N488    1.364   .     A
C454   H500    1.081   .     S
C455   H483    1.081   .     S
C455   C461    1.411   .     A
C456   H484    1.081   .     S
C456   C462    1.411   .     A
C457   H485    1.081   .     S
C457   C461    1.411   .     A
C458   H486    1.081   .     S
C458   C462    1.411   .     A
C459   O496    1.287   .     A
C459   O493    1.287   .     A
C459   C463    1.409   .     S
C460   O495    1.287   .     A
C460   C464    1.409   .     S
C460   O494    1.287   .     A
C461   C574    1.517   1_545 S
C462   C573    1.517   .     S
C464   C15     1.190   1_556 S
C465   C475    1.404   .     A
C465   H501    1.083   .     S
C465   C469    1.390   .     A
C466   H502    1.083   .     S
C466   C476    1.404   .     A
C466   C470    1.390   .     A
C467   C471    1.390   .     A
C467   C476    1.404   .     A
C467   H503    1.083   .     S
C468   C475    1.404   .     A
C468   H504    1.083   .     S
C468   C472    1.390   .     A
C469   H479    1.083   .     S
C469   C473    1.402   .     A
C470   H480    1.083   .     S
C470   C474    1.402   .     A
C471   C474    1.401   .     A
C471   H481    1.083   .     S
C472   C473    1.402   .     A
C472   H482    1.083   .     S
C475   C532    1.471   1_455 S
C476   C531    1.471   .     S
Cu477  Cu478   2.675   .     S
Cu477  O489    1.957   .     S
Cu477  O491    1.957   .     S
Cu477  O495    1.934   .     S
Cu477  N488    2.009   .     S
Cu477  O493    1.934   .     S
Cu478  O492    1.957   .     S
Cu478  N487    2.009   .     S
Cu478  O494    1.934   .     S
Cu478  O496    1.934   .     S
Cu478  O490    1.957   .     S
C505   O548    1.293   .     A
C505   C529    1.461   .     S
C505   O545    1.293   .     A
C506   O547    1.293   .     A
C506   C530    1.461   .     S
C506   O546    1.293   .     A
C507   H553    1.081   .     S
C507   N543    1.364   .     A
C507   C511    1.407   .     A
C508   C512    1.407   .     A
C508   N544    1.364   .     A
C508   H554    1.081   .     S
C509   C513    1.407   .     A
C509   N543    1.364   .     A
C509   H555    1.081   .     S
C510   C514    1.407   .     A
C510   N544    1.364   .     A
C510   H556    1.081   .     S
C511   H539    1.081   .     S
C511   C517    1.411   .     A
C512   H540    1.081   .     S
C512   C518    1.411   .     A
C513   H541    1.081   .     S
C513   C517    1.411   .     A
C514   H542    1.081   .     S
C514   C518    1.411   .     A
C515   O552    1.287   .     A
C515   O549    1.287   .     A
C515   C519    1.409   .     S
C516   O551    1.287   .     A
C516   C520    1.409   .     S
C516   O550    1.287   .     A
C517   C630    1.517   1_545 S
C518   C629    1.517   .     S
C520   C71     1.190   1_556 S
C521   C531    1.404   .     A
C521   H557    1.083   .     S
C521   C525    1.390   .     A
C522   H558    1.083   .     S
C522   C532    1.404   .     A
C522   C526    1.390   .     A
C523   C527    1.390   .     A
C523   C532    1.404   .     A
C523   H559    1.083   .     S
C524   C531    1.404   .     A
C524   H560    1.083   .     S
C524   C528    1.390   .     A
C525   H535    1.083   .     S
C525   C529    1.402   .     A
C526   H536    1.083   .     S
C526   C530    1.402   .     A
C527   C530    1.401   .     A
C527   H537    1.083   .     S
C528   C529    1.402   .     A
C528   H538    1.083   .     S
C532   C475    1.471   1_655 S
Cu533  Cu534   2.675   .     S
Cu533  O545    1.957   .     S
Cu533  O547    1.957   .     S
Cu533  O551    1.934   .     S
Cu533  N544    2.009   .     S
Cu533  O549    1.934   .     S
Cu534  O548    1.957   .     S
Cu534  N543    2.009   .     S
Cu534  O550    1.934   .     S
Cu534  O552    1.934   .     S
Cu534  O546    1.957   .     S
C561   O604    1.293   .     A
C561   C585    1.461   .     S
C561   O601    1.293   .     A
C562   O603    1.293   .     A
C562   C586    1.461   .     S
C562   O602    1.293   .     A
C563   H609    1.081   .     S
C563   N599    1.364   .     A
C563   C567    1.407   .     A
C564   C568    1.407   .     A
C564   N600    1.364   .     A
C564   H610    1.081   .     S
C565   C569    1.407   .     A
C565   N599    1.364   .     A
C565   H611    1.081   .     S
C566   C570    1.407   .     A
C566   N600    1.364   .     A
C566   H612    1.081   .     S
C567   H595    1.081   .     S
C567   C573    1.411   .     A
C568   H596    1.081   .     S
C568   C574    1.411   .     A
C569   H597    1.081   .     S
C569   C573    1.411   .     A
C570   H598    1.081   .     S
C570   C574    1.411   .     A
C571   O608    1.287   .     A
C571   O605    1.287   .     A
C571   C575    1.409   .     S
C572   O607    1.287   .     A
C572   C576    1.409   .     S
C572   O606    1.287   .     A
C574   C461    1.517   1_565 S
C576   C127    1.190   1_556 S
C577   C587    1.404   .     A
C577   H613    1.083   .     S
C577   C581    1.390   .     A
C578   H614    1.083   .     S
C578   C588    1.404   .     A
C578   C582    1.390   .     A
C579   C583    1.390   .     A
C579   C588    1.404   .     A
C579   H615    1.083   .     S
C580   C587    1.404   .     A
C580   H616    1.083   .     S
C580   C584    1.390   .     A
C581   H591    1.083   .     S
C581   C585    1.402   .     A
C582   H592    1.083   .     S
C582   C586    1.402   .     A
C583   C586    1.401   .     A
C583   H593    1.083   .     S
C584   C585    1.402   .     A
C584   H594    1.083   .     S
C587   C644    1.471   1_455 S
C588   C643    1.471   .     S
Cu589  Cu590   2.675   .     S
Cu589  O601    1.957   .     S
Cu589  O603    1.957   .     S
Cu589  O607    1.934   .     S
Cu589  N600    2.009   .     S
Cu589  O605    1.934   .     S
Cu590  O604    1.957   .     S
Cu590  N599    2.009   .     S
Cu590  O606    1.934   .     S
Cu590  O608    1.934   .     S
Cu590  O602    1.957   .     S
C617   O660    1.293   .     A
C617   C641    1.461   .     S
C617   O657    1.293   .     A
C618   O659    1.293   .     A
C618   C642    1.461   .     S
C618   O658    1.293   .     A
C619   H665    1.081   .     S
C619   N655    1.364   .     A
C619   C623    1.407   .     A
C620   C624    1.407   .     A
C620   N656    1.364   .     A
C620   H666    1.081   .     S
C621   C625    1.407   .     A
C621   N655    1.364   .     A
C621   H667    1.081   .     S
C622   C626    1.407   .     A
C622   N656    1.364   .     A
C622   H668    1.081   .     S
C623   H651    1.081   .     S
C623   C629    1.411   .     A
C624   H652    1.081   .     S
C624   C630    1.411   .     A
C625   H653    1.081   .     S
C625   C629    1.411   .     A
C626   H654    1.081   .     S
C626   C630    1.411   .     A
C627   O664    1.287   .     A
C627   O661    1.287   .     A
C627   C631    1.409   .     S
C628   O663    1.287   .     A
C628   C632    1.409   .     S
C628   O662    1.287   .     A
C630   C517    1.517   1_565 S
C632   C183    1.190   1_556 S
C633   C643    1.404   .     A
C633   H669    1.083   .     S
C633   C637    1.390   .     A
C634   H670    1.083   .     S
C634   C644    1.404   .     A
C634   C638    1.390   .     A
C635   C639    1.390   .     A
C635   C644    1.404   .     A
C635   H671    1.083   .     S
C636   C643    1.404   .     A
C636   H672    1.083   .     S
C636   C640    1.390   .     A
C637   H647    1.083   .     S
C637   C641    1.402   .     A
C638   H648    1.083   .     S
C638   C642    1.402   .     A
C639   C642    1.401   .     A
C639   H649    1.083   .     S
C640   C641    1.402   .     A
C640   H650    1.083   .     S
C644   C587    1.471   1_655 S
Cu645  Cu646   2.675   .     S
Cu645  O657    1.957   .     S
Cu645  O659    1.957   .     S
Cu645  O663    1.934   .     S
Cu645  N656    2.009   .     S
Cu645  O661    1.934   .     S
Cu646  O660    1.957   .     S
Cu646  N655    2.009   .     S
Cu646  O662    1.934   .     S
Cu646  O664    1.934   .     S
Cu646  O658    1.957   .     S
