data_str_m2_o1_o16_pcu_sym.131
_audit_creation_date              2020-01-03
_audit_creation_method            'Materials Studio'
_symmetry_space_group_name_H-M    'P1'
_symmetry_Int_Tables_number       1
_symmetry_cell_setting            triclinic
loop_
_symmetry_equiv_pos_as_xyz
  x,y,z
_cell_length_a                    28.5486
_cell_length_b                    32.5009
_cell_length_c                    26.7275
_cell_angle_alpha                 90.0818
_cell_angle_beta                  73.5418
_cell_angle_gamma                 90.0103
loop_
_atom_site_label
_atom_site_type_symbol
_atom_site_fract_x
_atom_site_fract_y
_atom_site_fract_z
_atom_site_U_iso_or_equiv
_atom_site_adp_type
_atom_site_occupancy
C1     C     0.16667   0.24598   0.25005   0.00000  Uiso   1.00
C2     C     0.15017   0.13619   0.48645   0.00000  Uiso   1.00
C3     C     0.16494   0.14041   0.43139   0.00000  Uiso   1.00
C4     C     0.18536   0.14479   0.01371   0.00000  Uiso   1.00
C5     C     0.23546   0.14771   0.48558   0.00000  Uiso   1.00
C6     C     0.25011   0.14034   0.43222   0.00000  Uiso   1.00
C7     C     0.21535   0.13613   0.40548   0.00000  Uiso   1.00
C8     C     0.17191   0.15442   0.06709   0.00000  Uiso   1.00
C9     C     0.25669   0.16443   0.06457   0.00000  Uiso   1.00
C10    C     0.12874   0.14772   0.40485   0.00000  Uiso   1.00
C11    C     0.20902   0.31207   0.25080   0.00000  Uiso   1.00
C12    C     0.14142   0.16121   0.34948   0.00000  Uiso   1.00
C13    C     0.20903   0.02131   0.25074   0.00000  Uiso   1.00
C14    C     0.16668   0.04275   0.24993   0.00000  Uiso   1.00
C15    C     0.12433   0.02128   0.24914   0.00000  Uiso   1.00
C16    C     0.12432   0.31205   0.24922   0.00000  Uiso   1.00
C17    C     0.16667   0.29060   0.25003   0.00000  Uiso   1.00
C18    C     0.29966   0.19138   0.28348   0.00000  Uiso   1.00
C19    C     0.01593   0.19133   0.28352   0.00000  Uiso   1.00
C20    C     0.03365   0.14190   0.21659   0.00000  Uiso   1.00
C21    C     0.31734   0.14189   0.21664   0.00000  Uiso   1.00
C22    C     0.16667   0.08735   0.24993   0.00000  Uiso   1.00
C23    C     0.19251   0.16637   0.14989   0.00000  Uiso   1.00
C24    C     0.27040   0.15818   0.01097   0.00000  Uiso   1.00
C25    C     0.20735   0.16232   0.09298   0.00000  Uiso   1.00
C26    C     0.07958   0.14112   0.43186   0.00000  Uiso   1.00
C27    C     0.06662   0.12670   0.48296   0.00000  Uiso   1.00
C28    C     0.10124   0.12349   0.01082   0.00000  Uiso   1.00
Cu29   Cu    0.11978   0.16666   0.25000   0.00000  Uiso   1.00
Cu30   Cu    0.21355   0.16667   0.25000   0.00000  Uiso   1.00
H31    H     0.28459   0.17140   0.08359   0.00000  Uiso   1.00
H32    H     0.24214   0.03733   0.25136   0.00000  Uiso   1.00
H33    H     0.09123   0.03728   0.24845   0.00000  Uiso   1.00
H34    H     0.09121   0.29603   0.24860   0.00000  Uiso   1.00
H35    H     0.27386   0.21117   0.31031   0.00000  Uiso   1.00
H36    H     0.02754   0.21111   0.31034   0.00000  Uiso   1.00
H37    H     0.05946   0.12203   0.18991   0.00000  Uiso   1.00
H38    H     0.30558   0.12201   0.19005   0.00000  Uiso   1.00
H39    H     0.28851   0.13914   0.41075   0.00000  Uiso   1.00
H40    H     0.30815   0.16228   0.48903   0.00000  Uiso   1.00
H41    H     0.13383   0.15660   0.08879   0.00000  Uiso   1.00
H42    H     0.05130   0.14448   0.41238   0.00000  Uiso   1.00
H43    H     0.02957   0.11641   0.00033   0.00000  Uiso   1.00
H44    H     0.22922   0.12799   0.36491   0.00000  Uiso   1.00
H45    H     0.24212   0.29607   0.25147   0.00000  Uiso   1.00
N46    N     0.04931   0.16666   0.24998   0.00000  Uiso   1.00
N47    N     0.28402   0.16669   0.24999   0.00000  Uiso   1.00
O48    O     0.12708   0.22678   0.25000   0.00000  Uiso   1.00
O49    O     0.20627   0.22679   0.25000   0.00000  Uiso   1.00
O50    O     0.10775   0.16665   0.32549   0.00000  Uiso   1.00
O51    O     0.18694   0.16666   0.32549   0.00000  Uiso   1.00
O52    O     0.12706   0.10654   0.24999   0.00000  Uiso   1.00
O53    O     0.20625   0.10655   0.24999   0.00000  Uiso   1.00
O54    O     0.14640   0.16667   0.17451   0.00000  Uiso   1.00
O55    O     0.22559   0.16668   0.17451   0.00000  Uiso   1.00
C56    C     0.08667   0.09990   0.06046   0.00000  Uiso   1.00
O57    O     0.11674   0.07906   0.07379   0.00000  Uiso   1.00
O58    O     0.03784   0.09965   0.09058   0.00000  Uiso   1.00
H59    H     0.03208   0.08081   0.12193   0.00000  Uiso   1.00
C60    C     0.50000   0.24598   0.25005   0.00000  Uiso   1.00
C61    C     0.48350   0.13619   0.48645   0.00000  Uiso   1.00
C62    C     0.49827   0.14041   0.43139   0.00000  Uiso   1.00
C63    C     0.51870   0.14479   0.01371   0.00000  Uiso   1.00
C64    C     0.56880   0.14771   0.48558   0.00000  Uiso   1.00
C65    C     0.58344   0.14034   0.43222   0.00000  Uiso   1.00
C66    C     0.54869   0.13613   0.40548   0.00000  Uiso   1.00
C67    C     0.50525   0.15442   0.06709   0.00000  Uiso   1.00
C68    C     0.59002   0.16443   0.06457   0.00000  Uiso   1.00
C69    C     0.46207   0.14772   0.40485   0.00000  Uiso   1.00
C70    C     0.54236   0.31207   0.25080   0.00000  Uiso   1.00
C71    C     0.47475   0.16121   0.34948   0.00000  Uiso   1.00
C72    C     0.54236   0.02131   0.25074   0.00000  Uiso   1.00
C73    C     0.50001   0.04275   0.24993   0.00000  Uiso   1.00
C74    C     0.45766   0.02128   0.24914   0.00000  Uiso   1.00
C75    C     0.45765   0.31205   0.24922   0.00000  Uiso   1.00
C76    C     0.50000   0.29060   0.25003   0.00000  Uiso   1.00
C77    C     0.63300   0.19138   0.28348   0.00000  Uiso   1.00
C78    C     0.34927   0.19133   0.28352   0.00000  Uiso   1.00
C79    C     0.36698   0.14190   0.21659   0.00000  Uiso   1.00
C80    C     0.65067   0.14189   0.21664   0.00000  Uiso   1.00
C81    C     0.50001   0.08735   0.24993   0.00000  Uiso   1.00
C82    C     0.52584   0.16637   0.14989   0.00000  Uiso   1.00
C83    C     0.60373   0.15818   0.01097   0.00000  Uiso   1.00
C84    C     0.54068   0.16232   0.09298   0.00000  Uiso   1.00
C85    C     0.41291   0.14112   0.43186   0.00000  Uiso   1.00
C86    C     0.39996   0.12670   0.48296   0.00000  Uiso   1.00
C87    C     0.43457   0.12349   0.01082   0.00000  Uiso   1.00
Cu88   Cu    0.45311   0.16666   0.25000   0.00000  Uiso   1.00
Cu89   Cu    0.54689   0.16667   0.25000   0.00000  Uiso   1.00
H90    H     0.61792   0.17140   0.08359   0.00000  Uiso   1.00
H91    H     0.57547   0.03733   0.25136   0.00000  Uiso   1.00
H92    H     0.42457   0.03728   0.24845   0.00000  Uiso   1.00
H93    H     0.42454   0.29603   0.24860   0.00000  Uiso   1.00
H94    H     0.60720   0.21117   0.31031   0.00000  Uiso   1.00
H95    H     0.36087   0.21111   0.31034   0.00000  Uiso   1.00
H96    H     0.39279   0.12203   0.18991   0.00000  Uiso   1.00
H97    H     0.63891   0.12201   0.19005   0.00000  Uiso   1.00
H98    H     0.62184   0.13914   0.41075   0.00000  Uiso   1.00
H99    H     0.64148   0.16228   0.48903   0.00000  Uiso   1.00
H100   H     0.46716   0.15660   0.08879   0.00000  Uiso   1.00
H101   H     0.38464   0.14448   0.41238   0.00000  Uiso   1.00
H102   H     0.36291   0.11641   0.00033   0.00000  Uiso   1.00
H103   H     0.56255   0.12799   0.36491   0.00000  Uiso   1.00
H104   H     0.57546   0.29607   0.25147   0.00000  Uiso   1.00
N105   N     0.38265   0.16666   0.24998   0.00000  Uiso   1.00
N106   N     0.61735   0.16669   0.24999   0.00000  Uiso   1.00
O107   O     0.46042   0.22678   0.25000   0.00000  Uiso   1.00
O108   O     0.53961   0.22679   0.25000   0.00000  Uiso   1.00
O109   O     0.44108   0.16665   0.32549   0.00000  Uiso   1.00
O110   O     0.52027   0.16666   0.32549   0.00000  Uiso   1.00
O111   O     0.46039   0.10654   0.24999   0.00000  Uiso   1.00
O112   O     0.53958   0.10655   0.24999   0.00000  Uiso   1.00
O113   O     0.47973   0.16667   0.17451   0.00000  Uiso   1.00
O114   O     0.55892   0.16668   0.17451   0.00000  Uiso   1.00
C115   C     0.42000   0.09990   0.06046   0.00000  Uiso   1.00
O116   O     0.45008   0.07906   0.07379   0.00000  Uiso   1.00
O117   O     0.37118   0.09965   0.09058   0.00000  Uiso   1.00
H118   H     0.36541   0.08081   0.12193   0.00000  Uiso   1.00
C119   C     0.83333   0.24598   0.25005   0.00000  Uiso   1.00
C120   C     0.81683   0.13619   0.48645   0.00000  Uiso   1.00
C121   C     0.83161   0.14041   0.43139   0.00000  Uiso   1.00
C122   C     0.85203   0.14479   0.01371   0.00000  Uiso   1.00
C123   C     0.90213   0.14771   0.48558   0.00000  Uiso   1.00
C124   C     0.91677   0.14034   0.43222   0.00000  Uiso   1.00
C125   C     0.88202   0.13613   0.40548   0.00000  Uiso   1.00
C126   C     0.83858   0.15442   0.06709   0.00000  Uiso   1.00
C127   C     0.92335   0.16443   0.06457   0.00000  Uiso   1.00
C128   C     0.79540   0.14772   0.40485   0.00000  Uiso   1.00
C129   C     0.87569   0.31207   0.25080   0.00000  Uiso   1.00
C130   C     0.80808   0.16121   0.34948   0.00000  Uiso   1.00
C131   C     0.87570   0.02131   0.25074   0.00000  Uiso   1.00
C132   C     0.83335   0.04275   0.24993   0.00000  Uiso   1.00
C133   C     0.79100   0.02128   0.24914   0.00000  Uiso   1.00
C134   C     0.79098   0.31205   0.24922   0.00000  Uiso   1.00
C135   C     0.83333   0.29060   0.25003   0.00000  Uiso   1.00
C136   C     0.96633   0.19138   0.28348   0.00000  Uiso   1.00
C137   C     0.68260   0.19133   0.28352   0.00000  Uiso   1.00
C138   C     0.70031   0.14190   0.21659   0.00000  Uiso   1.00
C139   C     0.98400   0.14189   0.21664   0.00000  Uiso   1.00
C140   C     0.83334   0.08735   0.24993   0.00000  Uiso   1.00
C141   C     0.85917   0.16637   0.14989   0.00000  Uiso   1.00
C142   C     0.93706   0.15818   0.01097   0.00000  Uiso   1.00
C143   C     0.87401   0.16232   0.09298   0.00000  Uiso   1.00
C144   C     0.74625   0.14112   0.43186   0.00000  Uiso   1.00
C145   C     0.73329   0.12670   0.48296   0.00000  Uiso   1.00
C146   C     0.76790   0.12349   0.01082   0.00000  Uiso   1.00
Cu147  Cu    0.78645   0.16666   0.25000   0.00000  Uiso   1.00
Cu148  Cu    0.88022   0.16667   0.25000   0.00000  Uiso   1.00
H149   H     0.95125   0.17140   0.08359   0.00000  Uiso   1.00
H150   H     0.90881   0.03733   0.25136   0.00000  Uiso   1.00
H151   H     0.75790   0.03728   0.24845   0.00000  Uiso   1.00
H152   H     0.75787   0.29603   0.24860   0.00000  Uiso   1.00
H153   H     0.94053   0.21117   0.31031   0.00000  Uiso   1.00
H154   H     0.69420   0.21111   0.31034   0.00000  Uiso   1.00
H155   H     0.72613   0.12203   0.18991   0.00000  Uiso   1.00
H156   H     0.97225   0.12201   0.19005   0.00000  Uiso   1.00
H157   H     0.95517   0.13914   0.41075   0.00000  Uiso   1.00
H158   H     0.97481   0.16228   0.48903   0.00000  Uiso   1.00
H159   H     0.80050   0.15660   0.08879   0.00000  Uiso   1.00
H160   H     0.71797   0.14448   0.41238   0.00000  Uiso   1.00
H161   H     0.69624   0.11641   0.00033   0.00000  Uiso   1.00
H162   H     0.89589   0.12799   0.36491   0.00000  Uiso   1.00
H163   H     0.90879   0.29607   0.25147   0.00000  Uiso   1.00
N164   N     0.71598   0.16666   0.24998   0.00000  Uiso   1.00
N165   N     0.95069   0.16669   0.24999   0.00000  Uiso   1.00
O166   O     0.79375   0.22678   0.25000   0.00000  Uiso   1.00
O167   O     0.87294   0.22679   0.25000   0.00000  Uiso   1.00
O168   O     0.77441   0.16665   0.32549   0.00000  Uiso   1.00
O169   O     0.85360   0.16666   0.32549   0.00000  Uiso   1.00
O170   O     0.79373   0.10654   0.24999   0.00000  Uiso   1.00
O171   O     0.87292   0.10655   0.24999   0.00000  Uiso   1.00
O172   O     0.81306   0.16667   0.17451   0.00000  Uiso   1.00
O173   O     0.89225   0.16668   0.17451   0.00000  Uiso   1.00
C174   C     0.75334   0.09990   0.06046   0.00000  Uiso   1.00
O175   O     0.78341   0.07906   0.07379   0.00000  Uiso   1.00
O176   O     0.70451   0.09965   0.09058   0.00000  Uiso   1.00
H177   H     0.69874   0.08081   0.12193   0.00000  Uiso   1.00
C178   C     0.16667   0.57931   0.25005   0.00000  Uiso   1.00
C179   C     0.15017   0.46952   0.48645   0.00000  Uiso   1.00
C180   C     0.16494   0.47374   0.43139   0.00000  Uiso   1.00
C181   C     0.18536   0.47812   0.01371   0.00000  Uiso   1.00
C182   C     0.23546   0.48104   0.48558   0.00000  Uiso   1.00
C183   C     0.25011   0.47368   0.43222   0.00000  Uiso   1.00
C184   C     0.21535   0.46947   0.40548   0.00000  Uiso   1.00
C185   C     0.17191   0.48775   0.06709   0.00000  Uiso   1.00
C186   C     0.25669   0.49777   0.06457   0.00000  Uiso   1.00
C187   C     0.12874   0.48105   0.40485   0.00000  Uiso   1.00
C188   C     0.20902   0.64540   0.25080   0.00000  Uiso   1.00
C189   C     0.14142   0.49454   0.34948   0.00000  Uiso   1.00
C190   C     0.20903   0.35464   0.25074   0.00000  Uiso   1.00
C191   C     0.16668   0.37608   0.24993   0.00000  Uiso   1.00
C192   C     0.12433   0.35461   0.24914   0.00000  Uiso   1.00
C193   C     0.12432   0.64538   0.24922   0.00000  Uiso   1.00
C194   C     0.16667   0.62393   0.25003   0.00000  Uiso   1.00
C195   C     0.29966   0.52471   0.28348   0.00000  Uiso   1.00
C196   C     0.01593   0.52466   0.28352   0.00000  Uiso   1.00
C197   C     0.03365   0.47523   0.21659   0.00000  Uiso   1.00
C198   C     0.31734   0.47522   0.21664   0.00000  Uiso   1.00
C199   C     0.16667   0.42069   0.24993   0.00000  Uiso   1.00
C200   C     0.19251   0.49971   0.14989   0.00000  Uiso   1.00
C201   C     0.27040   0.49152   0.01097   0.00000  Uiso   1.00
C202   C     0.20735   0.49565   0.09298   0.00000  Uiso   1.00
C203   C     0.07958   0.47446   0.43186   0.00000  Uiso   1.00
C204   C     0.06662   0.46003   0.48296   0.00000  Uiso   1.00
C205   C     0.10124   0.45683   0.01082   0.00000  Uiso   1.00
Cu206  Cu    0.11978   0.49999   0.25000   0.00000  Uiso   1.00
Cu207  Cu    0.21355   0.50001   0.25000   0.00000  Uiso   1.00
H208   H     0.28459   0.50473   0.08359   0.00000  Uiso   1.00
H209   H     0.24214   0.37066   0.25136   0.00000  Uiso   1.00
H210   H     0.09123   0.37062   0.24845   0.00000  Uiso   1.00
H211   H     0.09121   0.62936   0.24860   0.00000  Uiso   1.00
H212   H     0.27386   0.54451   0.31031   0.00000  Uiso   1.00
H213   H     0.02754   0.54444   0.31034   0.00000  Uiso   1.00
H214   H     0.05946   0.45536   0.18991   0.00000  Uiso   1.00
H215   H     0.30558   0.45535   0.19005   0.00000  Uiso   1.00
H216   H     0.28851   0.47248   0.41075   0.00000  Uiso   1.00
H217   H     0.30815   0.49562   0.48903   0.00000  Uiso   1.00
H218   H     0.13383   0.48993   0.08879   0.00000  Uiso   1.00
H219   H     0.05130   0.47781   0.41238   0.00000  Uiso   1.00
H220   H     0.02957   0.44974   0.00033   0.00000  Uiso   1.00
H221   H     0.22922   0.46132   0.36491   0.00000  Uiso   1.00
H222   H     0.24212   0.62940   0.25147   0.00000  Uiso   1.00
N223   N     0.04931   0.49999   0.24998   0.00000  Uiso   1.00
N224   N     0.28402   0.50002   0.24999   0.00000  Uiso   1.00
O225   O     0.12708   0.56011   0.25000   0.00000  Uiso   1.00
O226   O     0.20627   0.56012   0.25000   0.00000  Uiso   1.00
O227   O     0.10775   0.49998   0.32549   0.00000  Uiso   1.00
O228   O     0.18694   0.49999   0.32549   0.00000  Uiso   1.00
O229   O     0.12706   0.43988   0.24999   0.00000  Uiso   1.00
O230   O     0.20625   0.43989   0.24999   0.00000  Uiso   1.00
O231   O     0.14640   0.50001   0.17451   0.00000  Uiso   1.00
O232   O     0.22559   0.50002   0.17451   0.00000  Uiso   1.00
C233   C     0.08667   0.43323   0.06046   0.00000  Uiso   1.00
O234   O     0.11674   0.41239   0.07379   0.00000  Uiso   1.00
O235   O     0.03784   0.43298   0.09058   0.00000  Uiso   1.00
H236   H     0.03208   0.41414   0.12193   0.00000  Uiso   1.00
C237   C     0.50000   0.57931   0.25005   0.00000  Uiso   1.00
C238   C     0.48350   0.46952   0.48645   0.00000  Uiso   1.00
C239   C     0.49827   0.47374   0.43139   0.00000  Uiso   1.00
C240   C     0.51870   0.47812   0.01371   0.00000  Uiso   1.00
C241   C     0.56880   0.48104   0.48558   0.00000  Uiso   1.00
C242   C     0.58344   0.47368   0.43222   0.00000  Uiso   1.00
C243   C     0.54869   0.46947   0.40548   0.00000  Uiso   1.00
C244   C     0.50525   0.48775   0.06709   0.00000  Uiso   1.00
C245   C     0.59002   0.49777   0.06457   0.00000  Uiso   1.00
C246   C     0.46207   0.48105   0.40485   0.00000  Uiso   1.00
C247   C     0.54236   0.64540   0.25080   0.00000  Uiso   1.00
C248   C     0.47475   0.49454   0.34948   0.00000  Uiso   1.00
C249   C     0.54236   0.35464   0.25074   0.00000  Uiso   1.00
C250   C     0.50001   0.37608   0.24993   0.00000  Uiso   1.00
C251   C     0.45766   0.35461   0.24914   0.00000  Uiso   1.00
C252   C     0.45765   0.64538   0.24922   0.00000  Uiso   1.00
C253   C     0.50000   0.62393   0.25003   0.00000  Uiso   1.00
C254   C     0.63300   0.52471   0.28348   0.00000  Uiso   1.00
C255   C     0.34927   0.52466   0.28352   0.00000  Uiso   1.00
C256   C     0.36698   0.47523   0.21659   0.00000  Uiso   1.00
C257   C     0.65067   0.47522   0.21664   0.00000  Uiso   1.00
C258   C     0.50001   0.42069   0.24993   0.00000  Uiso   1.00
C259   C     0.52584   0.49971   0.14989   0.00000  Uiso   1.00
C260   C     0.60373   0.49152   0.01097   0.00000  Uiso   1.00
C261   C     0.54068   0.49565   0.09298   0.00000  Uiso   1.00
C262   C     0.41291   0.47446   0.43186   0.00000  Uiso   1.00
C263   C     0.39996   0.46003   0.48296   0.00000  Uiso   1.00
C264   C     0.43457   0.45683   0.01082   0.00000  Uiso   1.00
Cu265  Cu    0.45311   0.49999   0.25000   0.00000  Uiso   1.00
Cu266  Cu    0.54689   0.50001   0.25000   0.00000  Uiso   1.00
H267   H     0.61792   0.50473   0.08359   0.00000  Uiso   1.00
H268   H     0.57547   0.37066   0.25136   0.00000  Uiso   1.00
H269   H     0.42457   0.37062   0.24845   0.00000  Uiso   1.00
H270   H     0.42454   0.62936   0.24860   0.00000  Uiso   1.00
H271   H     0.60720   0.54451   0.31031   0.00000  Uiso   1.00
H272   H     0.36087   0.54444   0.31034   0.00000  Uiso   1.00
H273   H     0.39279   0.45536   0.18991   0.00000  Uiso   1.00
H274   H     0.63891   0.45535   0.19005   0.00000  Uiso   1.00
H275   H     0.62184   0.47248   0.41075   0.00000  Uiso   1.00
H276   H     0.64148   0.49562   0.48903   0.00000  Uiso   1.00
H277   H     0.46716   0.48993   0.08879   0.00000  Uiso   1.00
H278   H     0.38464   0.47781   0.41238   0.00000  Uiso   1.00
H279   H     0.36291   0.44974   0.00033   0.00000  Uiso   1.00
H280   H     0.56255   0.46132   0.36491   0.00000  Uiso   1.00
H281   H     0.57546   0.62940   0.25147   0.00000  Uiso   1.00
N282   N     0.38265   0.49999   0.24998   0.00000  Uiso   1.00
N283   N     0.61735   0.50002   0.24999   0.00000  Uiso   1.00
O284   O     0.46042   0.56011   0.25000   0.00000  Uiso   1.00
O285   O     0.53961   0.56012   0.25000   0.00000  Uiso   1.00
O286   O     0.44108   0.49998   0.32549   0.00000  Uiso   1.00
O287   O     0.52027   0.49999   0.32549   0.00000  Uiso   1.00
O288   O     0.46039   0.43988   0.24999   0.00000  Uiso   1.00
O289   O     0.53958   0.43989   0.24999   0.00000  Uiso   1.00
O290   O     0.47973   0.50001   0.17451   0.00000  Uiso   1.00
O291   O     0.55892   0.50002   0.17451   0.00000  Uiso   1.00
C292   C     0.42000   0.43323   0.06046   0.00000  Uiso   1.00
O293   O     0.45008   0.41239   0.07379   0.00000  Uiso   1.00
O294   O     0.37118   0.43298   0.09058   0.00000  Uiso   1.00
H295   H     0.36541   0.41414   0.12193   0.00000  Uiso   1.00
C296   C     0.83333   0.57931   0.25005   0.00000  Uiso   1.00
C297   C     0.81683   0.46952   0.48645   0.00000  Uiso   1.00
C298   C     0.83161   0.47374   0.43139   0.00000  Uiso   1.00
C299   C     0.85203   0.47812   0.01371   0.00000  Uiso   1.00
C300   C     0.90213   0.48104   0.48558   0.00000  Uiso   1.00
C301   C     0.91677   0.47368   0.43222   0.00000  Uiso   1.00
C302   C     0.88202   0.46947   0.40548   0.00000  Uiso   1.00
C303   C     0.83858   0.48775   0.06709   0.00000  Uiso   1.00
C304   C     0.92335   0.49777   0.06457   0.00000  Uiso   1.00
C305   C     0.79540   0.48105   0.40485   0.00000  Uiso   1.00
C306   C     0.87569   0.64540   0.25080   0.00000  Uiso   1.00
C307   C     0.80808   0.49454   0.34948   0.00000  Uiso   1.00
C308   C     0.87570   0.35464   0.25074   0.00000  Uiso   1.00
C309   C     0.83335   0.37608   0.24993   0.00000  Uiso   1.00
C310   C     0.79100   0.35461   0.24914   0.00000  Uiso   1.00
C311   C     0.79098   0.64538   0.24922   0.00000  Uiso   1.00
C312   C     0.83333   0.62393   0.25003   0.00000  Uiso   1.00
C313   C     0.96633   0.52471   0.28348   0.00000  Uiso   1.00
C314   C     0.68260   0.52466   0.28352   0.00000  Uiso   1.00
C315   C     0.70031   0.47523   0.21659   0.00000  Uiso   1.00
C316   C     0.98400   0.47522   0.21664   0.00000  Uiso   1.00
C317   C     0.83334   0.42069   0.24993   0.00000  Uiso   1.00
C318   C     0.85917   0.49971   0.14989   0.00000  Uiso   1.00
C319   C     0.93706   0.49152   0.01097   0.00000  Uiso   1.00
C320   C     0.87401   0.49565   0.09298   0.00000  Uiso   1.00
C321   C     0.74625   0.47446   0.43186   0.00000  Uiso   1.00
C322   C     0.73329   0.46003   0.48296   0.00000  Uiso   1.00
C323   C     0.76790   0.45683   0.01082   0.00000  Uiso   1.00
Cu324  Cu    0.78645   0.49999   0.25000   0.00000  Uiso   1.00
Cu325  Cu    0.88022   0.50001   0.25000   0.00000  Uiso   1.00
H326   H     0.95125   0.50473   0.08359   0.00000  Uiso   1.00
H327   H     0.90881   0.37066   0.25136   0.00000  Uiso   1.00
H328   H     0.75790   0.37062   0.24845   0.00000  Uiso   1.00
H329   H     0.75787   0.62936   0.24860   0.00000  Uiso   1.00
H330   H     0.94053   0.54451   0.31031   0.00000  Uiso   1.00
H331   H     0.69420   0.54444   0.31034   0.00000  Uiso   1.00
H332   H     0.72613   0.45536   0.18991   0.00000  Uiso   1.00
H333   H     0.97225   0.45535   0.19005   0.00000  Uiso   1.00
H334   H     0.95517   0.47248   0.41075   0.00000  Uiso   1.00
H335   H     0.97481   0.49562   0.48903   0.00000  Uiso   1.00
H336   H     0.80050   0.48993   0.08879   0.00000  Uiso   1.00
H337   H     0.71797   0.47781   0.41238   0.00000  Uiso   1.00
H338   H     0.69624   0.44974   0.00033   0.00000  Uiso   1.00
H339   H     0.89589   0.46132   0.36491   0.00000  Uiso   1.00
H340   H     0.90879   0.62940   0.25147   0.00000  Uiso   1.00
N341   N     0.71598   0.49999   0.24998   0.00000  Uiso   1.00
N342   N     0.95069   0.50002   0.24999   0.00000  Uiso   1.00
O343   O     0.79375   0.56011   0.25000   0.00000  Uiso   1.00
O344   O     0.87294   0.56012   0.25000   0.00000  Uiso   1.00
O345   O     0.77441   0.49998   0.32549   0.00000  Uiso   1.00
O346   O     0.85360   0.49999   0.32549   0.00000  Uiso   1.00
O347   O     0.79373   0.43988   0.24999   0.00000  Uiso   1.00
O348   O     0.87292   0.43989   0.24999   0.00000  Uiso   1.00
O349   O     0.81306   0.50001   0.17451   0.00000  Uiso   1.00
O350   O     0.89225   0.50002   0.17451   0.00000  Uiso   1.00
C351   C     0.75334   0.43323   0.06046   0.00000  Uiso   1.00
O352   O     0.78341   0.41239   0.07379   0.00000  Uiso   1.00
O353   O     0.70451   0.43298   0.09058   0.00000  Uiso   1.00
H354   H     0.69874   0.41414   0.12193   0.00000  Uiso   1.00
C355   C     0.16667   0.91265   0.25005   0.00000  Uiso   1.00
C356   C     0.15017   0.80286   0.48645   0.00000  Uiso   1.00
C357   C     0.16494   0.80707   0.43139   0.00000  Uiso   1.00
C358   C     0.18536   0.81145   0.01371   0.00000  Uiso   1.00
C359   C     0.23546   0.81437   0.48558   0.00000  Uiso   1.00
C360   C     0.25011   0.80701   0.43222   0.00000  Uiso   1.00
C361   C     0.21535   0.80280   0.40548   0.00000  Uiso   1.00
C362   C     0.17191   0.82109   0.06709   0.00000  Uiso   1.00
C363   C     0.25669   0.83110   0.06457   0.00000  Uiso   1.00
C364   C     0.12874   0.81439   0.40485   0.00000  Uiso   1.00
C365   C     0.20902   0.97874   0.25080   0.00000  Uiso   1.00
C366   C     0.14142   0.82787   0.34948   0.00000  Uiso   1.00
C367   C     0.20903   0.68797   0.25074   0.00000  Uiso   1.00
C368   C     0.16668   0.70941   0.24993   0.00000  Uiso   1.00
C369   C     0.12433   0.68795   0.24914   0.00000  Uiso   1.00
C370   C     0.12432   0.97871   0.24922   0.00000  Uiso   1.00
C371   C     0.16667   0.95727   0.25003   0.00000  Uiso   1.00
C372   C     0.29966   0.85804   0.28348   0.00000  Uiso   1.00
C373   C     0.01593   0.85800   0.28352   0.00000  Uiso   1.00
C374   C     0.03365   0.80856   0.21659   0.00000  Uiso   1.00
C375   C     0.31734   0.80855   0.21664   0.00000  Uiso   1.00
C376   C     0.16667   0.75402   0.24993   0.00000  Uiso   1.00
C377   C     0.19251   0.83304   0.14989   0.00000  Uiso   1.00
C378   C     0.27040   0.82485   0.01097   0.00000  Uiso   1.00
C379   C     0.20735   0.82899   0.09298   0.00000  Uiso   1.00
C380   C     0.07958   0.80779   0.43186   0.00000  Uiso   1.00
C381   C     0.06662   0.79336   0.48296   0.00000  Uiso   1.00
C382   C     0.10124   0.79016   0.01082   0.00000  Uiso   1.00
Cu383  Cu    0.11978   0.83333   0.25000   0.00000  Uiso   1.00
Cu384  Cu    0.21355   0.83334   0.25000   0.00000  Uiso   1.00
H385   H     0.28459   0.83806   0.08359   0.00000  Uiso   1.00
H386   H     0.24214   0.70399   0.25136   0.00000  Uiso   1.00
H387   H     0.09123   0.70395   0.24845   0.00000  Uiso   1.00
H388   H     0.09121   0.96269   0.24860   0.00000  Uiso   1.00
H389   H     0.27386   0.87784   0.31031   0.00000  Uiso   1.00
H390   H     0.02754   0.87777   0.31034   0.00000  Uiso   1.00
H391   H     0.05946   0.78869   0.18991   0.00000  Uiso   1.00
H392   H     0.30558   0.78868   0.19005   0.00000  Uiso   1.00
H393   H     0.28851   0.80581   0.41075   0.00000  Uiso   1.00
H394   H     0.30815   0.82895   0.48903   0.00000  Uiso   1.00
H395   H     0.13383   0.82327   0.08879   0.00000  Uiso   1.00
H396   H     0.05130   0.81114   0.41238   0.00000  Uiso   1.00
H397   H     0.02957   0.78307   0.00033   0.00000  Uiso   1.00
H398   H     0.22922   0.79465   0.36491   0.00000  Uiso   1.00
H399   H     0.24212   0.96274   0.25147   0.00000  Uiso   1.00
N400   N     0.04931   0.83332   0.24998   0.00000  Uiso   1.00
N401   N     0.28402   0.83335   0.24999   0.00000  Uiso   1.00
O402   O     0.12708   0.89345   0.25000   0.00000  Uiso   1.00
O403   O     0.20627   0.89346   0.25000   0.00000  Uiso   1.00
O404   O     0.10775   0.83332   0.32549   0.00000  Uiso   1.00
O405   O     0.18694   0.83333   0.32549   0.00000  Uiso   1.00
O406   O     0.12706   0.77321   0.24999   0.00000  Uiso   1.00
O407   O     0.20625   0.77322   0.24999   0.00000  Uiso   1.00
O408   O     0.14640   0.83334   0.17451   0.00000  Uiso   1.00
O409   O     0.22559   0.83335   0.17451   0.00000  Uiso   1.00
C410   C     0.08667   0.76656   0.06046   0.00000  Uiso   1.00
O411   O     0.11674   0.74572   0.07379   0.00000  Uiso   1.00
O412   O     0.03784   0.76631   0.09058   0.00000  Uiso   1.00
H413   H     0.03208   0.74747   0.12193   0.00000  Uiso   1.00
C414   C     0.50000   0.91265   0.25005   0.00000  Uiso   1.00
C415   C     0.48350   0.80286   0.48645   0.00000  Uiso   1.00
C416   C     0.49827   0.80707   0.43139   0.00000  Uiso   1.00
C417   C     0.51870   0.81145   0.01371   0.00000  Uiso   1.00
C418   C     0.56880   0.81437   0.48558   0.00000  Uiso   1.00
C419   C     0.58344   0.80701   0.43222   0.00000  Uiso   1.00
C420   C     0.54869   0.80280   0.40548   0.00000  Uiso   1.00
C421   C     0.50525   0.82109   0.06709   0.00000  Uiso   1.00
C422   C     0.59002   0.83110   0.06457   0.00000  Uiso   1.00
C423   C     0.46207   0.81439   0.40485   0.00000  Uiso   1.00
C424   C     0.54236   0.97874   0.25080   0.00000  Uiso   1.00
C425   C     0.47475   0.82787   0.34948   0.00000  Uiso   1.00
C426   C     0.54236   0.68797   0.25074   0.00000  Uiso   1.00
C427   C     0.50001   0.70941   0.24993   0.00000  Uiso   1.00
C428   C     0.45766   0.68795   0.24914   0.00000  Uiso   1.00
C429   C     0.45765   0.97871   0.24922   0.00000  Uiso   1.00
C430   C     0.50000   0.95727   0.25003   0.00000  Uiso   1.00
C431   C     0.63300   0.85804   0.28348   0.00000  Uiso   1.00
C432   C     0.34927   0.85800   0.28352   0.00000  Uiso   1.00
C433   C     0.36698   0.80856   0.21659   0.00000  Uiso   1.00
C434   C     0.65067   0.80855   0.21664   0.00000  Uiso   1.00
C435   C     0.50001   0.75402   0.24993   0.00000  Uiso   1.00
C436   C     0.52584   0.83304   0.14989   0.00000  Uiso   1.00
C437   C     0.60373   0.82485   0.01097   0.00000  Uiso   1.00
C438   C     0.54068   0.82899   0.09298   0.00000  Uiso   1.00
C439   C     0.41291   0.80779   0.43186   0.00000  Uiso   1.00
C440   C     0.39996   0.79336   0.48296   0.00000  Uiso   1.00
C441   C     0.43457   0.79016   0.01082   0.00000  Uiso   1.00
Cu442  Cu    0.45311   0.83333   0.25000   0.00000  Uiso   1.00
Cu443  Cu    0.54689   0.83334   0.25000   0.00000  Uiso   1.00
H444   H     0.61792   0.83806   0.08359   0.00000  Uiso   1.00
H445   H     0.57547   0.70399   0.25136   0.00000  Uiso   1.00
H446   H     0.42457   0.70395   0.24845   0.00000  Uiso   1.00
H447   H     0.42454   0.96269   0.24860   0.00000  Uiso   1.00
H448   H     0.60720   0.87784   0.31031   0.00000  Uiso   1.00
H449   H     0.36087   0.87777   0.31034   0.00000  Uiso   1.00
H450   H     0.39279   0.78869   0.18991   0.00000  Uiso   1.00
H451   H     0.63891   0.78868   0.19005   0.00000  Uiso   1.00
H452   H     0.62184   0.80581   0.41075   0.00000  Uiso   1.00
H453   H     0.64148   0.82895   0.48903   0.00000  Uiso   1.00
H454   H     0.46716   0.82327   0.08879   0.00000  Uiso   1.00
H455   H     0.38464   0.81114   0.41238   0.00000  Uiso   1.00
H456   H     0.36291   0.78307   0.00033   0.00000  Uiso   1.00
H457   H     0.56255   0.79465   0.36491   0.00000  Uiso   1.00
H458   H     0.57546   0.96274   0.25147   0.00000  Uiso   1.00
N459   N     0.38265   0.83332   0.24998   0.00000  Uiso   1.00
N460   N     0.61735   0.83335   0.24999   0.00000  Uiso   1.00
O461   O     0.46042   0.89345   0.25000   0.00000  Uiso   1.00
O462   O     0.53961   0.89346   0.25000   0.00000  Uiso   1.00
O463   O     0.44108   0.83332   0.32549   0.00000  Uiso   1.00
O464   O     0.52027   0.83333   0.32549   0.00000  Uiso   1.00
O465   O     0.46039   0.77321   0.24999   0.00000  Uiso   1.00
O466   O     0.53958   0.77322   0.24999   0.00000  Uiso   1.00
O467   O     0.47973   0.83334   0.17451   0.00000  Uiso   1.00
O468   O     0.55892   0.83335   0.17451   0.00000  Uiso   1.00
C469   C     0.42000   0.76656   0.06046   0.00000  Uiso   1.00
O470   O     0.45008   0.74572   0.07379   0.00000  Uiso   1.00
O471   O     0.37118   0.76631   0.09058   0.00000  Uiso   1.00
H472   H     0.36541   0.74747   0.12193   0.00000  Uiso   1.00
C473   C     0.83333   0.91265   0.25005   0.00000  Uiso   1.00
C474   C     0.81683   0.80286   0.48645   0.00000  Uiso   1.00
C475   C     0.83161   0.80707   0.43139   0.00000  Uiso   1.00
C476   C     0.85203   0.81145   0.01371   0.00000  Uiso   1.00
C477   C     0.90213   0.81437   0.48558   0.00000  Uiso   1.00
C478   C     0.91677   0.80701   0.43222   0.00000  Uiso   1.00
C479   C     0.88202   0.80280   0.40548   0.00000  Uiso   1.00
C480   C     0.83858   0.82109   0.06709   0.00000  Uiso   1.00
C481   C     0.92335   0.83110   0.06457   0.00000  Uiso   1.00
C482   C     0.79540   0.81439   0.40485   0.00000  Uiso   1.00
C483   C     0.87569   0.97874   0.25080   0.00000  Uiso   1.00
C484   C     0.80808   0.82787   0.34948   0.00000  Uiso   1.00
C485   C     0.87570   0.68797   0.25074   0.00000  Uiso   1.00
C486   C     0.83335   0.70941   0.24993   0.00000  Uiso   1.00
C487   C     0.79100   0.68795   0.24914   0.00000  Uiso   1.00
C488   C     0.79098   0.97871   0.24922   0.00000  Uiso   1.00
C489   C     0.83333   0.95727   0.25003   0.00000  Uiso   1.00
C490   C     0.96633   0.85804   0.28348   0.00000  Uiso   1.00
C491   C     0.68260   0.85800   0.28352   0.00000  Uiso   1.00
C492   C     0.70031   0.80856   0.21659   0.00000  Uiso   1.00
C493   C     0.98400   0.80855   0.21664   0.00000  Uiso   1.00
C494   C     0.83334   0.75402   0.24993   0.00000  Uiso   1.00
C495   C     0.85917   0.83304   0.14989   0.00000  Uiso   1.00
C496   C     0.93706   0.82485   0.01097   0.00000  Uiso   1.00
C497   C     0.87401   0.82899   0.09298   0.00000  Uiso   1.00
C498   C     0.74625   0.80779   0.43186   0.00000  Uiso   1.00
C499   C     0.73329   0.79336   0.48296   0.00000  Uiso   1.00
C500   C     0.76790   0.79016   0.01082   0.00000  Uiso   1.00
Cu501  Cu    0.78645   0.83333   0.25000   0.00000  Uiso   1.00
Cu502  Cu    0.88022   0.83334   0.25000   0.00000  Uiso   1.00
H503   H     0.95125   0.83806   0.08359   0.00000  Uiso   1.00
H504   H     0.90881   0.70399   0.25136   0.00000  Uiso   1.00
H505   H     0.75790   0.70395   0.24845   0.00000  Uiso   1.00
H506   H     0.75787   0.96269   0.24860   0.00000  Uiso   1.00
H507   H     0.94053   0.87784   0.31031   0.00000  Uiso   1.00
H508   H     0.69420   0.87777   0.31034   0.00000  Uiso   1.00
H509   H     0.72613   0.78869   0.18991   0.00000  Uiso   1.00
H510   H     0.97225   0.78868   0.19005   0.00000  Uiso   1.00
H511   H     0.95517   0.80581   0.41075   0.00000  Uiso   1.00
H512   H     0.97481   0.82895   0.48903   0.00000  Uiso   1.00
H513   H     0.80050   0.82327   0.08879   0.00000  Uiso   1.00
H514   H     0.71797   0.81114   0.41238   0.00000  Uiso   1.00
H515   H     0.69624   0.78307   0.00033   0.00000  Uiso   1.00
H516   H     0.89589   0.79465   0.36491   0.00000  Uiso   1.00
H517   H     0.90879   0.96274   0.25147   0.00000  Uiso   1.00
N518   N     0.71598   0.83332   0.24998   0.00000  Uiso   1.00
N519   N     0.95069   0.83335   0.24999   0.00000  Uiso   1.00
O520   O     0.79375   0.89345   0.25000   0.00000  Uiso   1.00
O521   O     0.87294   0.89346   0.25000   0.00000  Uiso   1.00
O522   O     0.77441   0.83332   0.32549   0.00000  Uiso   1.00
O523   O     0.85360   0.83333   0.32549   0.00000  Uiso   1.00
O524   O     0.79373   0.77321   0.24999   0.00000  Uiso   1.00
O525   O     0.87292   0.77322   0.24999   0.00000  Uiso   1.00
O526   O     0.81306   0.83334   0.17451   0.00000  Uiso   1.00
O527   O     0.89225   0.83335   0.17451   0.00000  Uiso   1.00
C528   C     0.75334   0.76656   0.06046   0.00000  Uiso   1.00
O529   O     0.78341   0.74572   0.07379   0.00000  Uiso   1.00
O530   O     0.70451   0.76631   0.09058   0.00000  Uiso   1.00
H531   H     0.69874   0.74747   0.12193   0.00000  Uiso   1.00
C532   C     0.16667   0.24598   0.75005   0.00000  Uiso   1.00
C533   C     0.15017   0.13619   0.98645   0.00000  Uiso   1.00
C534   C     0.16494   0.14041   0.93139   0.00000  Uiso   1.00
C535   C     0.18536   0.14479   0.51371   0.00000  Uiso   1.00
C536   C     0.23546   0.14771   0.98558   0.00000  Uiso   1.00
C537   C     0.25011   0.14034   0.93222   0.00000  Uiso   1.00
C538   C     0.21535   0.13613   0.90548   0.00000  Uiso   1.00
C539   C     0.17191   0.15442   0.56709   0.00000  Uiso   1.00
C540   C     0.25669   0.16443   0.56457   0.00000  Uiso   1.00
C541   C     0.12874   0.14772   0.90485   0.00000  Uiso   1.00
C542   C     0.20902   0.31207   0.75080   0.00000  Uiso   1.00
C543   C     0.14142   0.16121   0.84948   0.00000  Uiso   1.00
C544   C     0.20903   0.02131   0.75074   0.00000  Uiso   1.00
C545   C     0.16668   0.04275   0.74993   0.00000  Uiso   1.00
C546   C     0.12433   0.02128   0.74914   0.00000  Uiso   1.00
C547   C     0.12432   0.31205   0.74922   0.00000  Uiso   1.00
C548   C     0.16667   0.29060   0.75003   0.00000  Uiso   1.00
C549   C     0.29966   0.19138   0.78348   0.00000  Uiso   1.00
C550   C     0.01593   0.19133   0.78352   0.00000  Uiso   1.00
C551   C     0.03365   0.14190   0.71659   0.00000  Uiso   1.00
C552   C     0.31734   0.14189   0.71664   0.00000  Uiso   1.00
C553   C     0.16667   0.08735   0.74993   0.00000  Uiso   1.00
C554   C     0.19251   0.16637   0.64989   0.00000  Uiso   1.00
C555   C     0.27040   0.15818   0.51097   0.00000  Uiso   1.00
C556   C     0.20735   0.16232   0.59298   0.00000  Uiso   1.00
C557   C     0.07958   0.14112   0.93186   0.00000  Uiso   1.00
C558   C     0.06662   0.12670   0.98296   0.00000  Uiso   1.00
C559   C     0.10124   0.12349   0.51082   0.00000  Uiso   1.00
Cu560  Cu    0.11978   0.16666   0.75000   0.00000  Uiso   1.00
Cu561  Cu    0.21355   0.16667   0.75000   0.00000  Uiso   1.00
H562   H     0.28459   0.17140   0.58359   0.00000  Uiso   1.00
H563   H     0.24214   0.03733   0.75136   0.00000  Uiso   1.00
H564   H     0.09123   0.03728   0.74845   0.00000  Uiso   1.00
H565   H     0.09121   0.29603   0.74860   0.00000  Uiso   1.00
H566   H     0.27386   0.21117   0.81031   0.00000  Uiso   1.00
H567   H     0.02754   0.21111   0.81034   0.00000  Uiso   1.00
H568   H     0.05946   0.12203   0.68991   0.00000  Uiso   1.00
H569   H     0.30558   0.12201   0.69005   0.00000  Uiso   1.00
H570   H     0.28851   0.13914   0.91075   0.00000  Uiso   1.00
H571   H     0.30815   0.16228   0.98903   0.00000  Uiso   1.00
H572   H     0.13383   0.15660   0.58879   0.00000  Uiso   1.00
H573   H     0.05130   0.14448   0.91238   0.00000  Uiso   1.00
H574   H     0.02957   0.11641   0.50033   0.00000  Uiso   1.00
H575   H     0.22922   0.12799   0.86491   0.00000  Uiso   1.00
H576   H     0.24212   0.29607   0.75147   0.00000  Uiso   1.00
N577   N     0.04931   0.16666   0.74998   0.00000  Uiso   1.00
N578   N     0.28402   0.16669   0.74999   0.00000  Uiso   1.00
O579   O     0.12708   0.22678   0.75000   0.00000  Uiso   1.00
O580   O     0.20627   0.22679   0.75000   0.00000  Uiso   1.00
O581   O     0.10775   0.16665   0.82549   0.00000  Uiso   1.00
O582   O     0.18694   0.16666   0.82549   0.00000  Uiso   1.00
O583   O     0.12706   0.10654   0.74999   0.00000  Uiso   1.00
O584   O     0.20625   0.10655   0.74999   0.00000  Uiso   1.00
O585   O     0.14640   0.16667   0.67451   0.00000  Uiso   1.00
O586   O     0.22559   0.16668   0.67451   0.00000  Uiso   1.00
C587   C     0.08667   0.09990   0.56046   0.00000  Uiso   1.00
O588   O     0.11674   0.07906   0.57379   0.00000  Uiso   1.00
O589   O     0.03784   0.09965   0.59058   0.00000  Uiso   1.00
H590   H     0.03208   0.08081   0.62193   0.00000  Uiso   1.00
C591   C     0.50000   0.24598   0.75005   0.00000  Uiso   1.00
C592   C     0.48350   0.13619   0.98645   0.00000  Uiso   1.00
C593   C     0.49827   0.14041   0.93139   0.00000  Uiso   1.00
C594   C     0.51870   0.14479   0.51371   0.00000  Uiso   1.00
C595   C     0.56880   0.14771   0.98558   0.00000  Uiso   1.00
C596   C     0.58344   0.14034   0.93222   0.00000  Uiso   1.00
C597   C     0.54869   0.13613   0.90548   0.00000  Uiso   1.00
C598   C     0.50525   0.15442   0.56709   0.00000  Uiso   1.00
C599   C     0.59002   0.16443   0.56457   0.00000  Uiso   1.00
C600   C     0.46207   0.14772   0.90485   0.00000  Uiso   1.00
C601   C     0.54236   0.31207   0.75080   0.00000  Uiso   1.00
C602   C     0.47475   0.16121   0.84948   0.00000  Uiso   1.00
C603   C     0.54236   0.02131   0.75074   0.00000  Uiso   1.00
C604   C     0.50001   0.04275   0.74993   0.00000  Uiso   1.00
C605   C     0.45766   0.02128   0.74914   0.00000  Uiso   1.00
C606   C     0.45765   0.31205   0.74922   0.00000  Uiso   1.00
C607   C     0.50000   0.29060   0.75003   0.00000  Uiso   1.00
C608   C     0.63300   0.19138   0.78348   0.00000  Uiso   1.00
C609   C     0.34927   0.19133   0.78352   0.00000  Uiso   1.00
C610   C     0.36698   0.14190   0.71659   0.00000  Uiso   1.00
C611   C     0.65067   0.14189   0.71664   0.00000  Uiso   1.00
C612   C     0.50001   0.08735   0.74993   0.00000  Uiso   1.00
C613   C     0.52584   0.16637   0.64989   0.00000  Uiso   1.00
C614   C     0.60373   0.15818   0.51097   0.00000  Uiso   1.00
C615   C     0.54068   0.16232   0.59298   0.00000  Uiso   1.00
C616   C     0.41291   0.14112   0.93186   0.00000  Uiso   1.00
C617   C     0.39996   0.12670   0.98296   0.00000  Uiso   1.00
C618   C     0.43457   0.12349   0.51082   0.00000  Uiso   1.00
Cu619  Cu    0.45311   0.16666   0.75000   0.00000  Uiso   1.00
Cu620  Cu    0.54689   0.16667   0.75000   0.00000  Uiso   1.00
H621   H     0.61792   0.17140   0.58359   0.00000  Uiso   1.00
H622   H     0.57547   0.03733   0.75136   0.00000  Uiso   1.00
H623   H     0.42457   0.03728   0.74845   0.00000  Uiso   1.00
H624   H     0.42454   0.29603   0.74860   0.00000  Uiso   1.00
H625   H     0.60720   0.21117   0.81031   0.00000  Uiso   1.00
H626   H     0.36087   0.21111   0.81034   0.00000  Uiso   1.00
H627   H     0.39279   0.12203   0.68991   0.00000  Uiso   1.00
H628   H     0.63891   0.12201   0.69005   0.00000  Uiso   1.00
H629   H     0.62184   0.13914   0.91075   0.00000  Uiso   1.00
H630   H     0.64148   0.16228   0.98903   0.00000  Uiso   1.00
H631   H     0.46716   0.15660   0.58879   0.00000  Uiso   1.00
H632   H     0.38464   0.14448   0.91238   0.00000  Uiso   1.00
H633   H     0.36291   0.11641   0.50033   0.00000  Uiso   1.00
H634   H     0.56255   0.12799   0.86491   0.00000  Uiso   1.00
H635   H     0.57546   0.29607   0.75147   0.00000  Uiso   1.00
N636   N     0.38265   0.16666   0.74998   0.00000  Uiso   1.00
N637   N     0.61735   0.16669   0.74999   0.00000  Uiso   1.00
O638   O     0.46042   0.22678   0.75000   0.00000  Uiso   1.00
O639   O     0.53961   0.22679   0.75000   0.00000  Uiso   1.00
O640   O     0.44108   0.16665   0.82549   0.00000  Uiso   1.00
O641   O     0.52027   0.16666   0.82549   0.00000  Uiso   1.00
O642   O     0.46039   0.10654   0.74999   0.00000  Uiso   1.00
O643   O     0.53958   0.10655   0.74999   0.00000  Uiso   1.00
O644   O     0.47973   0.16667   0.67451   0.00000  Uiso   1.00
O645   O     0.55892   0.16668   0.67451   0.00000  Uiso   1.00
C646   C     0.42000   0.09990   0.56046   0.00000  Uiso   1.00
O647   O     0.45008   0.07906   0.57379   0.00000  Uiso   1.00
O648   O     0.37118   0.09965   0.59058   0.00000  Uiso   1.00
H649   H     0.36541   0.08081   0.62193   0.00000  Uiso   1.00
C650   C     0.83333   0.24598   0.75005   0.00000  Uiso   1.00
C651   C     0.81683   0.13619   0.98645   0.00000  Uiso   1.00
C652   C     0.83161   0.14041   0.93139   0.00000  Uiso   1.00
C653   C     0.85203   0.14479   0.51371   0.00000  Uiso   1.00
C654   C     0.90213   0.14771   0.98558   0.00000  Uiso   1.00
C655   C     0.91677   0.14034   0.93222   0.00000  Uiso   1.00
C656   C     0.88202   0.13613   0.90548   0.00000  Uiso   1.00
C657   C     0.83858   0.15442   0.56709   0.00000  Uiso   1.00
C658   C     0.92335   0.16443   0.56457   0.00000  Uiso   1.00
C659   C     0.79540   0.14772   0.90485   0.00000  Uiso   1.00
C660   C     0.87569   0.31207   0.75080   0.00000  Uiso   1.00
C661   C     0.80808   0.16121   0.84948   0.00000  Uiso   1.00
C662   C     0.87570   0.02131   0.75074   0.00000  Uiso   1.00
C663   C     0.83335   0.04275   0.74993   0.00000  Uiso   1.00
C664   C     0.79100   0.02128   0.74914   0.00000  Uiso   1.00
C665   C     0.79098   0.31205   0.74922   0.00000  Uiso   1.00
C666   C     0.83333   0.29060   0.75003   0.00000  Uiso   1.00
C667   C     0.96633   0.19138   0.78348   0.00000  Uiso   1.00
C668   C     0.68260   0.19133   0.78352   0.00000  Uiso   1.00
C669   C     0.70031   0.14190   0.71659   0.00000  Uiso   1.00
C670   C     0.98400   0.14189   0.71664   0.00000  Uiso   1.00
C671   C     0.83334   0.08735   0.74993   0.00000  Uiso   1.00
C672   C     0.85917   0.16637   0.64989   0.00000  Uiso   1.00
C673   C     0.93706   0.15818   0.51097   0.00000  Uiso   1.00
C674   C     0.87401   0.16232   0.59298   0.00000  Uiso   1.00
C675   C     0.74625   0.14112   0.93186   0.00000  Uiso   1.00
C676   C     0.73329   0.12670   0.98296   0.00000  Uiso   1.00
C677   C     0.76790   0.12349   0.51082   0.00000  Uiso   1.00
Cu678  Cu    0.78645   0.16666   0.75000   0.00000  Uiso   1.00
Cu679  Cu    0.88022   0.16667   0.75000   0.00000  Uiso   1.00
H680   H     0.95125   0.17140   0.58359   0.00000  Uiso   1.00
H681   H     0.90881   0.03733   0.75136   0.00000  Uiso   1.00
H682   H     0.75790   0.03728   0.74845   0.00000  Uiso   1.00
H683   H     0.75787   0.29603   0.74860   0.00000  Uiso   1.00
H684   H     0.94053   0.21117   0.81031   0.00000  Uiso   1.00
H685   H     0.69420   0.21111   0.81034   0.00000  Uiso   1.00
H686   H     0.72613   0.12203   0.68991   0.00000  Uiso   1.00
H687   H     0.97225   0.12201   0.69005   0.00000  Uiso   1.00
H688   H     0.95517   0.13914   0.91075   0.00000  Uiso   1.00
H689   H     0.97481   0.16228   0.98903   0.00000  Uiso   1.00
H690   H     0.80050   0.15660   0.58879   0.00000  Uiso   1.00
H691   H     0.71797   0.14448   0.91238   0.00000  Uiso   1.00
H692   H     0.69624   0.11641   0.50033   0.00000  Uiso   1.00
H693   H     0.89589   0.12799   0.86491   0.00000  Uiso   1.00
H694   H     0.90879   0.29607   0.75147   0.00000  Uiso   1.00
N695   N     0.71598   0.16666   0.74998   0.00000  Uiso   1.00
N696   N     0.95069   0.16669   0.74999   0.00000  Uiso   1.00
O697   O     0.79375   0.22678   0.75000   0.00000  Uiso   1.00
O698   O     0.87294   0.22679   0.75000   0.00000  Uiso   1.00
O699   O     0.77441   0.16665   0.82549   0.00000  Uiso   1.00
O700   O     0.85360   0.16666   0.82549   0.00000  Uiso   1.00
O701   O     0.79373   0.10654   0.74999   0.00000  Uiso   1.00
O702   O     0.87292   0.10655   0.74999   0.00000  Uiso   1.00
O703   O     0.81306   0.16667   0.67451   0.00000  Uiso   1.00
O704   O     0.89225   0.16668   0.67451   0.00000  Uiso   1.00
C705   C     0.75334   0.09990   0.56046   0.00000  Uiso   1.00
O706   O     0.78341   0.07906   0.57379   0.00000  Uiso   1.00
O707   O     0.70451   0.09965   0.59058   0.00000  Uiso   1.00
H708   H     0.69874   0.08081   0.62193   0.00000  Uiso   1.00
C709   C     0.16667   0.57931   0.75005   0.00000  Uiso   1.00
C710   C     0.15017   0.46952   0.98645   0.00000  Uiso   1.00
C711   C     0.16494   0.47374   0.93139   0.00000  Uiso   1.00
C712   C     0.18536   0.47812   0.51371   0.00000  Uiso   1.00
C713   C     0.23546   0.48104   0.98558   0.00000  Uiso   1.00
C714   C     0.25011   0.47368   0.93222   0.00000  Uiso   1.00
C715   C     0.21535   0.46947   0.90548   0.00000  Uiso   1.00
C716   C     0.17191   0.48775   0.56709   0.00000  Uiso   1.00
C717   C     0.25669   0.49777   0.56457   0.00000  Uiso   1.00
C718   C     0.12874   0.48105   0.90485   0.00000  Uiso   1.00
C719   C     0.20902   0.64540   0.75080   0.00000  Uiso   1.00
C720   C     0.14142   0.49454   0.84948   0.00000  Uiso   1.00
C721   C     0.20903   0.35464   0.75074   0.00000  Uiso   1.00
C722   C     0.16668   0.37608   0.74993   0.00000  Uiso   1.00
C723   C     0.12433   0.35461   0.74914   0.00000  Uiso   1.00
C724   C     0.12432   0.64538   0.74922   0.00000  Uiso   1.00
C725   C     0.16667   0.62393   0.75003   0.00000  Uiso   1.00
C726   C     0.29966   0.52471   0.78348   0.00000  Uiso   1.00
C727   C     0.01593   0.52466   0.78352   0.00000  Uiso   1.00
C728   C     0.03365   0.47523   0.71659   0.00000  Uiso   1.00
C729   C     0.31734   0.47522   0.71664   0.00000  Uiso   1.00
C730   C     0.16667   0.42069   0.74993   0.00000  Uiso   1.00
C731   C     0.19251   0.49971   0.64989   0.00000  Uiso   1.00
C732   C     0.27040   0.49152   0.51097   0.00000  Uiso   1.00
C733   C     0.20735   0.49565   0.59298   0.00000  Uiso   1.00
C734   C     0.07958   0.47446   0.93186   0.00000  Uiso   1.00
C735   C     0.06662   0.46003   0.98296   0.00000  Uiso   1.00
C736   C     0.10124   0.45683   0.51082   0.00000  Uiso   1.00
Cu737  Cu    0.11978   0.49999   0.75000   0.00000  Uiso   1.00
Cu738  Cu    0.21355   0.50001   0.75000   0.00000  Uiso   1.00
H739   H     0.28459   0.50473   0.58359   0.00000  Uiso   1.00
H740   H     0.24214   0.37066   0.75136   0.00000  Uiso   1.00
H741   H     0.09123   0.37062   0.74845   0.00000  Uiso   1.00
H742   H     0.09121   0.62936   0.74860   0.00000  Uiso   1.00
H743   H     0.27386   0.54451   0.81031   0.00000  Uiso   1.00
H744   H     0.02754   0.54444   0.81034   0.00000  Uiso   1.00
H745   H     0.05946   0.45536   0.68991   0.00000  Uiso   1.00
H746   H     0.30558   0.45535   0.69005   0.00000  Uiso   1.00
H747   H     0.28851   0.47248   0.91075   0.00000  Uiso   1.00
H748   H     0.30815   0.49562   0.98903   0.00000  Uiso   1.00
H749   H     0.13383   0.48993   0.58879   0.00000  Uiso   1.00
H750   H     0.05130   0.47781   0.91238   0.00000  Uiso   1.00
H751   H     0.02957   0.44974   0.50033   0.00000  Uiso   1.00
H752   H     0.22922   0.46132   0.86491   0.00000  Uiso   1.00
H753   H     0.24212   0.62940   0.75147   0.00000  Uiso   1.00
N754   N     0.04931   0.49999   0.74998   0.00000  Uiso   1.00
N755   N     0.28402   0.50002   0.74999   0.00000  Uiso   1.00
O756   O     0.12708   0.56011   0.75000   0.00000  Uiso   1.00
O757   O     0.20627   0.56012   0.75000   0.00000  Uiso   1.00
O758   O     0.10775   0.49998   0.82549   0.00000  Uiso   1.00
O759   O     0.18694   0.49999   0.82549   0.00000  Uiso   1.00
O760   O     0.12706   0.43988   0.74999   0.00000  Uiso   1.00
O761   O     0.20625   0.43989   0.74999   0.00000  Uiso   1.00
O762   O     0.14640   0.50001   0.67451   0.00000  Uiso   1.00
O763   O     0.22559   0.50002   0.67451   0.00000  Uiso   1.00
C764   C     0.08667   0.43323   0.56046   0.00000  Uiso   1.00
O765   O     0.11674   0.41239   0.57379   0.00000  Uiso   1.00
O766   O     0.03784   0.43298   0.59058   0.00000  Uiso   1.00
H767   H     0.03208   0.41414   0.62193   0.00000  Uiso   1.00
C768   C     0.50000   0.57931   0.75005   0.00000  Uiso   1.00
C769   C     0.48350   0.46952   0.98645   0.00000  Uiso   1.00
C770   C     0.49827   0.47374   0.93139   0.00000  Uiso   1.00
C771   C     0.51870   0.47812   0.51371   0.00000  Uiso   1.00
C772   C     0.56880   0.48104   0.98558   0.00000  Uiso   1.00
C773   C     0.58344   0.47368   0.93222   0.00000  Uiso   1.00
C774   C     0.54869   0.46947   0.90548   0.00000  Uiso   1.00
C775   C     0.50525   0.48775   0.56709   0.00000  Uiso   1.00
C776   C     0.59002   0.49777   0.56457   0.00000  Uiso   1.00
C777   C     0.46207   0.48105   0.90485   0.00000  Uiso   1.00
C778   C     0.54236   0.64540   0.75080   0.00000  Uiso   1.00
C779   C     0.47475   0.49454   0.84948   0.00000  Uiso   1.00
C780   C     0.54236   0.35464   0.75074   0.00000  Uiso   1.00
C781   C     0.50001   0.37608   0.74993   0.00000  Uiso   1.00
C782   C     0.45766   0.35461   0.74914   0.00000  Uiso   1.00
C783   C     0.45765   0.64538   0.74922   0.00000  Uiso   1.00
C784   C     0.50000   0.62393   0.75003   0.00000  Uiso   1.00
C785   C     0.63300   0.52471   0.78348   0.00000  Uiso   1.00
C786   C     0.34927   0.52466   0.78352   0.00000  Uiso   1.00
C787   C     0.36698   0.47523   0.71659   0.00000  Uiso   1.00
C788   C     0.65067   0.47522   0.71664   0.00000  Uiso   1.00
C789   C     0.50001   0.42069   0.74993   0.00000  Uiso   1.00
C790   C     0.52584   0.49971   0.64989   0.00000  Uiso   1.00
C791   C     0.60373   0.49152   0.51097   0.00000  Uiso   1.00
C792   C     0.54068   0.49565   0.59298   0.00000  Uiso   1.00
C793   C     0.41291   0.47446   0.93186   0.00000  Uiso   1.00
C794   C     0.39996   0.46003   0.98296   0.00000  Uiso   1.00
C795   C     0.43457   0.45683   0.51082   0.00000  Uiso   1.00
Cu796  Cu    0.45311   0.49999   0.75000   0.00000  Uiso   1.00
Cu797  Cu    0.54689   0.50001   0.75000   0.00000  Uiso   1.00
H798   H     0.61792   0.50473   0.58359   0.00000  Uiso   1.00
H799   H     0.57547   0.37066   0.75136   0.00000  Uiso   1.00
H800   H     0.42457   0.37062   0.74845   0.00000  Uiso   1.00
H801   H     0.42454   0.62936   0.74860   0.00000  Uiso   1.00
H802   H     0.60720   0.54451   0.81031   0.00000  Uiso   1.00
H803   H     0.36087   0.54444   0.81034   0.00000  Uiso   1.00
H804   H     0.39279   0.45536   0.68991   0.00000  Uiso   1.00
H805   H     0.63891   0.45535   0.69005   0.00000  Uiso   1.00
H806   H     0.62184   0.47248   0.91075   0.00000  Uiso   1.00
H807   H     0.64148   0.49562   0.98903   0.00000  Uiso   1.00
H808   H     0.46716   0.48993   0.58879   0.00000  Uiso   1.00
H809   H     0.38464   0.47781   0.91238   0.00000  Uiso   1.00
H810   H     0.36291   0.44974   0.50033   0.00000  Uiso   1.00
H811   H     0.56255   0.46132   0.86491   0.00000  Uiso   1.00
H812   H     0.57546   0.62940   0.75147   0.00000  Uiso   1.00
N813   N     0.38265   0.49999   0.74998   0.00000  Uiso   1.00
N814   N     0.61735   0.50002   0.74999   0.00000  Uiso   1.00
O815   O     0.46042   0.56011   0.75000   0.00000  Uiso   1.00
O816   O     0.53961   0.56012   0.75000   0.00000  Uiso   1.00
O817   O     0.44108   0.49998   0.82549   0.00000  Uiso   1.00
O818   O     0.52027   0.49999   0.82549   0.00000  Uiso   1.00
O819   O     0.46039   0.43988   0.74999   0.00000  Uiso   1.00
O820   O     0.53958   0.43989   0.74999   0.00000  Uiso   1.00
O821   O     0.47973   0.50001   0.67451   0.00000  Uiso   1.00
O822   O     0.55892   0.50002   0.67451   0.00000  Uiso   1.00
C823   C     0.42000   0.43323   0.56046   0.00000  Uiso   1.00
O824   O     0.45008   0.41239   0.57379   0.00000  Uiso   1.00
O825   O     0.37118   0.43298   0.59058   0.00000  Uiso   1.00
H826   H     0.36541   0.41414   0.62193   0.00000  Uiso   1.00
C827   C     0.83333   0.57931   0.75005   0.00000  Uiso   1.00
C828   C     0.81683   0.46952   0.98645   0.00000  Uiso   1.00
C829   C     0.83161   0.47374   0.93139   0.00000  Uiso   1.00
C830   C     0.85203   0.47812   0.51371   0.00000  Uiso   1.00
C831   C     0.90213   0.48104   0.98558   0.00000  Uiso   1.00
C832   C     0.91677   0.47368   0.93222   0.00000  Uiso   1.00
C833   C     0.88202   0.46947   0.90548   0.00000  Uiso   1.00
C834   C     0.83858   0.48775   0.56709   0.00000  Uiso   1.00
C835   C     0.92335   0.49777   0.56457   0.00000  Uiso   1.00
C836   C     0.79540   0.48105   0.90485   0.00000  Uiso   1.00
C837   C     0.87569   0.64540   0.75080   0.00000  Uiso   1.00
C838   C     0.80808   0.49454   0.84948   0.00000  Uiso   1.00
C839   C     0.87570   0.35464   0.75074   0.00000  Uiso   1.00
C840   C     0.83335   0.37608   0.74993   0.00000  Uiso   1.00
C841   C     0.79100   0.35461   0.74914   0.00000  Uiso   1.00
C842   C     0.79098   0.64538   0.74922   0.00000  Uiso   1.00
C843   C     0.83333   0.62393   0.75003   0.00000  Uiso   1.00
C844   C     0.96633   0.52471   0.78348   0.00000  Uiso   1.00
C845   C     0.68260   0.52466   0.78352   0.00000  Uiso   1.00
C846   C     0.70031   0.47523   0.71659   0.00000  Uiso   1.00
C847   C     0.98400   0.47522   0.71664   0.00000  Uiso   1.00
C848   C     0.83334   0.42069   0.74993   0.00000  Uiso   1.00
C849   C     0.85917   0.49971   0.64989   0.00000  Uiso   1.00
C850   C     0.93706   0.49152   0.51097   0.00000  Uiso   1.00
C851   C     0.87401   0.49565   0.59298   0.00000  Uiso   1.00
C852   C     0.74625   0.47446   0.93186   0.00000  Uiso   1.00
C853   C     0.73329   0.46003   0.98296   0.00000  Uiso   1.00
C854   C     0.76790   0.45683   0.51082   0.00000  Uiso   1.00
Cu855  Cu    0.78645   0.49999   0.75000   0.00000  Uiso   1.00
Cu856  Cu    0.88022   0.50001   0.75000   0.00000  Uiso   1.00
H857   H     0.95125   0.50473   0.58359   0.00000  Uiso   1.00
H858   H     0.90881   0.37066   0.75136   0.00000  Uiso   1.00
H859   H     0.75790   0.37062   0.74845   0.00000  Uiso   1.00
H860   H     0.75787   0.62936   0.74860   0.00000  Uiso   1.00
H861   H     0.94053   0.54451   0.81031   0.00000  Uiso   1.00
H862   H     0.69420   0.54444   0.81034   0.00000  Uiso   1.00
H863   H     0.72613   0.45536   0.68991   0.00000  Uiso   1.00
H864   H     0.97225   0.45535   0.69005   0.00000  Uiso   1.00
H865   H     0.95517   0.47248   0.91075   0.00000  Uiso   1.00
H866   H     0.97481   0.49562   0.98903   0.00000  Uiso   1.00
H867   H     0.80050   0.48993   0.58879   0.00000  Uiso   1.00
H868   H     0.71797   0.47781   0.91238   0.00000  Uiso   1.00
H869   H     0.69624   0.44974   0.50033   0.00000  Uiso   1.00
H870   H     0.89589   0.46132   0.86491   0.00000  Uiso   1.00
H871   H     0.90879   0.62940   0.75147   0.00000  Uiso   1.00
N872   N     0.71598   0.49999   0.74998   0.00000  Uiso   1.00
N873   N     0.95069   0.50002   0.74999   0.00000  Uiso   1.00
O874   O     0.79375   0.56011   0.75000   0.00000  Uiso   1.00
O875   O     0.87294   0.56012   0.75000   0.00000  Uiso   1.00
O876   O     0.77441   0.49998   0.82549   0.00000  Uiso   1.00
O877   O     0.85360   0.49999   0.82549   0.00000  Uiso   1.00
O878   O     0.79373   0.43988   0.74999   0.00000  Uiso   1.00
O879   O     0.87292   0.43989   0.74999   0.00000  Uiso   1.00
O880   O     0.81306   0.50001   0.67451   0.00000  Uiso   1.00
O881   O     0.89225   0.50002   0.67451   0.00000  Uiso   1.00
C882   C     0.75334   0.43323   0.56046   0.00000  Uiso   1.00
O883   O     0.78341   0.41239   0.57379   0.00000  Uiso   1.00
O884   O     0.70451   0.43298   0.59058   0.00000  Uiso   1.00
H885   H     0.69874   0.41414   0.62193   0.00000  Uiso   1.00
C886   C     0.16667   0.91265   0.75005   0.00000  Uiso   1.00
C887   C     0.15017   0.80286   0.98645   0.00000  Uiso   1.00
C888   C     0.16494   0.80707   0.93139   0.00000  Uiso   1.00
C889   C     0.18536   0.81145   0.51371   0.00000  Uiso   1.00
C890   C     0.23546   0.81437   0.98558   0.00000  Uiso   1.00
C891   C     0.25011   0.80701   0.93222   0.00000  Uiso   1.00
C892   C     0.21535   0.80280   0.90548   0.00000  Uiso   1.00
C893   C     0.17191   0.82109   0.56709   0.00000  Uiso   1.00
C894   C     0.25669   0.83110   0.56457   0.00000  Uiso   1.00
C895   C     0.12874   0.81439   0.90485   0.00000  Uiso   1.00
C896   C     0.20902   0.97874   0.75080   0.00000  Uiso   1.00
C897   C     0.14142   0.82787   0.84948   0.00000  Uiso   1.00
C898   C     0.20903   0.68797   0.75074   0.00000  Uiso   1.00
C899   C     0.16668   0.70941   0.74993   0.00000  Uiso   1.00
C900   C     0.12433   0.68795   0.74914   0.00000  Uiso   1.00
C901   C     0.12432   0.97871   0.74922   0.00000  Uiso   1.00
C902   C     0.16667   0.95727   0.75003   0.00000  Uiso   1.00
C903   C     0.29966   0.85804   0.78348   0.00000  Uiso   1.00
C904   C     0.01593   0.85800   0.78352   0.00000  Uiso   1.00
C905   C     0.03365   0.80856   0.71659   0.00000  Uiso   1.00
C906   C     0.31734   0.80855   0.71664   0.00000  Uiso   1.00
C907   C     0.16667   0.75402   0.74993   0.00000  Uiso   1.00
C908   C     0.19251   0.83304   0.64989   0.00000  Uiso   1.00
C909   C     0.27040   0.82485   0.51097   0.00000  Uiso   1.00
C910   C     0.20735   0.82899   0.59298   0.00000  Uiso   1.00
C911   C     0.07958   0.80779   0.93186   0.00000  Uiso   1.00
C912   C     0.06662   0.79336   0.98296   0.00000  Uiso   1.00
C913   C     0.10124   0.79016   0.51082   0.00000  Uiso   1.00
Cu914  Cu    0.11978   0.83333   0.75000   0.00000  Uiso   1.00
Cu915  Cu    0.21355   0.83334   0.75000   0.00000  Uiso   1.00
H916   H     0.28459   0.83806   0.58359   0.00000  Uiso   1.00
H917   H     0.24214   0.70399   0.75136   0.00000  Uiso   1.00
H918   H     0.09123   0.70395   0.74845   0.00000  Uiso   1.00
H919   H     0.09121   0.96269   0.74860   0.00000  Uiso   1.00
H920   H     0.27386   0.87784   0.81031   0.00000  Uiso   1.00
H921   H     0.02754   0.87777   0.81034   0.00000  Uiso   1.00
H922   H     0.05946   0.78869   0.68991   0.00000  Uiso   1.00
H923   H     0.30558   0.78868   0.69005   0.00000  Uiso   1.00
H924   H     0.28851   0.80581   0.91075   0.00000  Uiso   1.00
H925   H     0.30815   0.82895   0.98903   0.00000  Uiso   1.00
H926   H     0.13383   0.82327   0.58879   0.00000  Uiso   1.00
H927   H     0.05130   0.81114   0.91238   0.00000  Uiso   1.00
H928   H     0.02957   0.78307   0.50033   0.00000  Uiso   1.00
H929   H     0.22922   0.79465   0.86491   0.00000  Uiso   1.00
H930   H     0.24212   0.96274   0.75147   0.00000  Uiso   1.00
N931   N     0.04931   0.83332   0.74998   0.00000  Uiso   1.00
N932   N     0.28402   0.83335   0.74999   0.00000  Uiso   1.00
O933   O     0.12708   0.89345   0.75000   0.00000  Uiso   1.00
O934   O     0.20627   0.89346   0.75000   0.00000  Uiso   1.00
O935   O     0.10775   0.83332   0.82549   0.00000  Uiso   1.00
O936   O     0.18694   0.83333   0.82549   0.00000  Uiso   1.00
O937   O     0.12706   0.77321   0.74999   0.00000  Uiso   1.00
O938   O     0.20625   0.77322   0.74999   0.00000  Uiso   1.00
O939   O     0.14640   0.83334   0.67451   0.00000  Uiso   1.00
O940   O     0.22559   0.83335   0.67451   0.00000  Uiso   1.00
C941   C     0.08667   0.76656   0.56046   0.00000  Uiso   1.00
O942   O     0.11674   0.74572   0.57379   0.00000  Uiso   1.00
O943   O     0.03784   0.76631   0.59058   0.00000  Uiso   1.00
H944   H     0.03208   0.74747   0.62193   0.00000  Uiso   1.00
C945   C     0.50000   0.91265   0.75005   0.00000  Uiso   1.00
C946   C     0.48350   0.80286   0.98645   0.00000  Uiso   1.00
C947   C     0.49827   0.80707   0.93139   0.00000  Uiso   1.00
C948   C     0.51870   0.81145   0.51371   0.00000  Uiso   1.00
C949   C     0.56880   0.81437   0.98558   0.00000  Uiso   1.00
C950   C     0.58344   0.80701   0.93222   0.00000  Uiso   1.00
C951   C     0.54869   0.80280   0.90548   0.00000  Uiso   1.00
C952   C     0.50525   0.82109   0.56709   0.00000  Uiso   1.00
C953   C     0.59002   0.83110   0.56457   0.00000  Uiso   1.00
C954   C     0.46207   0.81439   0.90485   0.00000  Uiso   1.00
C955   C     0.54236   0.97874   0.75080   0.00000  Uiso   1.00
C956   C     0.47475   0.82787   0.84948   0.00000  Uiso   1.00
C957   C     0.54236   0.68797   0.75074   0.00000  Uiso   1.00
C958   C     0.50001   0.70941   0.74993   0.00000  Uiso   1.00
C959   C     0.45766   0.68795   0.74914   0.00000  Uiso   1.00
C960   C     0.45765   0.97871   0.74922   0.00000  Uiso   1.00
C961   C     0.50000   0.95727   0.75003   0.00000  Uiso   1.00
C962   C     0.63300   0.85804   0.78348   0.00000  Uiso   1.00
C963   C     0.34927   0.85800   0.78352   0.00000  Uiso   1.00
C964   C     0.36698   0.80856   0.71659   0.00000  Uiso   1.00
C965   C     0.65067   0.80855   0.71664   0.00000  Uiso   1.00
C966   C     0.50001   0.75402   0.74993   0.00000  Uiso   1.00
C967   C     0.52584   0.83304   0.64989   0.00000  Uiso   1.00
C968   C     0.60373   0.82485   0.51097   0.00000  Uiso   1.00
C969   C     0.54068   0.82899   0.59298   0.00000  Uiso   1.00
C970   C     0.41291   0.80779   0.93186   0.00000  Uiso   1.00
C971   C     0.39996   0.79336   0.98296   0.00000  Uiso   1.00
C972   C     0.43457   0.79016   0.51082   0.00000  Uiso   1.00
Cu973  Cu    0.45311   0.83333   0.75000   0.00000  Uiso   1.00
Cu974  Cu    0.54689   0.83334   0.75000   0.00000  Uiso   1.00
H975   H     0.61792   0.83806   0.58359   0.00000  Uiso   1.00
H976   H     0.57547   0.70399   0.75136   0.00000  Uiso   1.00
H977   H     0.42457   0.70395   0.74845   0.00000  Uiso   1.00
H978   H     0.42454   0.96269   0.74860   0.00000  Uiso   1.00
H979   H     0.60720   0.87784   0.81031   0.00000  Uiso   1.00
H980   H     0.36087   0.87777   0.81034   0.00000  Uiso   1.00
H981   H     0.39279   0.78869   0.68991   0.00000  Uiso   1.00
H982   H     0.63891   0.78868   0.69005   0.00000  Uiso   1.00
H983   H     0.62184   0.80581   0.91075   0.00000  Uiso   1.00
H984   H     0.64148   0.82895   0.98903   0.00000  Uiso   1.00
H985   H     0.46716   0.82327   0.58879   0.00000  Uiso   1.00
H986   H     0.38464   0.81114   0.91238   0.00000  Uiso   1.00
H987   H     0.36291   0.78307   0.50033   0.00000  Uiso   1.00
H988   H     0.56255   0.79465   0.86491   0.00000  Uiso   1.00
H989   H     0.57546   0.96274   0.75147   0.00000  Uiso   1.00
N990   N     0.38265   0.83332   0.74998   0.00000  Uiso   1.00
N991   N     0.61735   0.83335   0.74999   0.00000  Uiso   1.00
O992   O     0.46042   0.89345   0.75000   0.00000  Uiso   1.00
O993   O     0.53961   0.89346   0.75000   0.00000  Uiso   1.00
O994   O     0.44108   0.83332   0.82549   0.00000  Uiso   1.00
O995   O     0.52027   0.83333   0.82549   0.00000  Uiso   1.00
O996   O     0.46039   0.77321   0.74999   0.00000  Uiso   1.00
O997   O     0.53958   0.77322   0.74999   0.00000  Uiso   1.00
O998   O     0.47973   0.83334   0.67451   0.00000  Uiso   1.00
O999   O     0.55892   0.83335   0.67451   0.00000  Uiso   1.00
C1000  C     0.42000   0.76656   0.56046   0.00000  Uiso   1.00
O1001  O     0.45008   0.74572   0.57379   0.00000  Uiso   1.00
O1002  O     0.37118   0.76631   0.59058   0.00000  Uiso   1.00
H1003  H     0.36541   0.74747   0.62193   0.00000  Uiso   1.00
C1004  C     0.83333   0.91265   0.75005   0.00000  Uiso   1.00
C1005  C     0.81683   0.80286   0.98645   0.00000  Uiso   1.00
C1006  C     0.83161   0.80707   0.93139   0.00000  Uiso   1.00
C1007  C     0.85203   0.81145   0.51371   0.00000  Uiso   1.00
C1008  C     0.90213   0.81437   0.98558   0.00000  Uiso   1.00
C1009  C     0.91677   0.80701   0.93222   0.00000  Uiso   1.00
C1010  C     0.88202   0.80280   0.90548   0.00000  Uiso   1.00
C1011  C     0.83858   0.82109   0.56709   0.00000  Uiso   1.00
C1012  C     0.92335   0.83110   0.56457   0.00000  Uiso   1.00
C1013  C     0.79540   0.81439   0.90485   0.00000  Uiso   1.00
C1014  C     0.87569   0.97874   0.75080   0.00000  Uiso   1.00
C1015  C     0.80808   0.82787   0.84948   0.00000  Uiso   1.00
C1016  C     0.87570   0.68797   0.75074   0.00000  Uiso   1.00
C1017  C     0.83335   0.70941   0.74993   0.00000  Uiso   1.00
C1018  C     0.79100   0.68795   0.74914   0.00000  Uiso   1.00
C1019  C     0.79098   0.97871   0.74922   0.00000  Uiso   1.00
C1020  C     0.83333   0.95727   0.75003   0.00000  Uiso   1.00
C1021  C     0.96633   0.85804   0.78348   0.00000  Uiso   1.00
C1022  C     0.68260   0.85800   0.78352   0.00000  Uiso   1.00
C1023  C     0.70031   0.80856   0.71659   0.00000  Uiso   1.00
C1024  C     0.98400   0.80855   0.71664   0.00000  Uiso   1.00
C1025  C     0.83334   0.75402   0.74993   0.00000  Uiso   1.00
C1026  C     0.85917   0.83304   0.64989   0.00000  Uiso   1.00
C1027  C     0.93706   0.82485   0.51097   0.00000  Uiso   1.00
C1028  C     0.87401   0.82899   0.59298   0.00000  Uiso   1.00
C1029  C     0.74625   0.80779   0.93186   0.00000  Uiso   1.00
C1030  C     0.73329   0.79336   0.98296   0.00000  Uiso   1.00
C1031  C     0.76790   0.79016   0.51082   0.00000  Uiso   1.00
Cu1032 Cu    0.78645   0.83333   0.75000   0.00000  Uiso   1.00
Cu1033 Cu    0.88022   0.83334   0.75000   0.00000  Uiso   1.00
H1034  H     0.95125   0.83806   0.58359   0.00000  Uiso   1.00
H1035  H     0.90881   0.70399   0.75136   0.00000  Uiso   1.00
H1036  H     0.75790   0.70395   0.74845   0.00000  Uiso   1.00
H1037  H     0.75787   0.96269   0.74860   0.00000  Uiso   1.00
H1038  H     0.94053   0.87784   0.81031   0.00000  Uiso   1.00
H1039  H     0.69420   0.87777   0.81034   0.00000  Uiso   1.00
H1040  H     0.72613   0.78869   0.68991   0.00000  Uiso   1.00
H1041  H     0.97225   0.78868   0.69005   0.00000  Uiso   1.00
H1042  H     0.95517   0.80581   0.91075   0.00000  Uiso   1.00
H1043  H     0.97481   0.82895   0.98903   0.00000  Uiso   1.00
H1044  H     0.80050   0.82327   0.58879   0.00000  Uiso   1.00
H1045  H     0.71797   0.81114   0.91238   0.00000  Uiso   1.00
H1046  H     0.69624   0.78307   0.50033   0.00000  Uiso   1.00
H1047  H     0.89589   0.79465   0.86491   0.00000  Uiso   1.00
H1048  H     0.90879   0.96274   0.75147   0.00000  Uiso   1.00
N1049  N     0.71598   0.83332   0.74998   0.00000  Uiso   1.00
N1050  N     0.95069   0.83335   0.74999   0.00000  Uiso   1.00
O1051  O     0.79375   0.89345   0.75000   0.00000  Uiso   1.00
O1052  O     0.87294   0.89346   0.75000   0.00000  Uiso   1.00
O1053  O     0.77441   0.83332   0.82549   0.00000  Uiso   1.00
O1054  O     0.85360   0.83333   0.82549   0.00000  Uiso   1.00
O1055  O     0.79373   0.77321   0.74999   0.00000  Uiso   1.00
O1056  O     0.87292   0.77322   0.74999   0.00000  Uiso   1.00
O1057  O     0.81306   0.83334   0.67451   0.00000  Uiso   1.00
O1058  O     0.89225   0.83335   0.67451   0.00000  Uiso   1.00
C1059  C     0.75334   0.76656   0.56046   0.00000  Uiso   1.00
O1060  O     0.78341   0.74572   0.57379   0.00000  Uiso   1.00
O1061  O     0.70451   0.76631   0.59058   0.00000  Uiso   1.00
H1062  H     0.69874   0.74747   0.62193   0.00000  Uiso   1.00
loop_
_geom_bond_atom_site_label_1
_geom_bond_atom_site_label_2
_geom_bond_distance
_geom_bond_site_symmetry_2
_ccdc_geom_bond_type
C1     O48     1.291   .     A
C1     C17     1.450   .     S
C1     O49     1.291   .     A
C2     C3      1.418   .     A
C2     C535    1.426   .     S
C2     C559    1.425   .     S
C3     C10     1.430   .     A
C3     C7      1.416   .     A
C4     C8      1.403   .     A
C4     C533    1.426   1_554 S
C4     C536    1.418   1_554 S
C5     C6      1.388   .     A
C5     C535    1.418   .     S
C5     C555    1.398   .     S
C6     C7      1.384   .     A
C6     H39     1.085   .     S
C7     H44     1.076   .     S
C8     H41     1.080   .     S
C8     C25     1.401   .     A
C9     C25     1.400   .     A
C9     C24     1.389   .     A
C9     H31     1.083   .     S
C10    C26     1.401   .     A
C10    C12     1.487   .     S
C11    H45     1.083   .     S
C11    C17     1.401   .     A
C11    C190    1.384   .     S
C12    O50     1.310   .     A
C12    O51     1.288   .     A
C13    H32     1.083   .     S
C13    C14     1.401   .     A
C13    C365    1.384   1_545 S
C14    C15     1.401   .     A
C14    C22     1.450   .     S
C15    H33     1.083   .     S
C15    C370    1.383   1_545 S
C16    H34     1.083   .     S
C16    C17     1.401   .     A
C16    C192    1.383   .     S
C18    H35     1.082   .     S
C18    N47     1.367   .     A
C18    C78     1.416   .     S
C19    N46     1.367   .     A
C19    H36     1.082   .     S
C19    C136    1.416   1_455 S
C20    H37     1.081   .     S
C20    N46     1.367   .     A
C20    C139    1.417   1_455 S
C21    H38     1.081   .     S
C21    N47     1.366   .     A
C21    C79     1.417   .     S
C22    O53     1.291   .     A
C22    O52     1.291   .     A
C23    O55     1.295   .     A
C23    C25     1.464   .     S
C23    O54     1.294   .     A
C24    C536    1.398   1_554 S
C24    H571    1.079   1_554 S
C26    C27     1.392   .     A
C26    H42     1.083   .     S
C27    C559    1.400   .     S
C27    H574    1.081   .     S
C28    C56     1.487   .     S
C28    C558    1.400   1_554 S
C28    C533    1.425   1_554 S
Cu29   N46     2.012   .     S
Cu29   Cu30    2.677   .     S
Cu29   O50     1.948   .     S
Cu29   O54     1.944   .     S
Cu29   O48     1.965   .     S
Cu29   O52     1.965   .     S
Cu30   O51     1.944   .     S
Cu30   O49     1.965   .     S
Cu30   O53     1.965   .     S
Cu30   N47     2.012   .     S
Cu30   O55     1.948   .     S
H40    C555    1.079   .     S
H43    C558    1.081   1_554 S
C56    O58     1.398   .     S
C56    O57     1.223   .     D
O58    H59     1.014   .     S
C60    O107    1.291   .     A
C60    C76     1.450   .     S
C60    O108    1.291   .     A
C61    C62     1.418   .     A
C61    C594    1.426   .     S
C61    C618    1.425   .     S
C62    C69     1.430   .     A
C62    C66     1.416   .     A
C63    C67     1.403   .     A
C63    C592    1.426   1_554 S
C63    C595    1.418   1_554 S
C64    C65     1.388   .     A
C64    C594    1.418   .     S
C64    C614    1.398   .     S
C65    C66     1.384   .     A
C65    H98     1.085   .     S
C66    H103    1.076   .     S
C67    H100    1.080   .     S
C67    C84     1.401   .     A
C68    C84     1.400   .     A
C68    C83     1.389   .     A
C68    H90     1.083   .     S
C69    C85     1.401   .     A
C69    C71     1.487   .     S
C70    H104    1.083   .     S
C70    C76     1.401   .     A
C70    C249    1.384   .     S
C71    O109    1.310   .     A
C71    O110    1.288   .     A
C72    H91     1.083   .     S
C72    C73     1.401   .     A
C72    C424    1.384   1_545 S
C73    C74     1.401   .     A
C73    C81     1.450   .     S
C74    H92     1.083   .     S
C74    C429    1.383   1_545 S
C75    H93     1.083   .     S
C75    C76     1.401   .     A
C75    C251    1.383   .     S
C77    H94     1.082   .     S
C77    N106    1.367   .     A
C77    C137    1.416   .     S
C78    N105    1.367   .     A
C78    H95     1.082   .     S
C79    H96     1.081   .     S
C79    N105    1.367   .     A
C80    H97     1.081   .     S
C80    N106    1.366   .     A
C80    C138    1.417   .     S
C81    O112    1.291   .     A
C81    O111    1.291   .     A
C82    O114    1.295   .     A
C82    C84     1.464   .     S
C82    O113    1.294   .     A
C83    C595    1.398   1_554 S
C83    H630    1.079   1_554 S
C85    C86     1.392   .     A
C85    H101    1.083   .     S
C86    C618    1.400   .     S
C86    H633    1.081   .     S
C87    C115    1.487   .     S
C87    C617    1.400   1_554 S
C87    C592    1.425   1_554 S
Cu88   N105    2.012   .     S
Cu88   Cu89    2.677   .     S
Cu88   O109    1.948   .     S
Cu88   O113    1.944   .     S
Cu88   O107    1.965   .     S
Cu88   O111    1.965   .     S
Cu89   O110    1.944   .     S
Cu89   O108    1.965   .     S
Cu89   O112    1.965   .     S
Cu89   N106    2.012   .     S
Cu89   O114    1.948   .     S
H99    C614    1.079   .     S
H102   C617    1.081   1_554 S
C115   O117    1.398   .     S
C115   O116    1.223   .     D
O117   H118    1.014   .     S
C119   O166    1.291   .     A
C119   C135    1.450   .     S
C119   O167    1.291   .     A
C120   C121    1.418   .     A
C120   C653    1.426   .     S
C120   C677    1.425   .     S
C121   C128    1.430   .     A
C121   C125    1.416   .     A
C122   C126    1.403   .     A
C122   C651    1.426   1_554 S
C122   C654    1.418   1_554 S
C123   C124    1.388   .     A
C123   C653    1.418   .     S
C123   C673    1.398   .     S
C124   C125    1.384   .     A
C124   H157    1.085   .     S
C125   H162    1.076   .     S
C126   H159    1.080   .     S
C126   C143    1.401   .     A
C127   C143    1.400   .     A
C127   C142    1.389   .     A
C127   H149    1.083   .     S
C128   C144    1.401   .     A
C128   C130    1.487   .     S
C129   H163    1.083   .     S
C129   C135    1.401   .     A
C129   C308    1.384   .     S
C130   O168    1.310   .     A
C130   O169    1.288   .     A
C131   H150    1.083   .     S
C131   C132    1.401   .     A
C131   C483    1.384   1_545 S
C132   C133    1.401   .     A
C132   C140    1.450   .     S
C133   H151    1.083   .     S
C133   C488    1.383   1_545 S
C134   H152    1.083   .     S
C134   C135    1.401   .     A
C134   C310    1.383   .     S
C136   H153    1.082   .     S
C136   N165    1.367   .     A
C136   C19     1.416   1_655 S
C137   N164    1.367   .     A
C137   H154    1.082   .     S
C138   H155    1.081   .     S
C138   N164    1.367   .     A
C139   H156    1.081   .     S
C139   N165    1.366   .     A
C139   C20     1.417   1_655 S
C140   O171    1.291   .     A
C140   O170    1.291   .     A
C141   O173    1.295   .     A
C141   C143    1.464   .     S
C141   O172    1.294   .     A
C142   C654    1.398   1_554 S
C142   H689    1.079   1_554 S
C144   C145    1.392   .     A
C144   H160    1.083   .     S
C145   C677    1.400   .     S
C145   H692    1.081   .     S
C146   C174    1.487   .     S
C146   C676    1.400   1_554 S
C146   C651    1.425   1_554 S
Cu147  N164    2.012   .     S
Cu147  Cu148   2.677   .     S
Cu147  O168    1.948   .     S
Cu147  O172    1.944   .     S
Cu147  O166    1.965   .     S
Cu147  O170    1.965   .     S
Cu148  O169    1.944   .     S
Cu148  O167    1.965   .     S
Cu148  O171    1.965   .     S
Cu148  N165    2.012   .     S
Cu148  O173    1.948   .     S
H158   C673    1.079   .     S
H161   C676    1.081   1_554 S
C174   O176    1.398   .     S
C174   O175    1.223   .     D
O176   H177    1.014   .     S
C178   O225    1.291   .     A
C178   C194    1.450   .     S
C178   O226    1.291   .     A
C179   C180    1.418   .     A
C179   C712    1.426   .     S
C179   C736    1.425   .     S
C180   C187    1.430   .     A
C180   C184    1.416   .     A
C181   C185    1.403   .     A
C181   C710    1.426   1_554 S
C181   C713    1.418   1_554 S
C182   C183    1.388   .     A
C182   C712    1.418   .     S
C182   C732    1.398   .     S
C183   C184    1.384   .     A
C183   H216    1.085   .     S
C184   H221    1.076   .     S
C185   H218    1.080   .     S
C185   C202    1.401   .     A
C186   C202    1.400   .     A
C186   C201    1.389   .     A
C186   H208    1.083   .     S
C187   C203    1.401   .     A
C187   C189    1.487   .     S
C188   H222    1.083   .     S
C188   C194    1.401   .     A
C188   C367    1.384   .     S
C189   O227    1.310   .     A
C189   O228    1.288   .     A
C190   H209    1.083   .     S
C190   C191    1.401   .     A
C191   C192    1.401   .     A
C191   C199    1.450   .     S
C192   H210    1.083   .     S
C193   H211    1.083   .     S
C193   C194    1.401   .     A
C193   C369    1.383   .     S
C195   H212    1.082   .     S
C195   N224    1.367   .     A
C195   C255    1.416   .     S
C196   N223    1.367   .     A
C196   H213    1.082   .     S
C196   C313    1.416   1_455 S
C197   H214    1.081   .     S
C197   N223    1.367   .     A
C197   C316    1.417   1_455 S
C198   H215    1.081   .     S
C198   N224    1.366   .     A
C198   C256    1.417   .     S
C199   O230    1.291   .     A
C199   O229    1.291   .     A
C200   O232    1.295   .     A
C200   C202    1.464   .     S
C200   O231    1.294   .     A
C201   C713    1.398   1_554 S
C201   H748    1.079   1_554 S
C203   C204    1.392   .     A
C203   H219    1.083   .     S
C204   C736    1.400   .     S
C204   H751    1.081   .     S
C205   C233    1.487   .     S
C205   C735    1.400   1_554 S
C205   C710    1.425   1_554 S
Cu206  N223    2.012   .     S
Cu206  Cu207   2.677   .     S
Cu206  O227    1.948   .     S
Cu206  O231    1.944   .     S
Cu206  O225    1.965   .     S
Cu206  O229    1.965   .     S
Cu207  O228    1.944   .     S
Cu207  O226    1.965   .     S
Cu207  O230    1.965   .     S
Cu207  N224    2.012   .     S
Cu207  O232    1.948   .     S
H217   C732    1.079   .     S
H220   C735    1.081   1_554 S
C233   O235    1.398   .     S
C233   O234    1.223   .     D
O235   H236    1.014   .     S
C237   O284    1.291   .     A
C237   C253    1.450   .     S
C237   O285    1.291   .     A
C238   C239    1.418   .     A
C238   C771    1.426   .     S
C238   C795    1.425   .     S
C239   C246    1.430   .     A
C239   C243    1.416   .     A
C240   C244    1.403   .     A
C240   C769    1.426   1_554 S
C240   C772    1.418   1_554 S
C241   C242    1.388   .     A
C241   C771    1.418   .     S
C241   C791    1.398   .     S
C242   C243    1.384   .     A
C242   H275    1.085   .     S
C243   H280    1.076   .     S
C244   H277    1.080   .     S
C244   C261    1.401   .     A
C245   C261    1.400   .     A
C245   C260    1.389   .     A
C245   H267    1.083   .     S
C246   C262    1.401   .     A
C246   C248    1.487   .     S
C247   H281    1.083   .     S
C247   C253    1.401   .     A
C247   C426    1.384   .     S
C248   O286    1.310   .     A
C248   O287    1.288   .     A
C249   H268    1.083   .     S
C249   C250    1.401   .     A
C250   C251    1.401   .     A
C250   C258    1.450   .     S
C251   H269    1.083   .     S
C252   H270    1.083   .     S
C252   C253    1.401   .     A
C252   C428    1.383   .     S
C254   H271    1.082   .     S
C254   N283    1.367   .     A
C254   C314    1.416   .     S
C255   N282    1.367   .     A
C255   H272    1.082   .     S
C256   H273    1.081   .     S
C256   N282    1.367   .     A
C257   H274    1.081   .     S
C257   N283    1.366   .     A
C257   C315    1.417   .     S
C258   O289    1.291   .     A
C258   O288    1.291   .     A
C259   O291    1.295   .     A
C259   C261    1.464   .     S
C259   O290    1.294   .     A
C260   C772    1.398   1_554 S
C260   H807    1.079   1_554 S
C262   C263    1.392   .     A
C262   H278    1.083   .     S
C263   C795    1.400   .     S
C263   H810    1.081   .     S
C264   C292    1.487   .     S
C264   C794    1.400   1_554 S
C264   C769    1.425   1_554 S
Cu265  N282    2.012   .     S
Cu265  Cu266   2.677   .     S
Cu265  O286    1.948   .     S
Cu265  O290    1.944   .     S
Cu265  O284    1.965   .     S
Cu265  O288    1.965   .     S
Cu266  O287    1.944   .     S
Cu266  O285    1.965   .     S
Cu266  O289    1.965   .     S
Cu266  N283    2.012   .     S
Cu266  O291    1.948   .     S
H276   C791    1.079   .     S
H279   C794    1.081   1_554 S
C292   O294    1.398   .     S
C292   O293    1.223   .     D
O294   H295    1.014   .     S
C296   O343    1.291   .     A
C296   C312    1.450   .     S
C296   O344    1.291   .     A
C297   C298    1.418   .     A
C297   C830    1.426   .     S
C297   C854    1.425   .     S
C298   C305    1.430   .     A
C298   C302    1.416   .     A
C299   C303    1.403   .     A
C299   C828    1.426   1_554 S
C299   C831    1.418   1_554 S
C300   C301    1.388   .     A
C300   C830    1.418   .     S
C300   C850    1.398   .     S
C301   C302    1.384   .     A
C301   H334    1.085   .     S
C302   H339    1.076   .     S
C303   H336    1.080   .     S
C303   C320    1.401   .     A
C304   C320    1.400   .     A
C304   C319    1.389   .     A
C304   H326    1.083   .     S
C305   C321    1.401   .     A
C305   C307    1.487   .     S
C306   H340    1.083   .     S
C306   C312    1.401   .     A
C306   C485    1.384   .     S
C307   O345    1.310   .     A
C307   O346    1.288   .     A
C308   H327    1.083   .     S
C308   C309    1.401   .     A
C309   C310    1.401   .     A
C309   C317    1.450   .     S
C310   H328    1.083   .     S
C311   H329    1.083   .     S
C311   C312    1.401   .     A
C311   C487    1.383   .     S
C313   H330    1.082   .     S
C313   N342    1.367   .     A
C313   C196    1.416   1_655 S
C314   N341    1.367   .     A
C314   H331    1.082   .     S
C315   H332    1.081   .     S
C315   N341    1.367   .     A
C316   H333    1.081   .     S
C316   N342    1.366   .     A
C316   C197    1.417   1_655 S
C317   O348    1.291   .     A
C317   O347    1.291   .     A
C318   O350    1.295   .     A
C318   C320    1.464   .     S
C318   O349    1.294   .     A
C319   C831    1.398   1_554 S
C319   H866    1.079   1_554 S
C321   C322    1.392   .     A
C321   H337    1.083   .     S
C322   C854    1.400   .     S
C322   H869    1.081   .     S
C323   C351    1.487   .     S
C323   C853    1.400   1_554 S
C323   C828    1.425   1_554 S
Cu324  N341    2.012   .     S
Cu324  Cu325   2.677   .     S
Cu324  O345    1.948   .     S
Cu324  O349    1.944   .     S
Cu324  O343    1.965   .     S
Cu324  O347    1.965   .     S
Cu325  O346    1.944   .     S
Cu325  O344    1.965   .     S
Cu325  O348    1.965   .     S
Cu325  N342    2.012   .     S
Cu325  O350    1.948   .     S
H335   C850    1.079   .     S
H338   C853    1.081   1_554 S
C351   O353    1.398   .     S
C351   O352    1.223   .     D
O353   H354    1.014   .     S
C355   O402    1.291   .     A
C355   C371    1.450   .     S
C355   O403    1.291   .     A
C356   C357    1.418   .     A
C356   C889    1.426   .     S
C356   C913    1.425   .     S
C357   C364    1.430   .     A
C357   C361    1.416   .     A
C358   C362    1.403   .     A
C358   C887    1.426   1_554 S
C358   C890    1.418   1_554 S
C359   C360    1.388   .     A
C359   C889    1.418   .     S
C359   C909    1.398   .     S
C360   C361    1.384   .     A
C360   H393    1.085   .     S
C361   H398    1.076   .     S
C362   H395    1.080   .     S
C362   C379    1.401   .     A
C363   C379    1.400   .     A
C363   C378    1.389   .     A
C363   H385    1.083   .     S
C364   C380    1.401   .     A
C364   C366    1.487   .     S
C365   H399    1.083   .     S
C365   C371    1.401   .     A
C365   C13     1.384   1_565 S
C366   O404    1.310   .     A
C366   O405    1.288   .     A
C367   H386    1.083   .     S
C367   C368    1.401   .     A
C368   C369    1.401   .     A
C368   C376    1.450   .     S
C369   H387    1.083   .     S
C370   H388    1.083   .     S
C370   C371    1.401   .     A
C370   C15     1.383   1_565 S
C372   H389    1.082   .     S
C372   N401    1.367   .     A
C372   C432    1.416   .     S
C373   N400    1.367   .     A
C373   H390    1.082   .     S
C373   C490    1.416   1_455 S
C374   H391    1.081   .     S
C374   N400    1.367   .     A
C374   C493    1.417   1_455 S
C375   H392    1.081   .     S
C375   N401    1.366   .     A
C375   C433    1.417   .     S
C376   O407    1.291   .     A
C376   O406    1.291   .     A
C377   O409    1.295   .     A
C377   C379    1.464   .     S
C377   O408    1.294   .     A
C378   C890    1.398   1_554 S
C378   H925    1.079   1_554 S
C380   C381    1.392   .     A
C380   H396    1.083   .     S
C381   C913    1.400   .     S
C381   H928    1.081   .     S
C382   C410    1.487   .     S
C382   C912    1.400   1_554 S
C382   C887    1.425   1_554 S
Cu383  N400    2.012   .     S
Cu383  Cu384   2.677   .     S
Cu383  O404    1.948   .     S
Cu383  O408    1.944   .     S
Cu383  O402    1.965   .     S
Cu383  O406    1.965   .     S
Cu384  O405    1.944   .     S
Cu384  O403    1.965   .     S
Cu384  O407    1.965   .     S
Cu384  N401    2.012   .     S
Cu384  O409    1.948   .     S
H394   C909    1.079   .     S
H397   C912    1.081   1_554 S
C410   O412    1.398   .     S
C410   O411    1.223   .     D
O412   H413    1.014   .     S
C414   O461    1.291   .     A
C414   C430    1.450   .     S
C414   O462    1.291   .     A
C415   C416    1.418   .     A
C415   C948    1.426   .     S
C415   C972    1.425   .     S
C416   C423    1.430   .     A
C416   C420    1.416   .     A
C417   C421    1.403   .     A
C417   C946    1.426   1_554 S
C417   C949    1.418   1_554 S
C418   C419    1.388   .     A
C418   C948    1.418   .     S
C418   C968    1.398   .     S
C419   C420    1.384   .     A
C419   H452    1.085   .     S
C420   H457    1.076   .     S
C421   H454    1.080   .     S
C421   C438    1.401   .     A
C422   C438    1.400   .     A
C422   C437    1.389   .     A
C422   H444    1.083   .     S
C423   C439    1.401   .     A
C423   C425    1.487   .     S
C424   H458    1.083   .     S
C424   C430    1.401   .     A
C424   C72     1.384   1_565 S
C425   O463    1.310   .     A
C425   O464    1.288   .     A
C426   H445    1.083   .     S
C426   C427    1.401   .     A
C427   C428    1.401   .     A
C427   C435    1.450   .     S
C428   H446    1.083   .     S
C429   H447    1.083   .     S
C429   C430    1.401   .     A
C429   C74     1.383   1_565 S
C431   H448    1.082   .     S
C431   N460    1.367   .     A
C431   C491    1.416   .     S
C432   N459    1.367   .     A
C432   H449    1.082   .     S
C433   H450    1.081   .     S
C433   N459    1.367   .     A
C434   H451    1.081   .     S
C434   N460    1.366   .     A
C434   C492    1.417   .     S
C435   O466    1.291   .     A
C435   O465    1.291   .     A
C436   O468    1.295   .     A
C436   C438    1.464   .     S
C436   O467    1.294   .     A
C437   C949    1.398   1_554 S
C437   H984    1.079   1_554 S
C439   C440    1.392   .     A
C439   H455    1.083   .     S
C440   C972    1.400   .     S
C440   H987    1.081   .     S
C441   C469    1.487   .     S
C441   C971    1.400   1_554 S
C441   C946    1.425   1_554 S
Cu442  N459    2.012   .     S
Cu442  Cu443   2.677   .     S
Cu442  O463    1.948   .     S
Cu442  O467    1.944   .     S
Cu442  O461    1.965   .     S
Cu442  O465    1.965   .     S
Cu443  O464    1.944   .     S
Cu443  O462    1.965   .     S
Cu443  O466    1.965   .     S
Cu443  N460    2.012   .     S
Cu443  O468    1.948   .     S
H453   C968    1.079   .     S
H456   C971    1.081   1_554 S
C469   O471    1.398   .     S
C469   O470    1.223   .     D
O471   H472    1.014   .     S
C473   O520    1.291   .     A
C473   C489    1.450   .     S
C473   O521    1.291   .     A
C474   C475    1.418   .     A
C474   C1007   1.426   .     S
C474   C1031   1.425   .     S
C475   C482    1.430   .     A
C475   C479    1.416   .     A
C476   C480    1.403   .     A
C476   C1005   1.426   1_554 S
C476   C1008   1.418   1_554 S
C477   C478    1.388   .     A
C477   C1007   1.418   .     S
C477   C1027   1.398   .     S
C478   C479    1.384   .     A
C478   H511    1.085   .     S
C479   H516    1.076   .     S
C480   H513    1.080   .     S
C480   C497    1.401   .     A
C481   C497    1.400   .     A
C481   C496    1.389   .     A
C481   H503    1.083   .     S
C482   C498    1.401   .     A
C482   C484    1.487   .     S
C483   H517    1.083   .     S
C483   C489    1.401   .     A
C483   C131    1.384   1_565 S
C484   O522    1.310   .     A
C484   O523    1.288   .     A
C485   H504    1.083   .     S
C485   C486    1.401   .     A
C486   C487    1.401   .     A
C486   C494    1.450   .     S
C487   H505    1.083   .     S
C488   H506    1.083   .     S
C488   C489    1.401   .     A
C488   C133    1.383   1_565 S
C490   H507    1.082   .     S
C490   N519    1.367   .     A
C490   C373    1.416   1_655 S
C491   N518    1.367   .     A
C491   H508    1.082   .     S
C492   H509    1.081   .     S
C492   N518    1.367   .     A
C493   H510    1.081   .     S
C493   N519    1.366   .     A
C493   C374    1.417   1_655 S
C494   O525    1.291   .     A
C494   O524    1.291   .     A
C495   O527    1.295   .     A
C495   C497    1.464   .     S
C495   O526    1.294   .     A
C496   C1008   1.398   1_554 S
C496   H1043   1.079   1_554 S
C498   C499    1.392   .     A
C498   H514    1.083   .     S
C499   C1031   1.400   .     S
C499   H1046   1.081   .     S
C500   C528    1.487   .     S
C500   C1030   1.400   1_554 S
C500   C1005   1.425   1_554 S
Cu501  N518    2.012   .     S
Cu501  Cu502   2.677   .     S
Cu501  O522    1.948   .     S
Cu501  O526    1.944   .     S
Cu501  O520    1.965   .     S
Cu501  O524    1.965   .     S
Cu502  O523    1.944   .     S
Cu502  O521    1.965   .     S
Cu502  O525    1.965   .     S
Cu502  N519    2.012   .     S
Cu502  O527    1.948   .     S
H512   C1027   1.079   .     S
H515   C1030   1.081   1_554 S
C528   O530    1.398   .     S
C528   O529    1.223   .     D
O530   H531    1.014   .     S
C532   O579    1.291   .     A
C532   C548    1.450   .     S
C532   O580    1.291   .     A
C533   C534    1.418   .     A
C533   C4      1.426   1_556 S
C533   C28     1.425   1_556 S
C534   C541    1.430   .     A
C534   C538    1.416   .     A
C535   C539    1.403   .     A
C536   C537    1.388   .     A
C536   C4      1.418   1_556 S
C536   C24     1.398   1_556 S
C537   C538    1.384   .     A
C537   H570    1.085   .     S
C538   H575    1.076   .     S
C539   H572    1.080   .     S
C539   C556    1.401   .     A
C540   C556    1.400   .     A
C540   C555    1.389   .     A
C540   H562    1.083   .     S
C541   C557    1.401   .     A
C541   C543    1.487   .     S
C542   H576    1.083   .     S
C542   C548    1.401   .     A
C542   C721    1.384   .     S
C543   O581    1.310   .     A
C543   O582    1.288   .     A
C544   H563    1.083   .     S
C544   C545    1.401   .     A
C544   C896    1.384   1_545 S
C545   C546    1.401   .     A
C545   C553    1.450   .     S
C546   H564    1.083   .     S
C546   C901    1.383   1_545 S
C547   H565    1.083   .     S
C547   C548    1.401   .     A
C547   C723    1.383   .     S
C549   H566    1.082   .     S
C549   N578    1.367   .     A
C549   C609    1.416   .     S
C550   N577    1.367   .     A
C550   H567    1.082   .     S
C550   C667    1.416   1_455 S
C551   H568    1.081   .     S
C551   N577    1.367   .     A
C551   C670    1.417   1_455 S
C552   H569    1.081   .     S
C552   N578    1.366   .     A
C552   C610    1.417   .     S
C553   O584    1.291   .     A
C553   O583    1.291   .     A
C554   O586    1.295   .     A
C554   C556    1.464   .     S
C554   O585    1.294   .     A
C557   C558    1.392   .     A
C557   H573    1.083   .     S
C558   C28     1.400   1_556 S
C558   H43     1.081   1_556 S
C559   C587    1.487   .     S
Cu560  N577    2.012   .     S
Cu560  Cu561   2.677   .     S
Cu560  O581    1.948   .     S
Cu560  O585    1.944   .     S
Cu560  O579    1.965   .     S
Cu560  O583    1.965   .     S
Cu561  O582    1.944   .     S
Cu561  O580    1.965   .     S
Cu561  O584    1.965   .     S
Cu561  N578    2.012   .     S
Cu561  O586    1.948   .     S
H571   C24     1.079   1_556 S
C587   O589    1.398   .     S
C587   O588    1.223   .     D
O589   H590    1.014   .     S
C591   O638    1.291   .     A
C591   C607    1.450   .     S
C591   O639    1.291   .     A
C592   C593    1.418   .     A
C592   C63     1.426   1_556 S
C592   C87     1.425   1_556 S
C593   C600    1.430   .     A
C593   C597    1.416   .     A
C594   C598    1.403   .     A
C595   C596    1.388   .     A
C595   C63     1.418   1_556 S
C595   C83     1.398   1_556 S
C596   C597    1.384   .     A
C596   H629    1.085   .     S
C597   H634    1.076   .     S
C598   H631    1.080   .     S
C598   C615    1.401   .     A
C599   C615    1.400   .     A
C599   C614    1.389   .     A
C599   H621    1.083   .     S
C600   C616    1.401   .     A
C600   C602    1.487   .     S
C601   H635    1.083   .     S
C601   C607    1.401   .     A
C601   C780    1.384   .     S
C602   O640    1.310   .     A
C602   O641    1.288   .     A
C603   H622    1.083   .     S
C603   C604    1.401   .     A
C603   C955    1.384   1_545 S
C604   C605    1.401   .     A
C604   C612    1.450   .     S
C605   H623    1.083   .     S
C605   C960    1.383   1_545 S
C606   H624    1.083   .     S
C606   C607    1.401   .     A
C606   C782    1.383   .     S
C608   H625    1.082   .     S
C608   N637    1.367   .     A
C608   C668    1.416   .     S
C609   N636    1.367   .     A
C609   H626    1.082   .     S
C610   H627    1.081   .     S
C610   N636    1.367   .     A
C611   H628    1.081   .     S
C611   N637    1.366   .     A
C611   C669    1.417   .     S
C612   O643    1.291   .     A
C612   O642    1.291   .     A
C613   O645    1.295   .     A
C613   C615    1.464   .     S
C613   O644    1.294   .     A
C616   C617    1.392   .     A
C616   H632    1.083   .     S
C617   C87     1.400   1_556 S
C617   H102    1.081   1_556 S
C618   C646    1.487   .     S
Cu619  N636    2.012   .     S
Cu619  Cu620   2.677   .     S
Cu619  O640    1.948   .     S
Cu619  O644    1.944   .     S
Cu619  O638    1.965   .     S
Cu619  O642    1.965   .     S
Cu620  O641    1.944   .     S
Cu620  O639    1.965   .     S
Cu620  O643    1.965   .     S
Cu620  N637    2.012   .     S
Cu620  O645    1.948   .     S
H630   C83     1.079   1_556 S
C646   O648    1.398   .     S
C646   O647    1.223   .     D
O648   H649    1.014   .     S
C650   O697    1.291   .     A
C650   C666    1.450   .     S
C650   O698    1.291   .     A
C651   C652    1.418   .     A
C651   C122    1.426   1_556 S
C651   C146    1.425   1_556 S
C652   C659    1.430   .     A
C652   C656    1.416   .     A
C653   C657    1.403   .     A
C654   C655    1.388   .     A
C654   C122    1.418   1_556 S
C654   C142    1.398   1_556 S
C655   C656    1.384   .     A
C655   H688    1.085   .     S
C656   H693    1.076   .     S
C657   H690    1.080   .     S
C657   C674    1.401   .     A
C658   C674    1.400   .     A
C658   C673    1.389   .     A
C658   H680    1.083   .     S
C659   C675    1.401   .     A
C659   C661    1.487   .     S
C660   H694    1.083   .     S
C660   C666    1.401   .     A
C660   C839    1.384   .     S
C661   O699    1.310   .     A
C661   O700    1.288   .     A
C662   H681    1.083   .     S
C662   C663    1.401   .     A
C662   C1014   1.384   1_545 S
C663   C664    1.401   .     A
C663   C671    1.450   .     S
C664   H682    1.083   .     S
C664   C1019   1.383   1_545 S
C665   H683    1.083   .     S
C665   C666    1.401   .     A
C665   C841    1.383   .     S
C667   H684    1.082   .     S
C667   N696    1.367   .     A
C667   C550    1.416   1_655 S
C668   N695    1.367   .     A
C668   H685    1.082   .     S
C669   H686    1.081   .     S
C669   N695    1.367   .     A
C670   H687    1.081   .     S
C670   N696    1.366   .     A
C670   C551    1.417   1_655 S
C671   O702    1.291   .     A
C671   O701    1.291   .     A
C672   O704    1.295   .     A
C672   C674    1.464   .     S
C672   O703    1.294   .     A
C675   C676    1.392   .     A
C675   H691    1.083   .     S
C676   C146    1.400   1_556 S
C676   H161    1.081   1_556 S
C677   C705    1.487   .     S
Cu678  N695    2.012   .     S
Cu678  Cu679   2.677   .     S
Cu678  O699    1.948   .     S
Cu678  O703    1.944   .     S
Cu678  O697    1.965   .     S
Cu678  O701    1.965   .     S
Cu679  O700    1.944   .     S
Cu679  O698    1.965   .     S
Cu679  O702    1.965   .     S
Cu679  N696    2.012   .     S
Cu679  O704    1.948   .     S
H689   C142    1.079   1_556 S
C705   O707    1.398   .     S
C705   O706    1.223   .     D
O707   H708    1.014   .     S
C709   O756    1.291   .     A
C709   C725    1.450   .     S
C709   O757    1.291   .     A
C710   C711    1.418   .     A
C710   C181    1.426   1_556 S
C710   C205    1.425   1_556 S
C711   C718    1.430   .     A
C711   C715    1.416   .     A
C712   C716    1.403   .     A
C713   C714    1.388   .     A
C713   C181    1.418   1_556 S
C713   C201    1.398   1_556 S
C714   C715    1.384   .     A
C714   H747    1.085   .     S
C715   H752    1.076   .     S
C716   H749    1.080   .     S
C716   C733    1.401   .     A
C717   C733    1.400   .     A
C717   C732    1.389   .     A
C717   H739    1.083   .     S
C718   C734    1.401   .     A
C718   C720    1.487   .     S
C719   H753    1.083   .     S
C719   C725    1.401   .     A
C719   C898    1.384   .     S
C720   O758    1.310   .     A
C720   O759    1.288   .     A
C721   H740    1.083   .     S
C721   C722    1.401   .     A
C722   C723    1.401   .     A
C722   C730    1.450   .     S
C723   H741    1.083   .     S
C724   H742    1.083   .     S
C724   C725    1.401   .     A
C724   C900    1.383   .     S
C726   H743    1.082   .     S
C726   N755    1.367   .     A
C726   C786    1.416   .     S
C727   N754    1.367   .     A
C727   H744    1.082   .     S
C727   C844    1.416   1_455 S
C728   H745    1.081   .     S
C728   N754    1.367   .     A
C728   C847    1.417   1_455 S
C729   H746    1.081   .     S
C729   N755    1.366   .     A
C729   C787    1.417   .     S
C730   O761    1.291   .     A
C730   O760    1.291   .     A
C731   O763    1.295   .     A
C731   C733    1.464   .     S
C731   O762    1.294   .     A
C734   C735    1.392   .     A
C734   H750    1.083   .     S
C735   C205    1.400   1_556 S
C735   H220    1.081   1_556 S
C736   C764    1.487   .     S
Cu737  N754    2.012   .     S
Cu737  Cu738   2.677   .     S
Cu737  O758    1.948   .     S
Cu737  O762    1.944   .     S
Cu737  O756    1.965   .     S
Cu737  O760    1.965   .     S
Cu738  O759    1.944   .     S
Cu738  O757    1.965   .     S
Cu738  O761    1.965   .     S
Cu738  N755    2.012   .     S
Cu738  O763    1.948   .     S
H748   C201    1.079   1_556 S
C764   O766    1.398   .     S
C764   O765    1.223   .     D
O766   H767    1.014   .     S
C768   O815    1.291   .     A
C768   C784    1.450   .     S
C768   O816    1.291   .     A
C769   C770    1.418   .     A
C769   C240    1.426   1_556 S
C769   C264    1.425   1_556 S
C770   C777    1.430   .     A
C770   C774    1.416   .     A
C771   C775    1.403   .     A
C772   C773    1.388   .     A
C772   C240    1.418   1_556 S
C772   C260    1.398   1_556 S
C773   C774    1.384   .     A
C773   H806    1.085   .     S
C774   H811    1.076   .     S
C775   H808    1.080   .     S
C775   C792    1.401   .     A
C776   C792    1.400   .     A
C776   C791    1.389   .     A
C776   H798    1.083   .     S
C777   C793    1.401   .     A
C777   C779    1.487   .     S
C778   H812    1.083   .     S
C778   C784    1.401   .     A
C778   C957    1.384   .     S
C779   O817    1.310   .     A
C779   O818    1.288   .     A
C780   H799    1.083   .     S
C780   C781    1.401   .     A
C781   C782    1.401   .     A
C781   C789    1.450   .     S
C782   H800    1.083   .     S
C783   H801    1.083   .     S
C783   C784    1.401   .     A
C783   C959    1.383   .     S
C785   H802    1.082   .     S
C785   N814    1.367   .     A
C785   C845    1.416   .     S
C786   N813    1.367   .     A
C786   H803    1.082   .     S
C787   H804    1.081   .     S
C787   N813    1.367   .     A
C788   H805    1.081   .     S
C788   N814    1.366   .     A
C788   C846    1.417   .     S
C789   O820    1.291   .     A
C789   O819    1.291   .     A
C790   O822    1.295   .     A
C790   C792    1.464   .     S
C790   O821    1.294   .     A
C793   C794    1.392   .     A
C793   H809    1.083   .     S
C794   C264    1.400   1_556 S
C794   H279    1.081   1_556 S
C795   C823    1.487   .     S
Cu796  N813    2.012   .     S
Cu796  Cu797   2.677   .     S
Cu796  O817    1.948   .     S
Cu796  O821    1.944   .     S
Cu796  O815    1.965   .     S
Cu796  O819    1.965   .     S
Cu797  O818    1.944   .     S
Cu797  O816    1.965   .     S
Cu797  O820    1.965   .     S
Cu797  N814    2.012   .     S
Cu797  O822    1.948   .     S
H807   C260    1.079   1_556 S
C823   O825    1.398   .     S
C823   O824    1.223   .     D
O825   H826    1.014   .     S
C827   O874    1.291   .     A
C827   C843    1.450   .     S
C827   O875    1.291   .     A
C828   C829    1.418   .     A
C828   C299    1.426   1_556 S
C828   C323    1.425   1_556 S
C829   C836    1.430   .     A
C829   C833    1.416   .     A
C830   C834    1.403   .     A
C831   C832    1.388   .     A
C831   C299    1.418   1_556 S
C831   C319    1.398   1_556 S
C832   C833    1.384   .     A
C832   H865    1.085   .     S
C833   H870    1.076   .     S
C834   H867    1.080   .     S
C834   C851    1.401   .     A
C835   C851    1.400   .     A
C835   C850    1.389   .     A
C835   H857    1.083   .     S
C836   C852    1.401   .     A
C836   C838    1.487   .     S
C837   H871    1.083   .     S
C837   C843    1.401   .     A
C837   C1016   1.384   .     S
C838   O876    1.310   .     A
C838   O877    1.288   .     A
C839   H858    1.083   .     S
C839   C840    1.401   .     A
C840   C841    1.401   .     A
C840   C848    1.450   .     S
C841   H859    1.083   .     S
C842   H860    1.083   .     S
C842   C843    1.401   .     A
C842   C1018   1.383   .     S
C844   H861    1.082   .     S
C844   N873    1.367   .     A
C844   C727    1.416   1_655 S
C845   N872    1.367   .     A
C845   H862    1.082   .     S
C846   H863    1.081   .     S
C846   N872    1.367   .     A
C847   H864    1.081   .     S
C847   N873    1.366   .     A
C847   C728    1.417   1_655 S
C848   O879    1.291   .     A
C848   O878    1.291   .     A
C849   O881    1.295   .     A
C849   C851    1.464   .     S
C849   O880    1.294   .     A
C852   C853    1.392   .     A
C852   H868    1.083   .     S
C853   C323    1.400   1_556 S
C853   H338    1.081   1_556 S
C854   C882    1.487   .     S
Cu855  N872    2.012   .     S
Cu855  Cu856   2.677   .     S
Cu855  O876    1.948   .     S
Cu855  O880    1.944   .     S
Cu855  O874    1.965   .     S
Cu855  O878    1.965   .     S
Cu856  O877    1.944   .     S
Cu856  O875    1.965   .     S
Cu856  O879    1.965   .     S
Cu856  N873    2.012   .     S
Cu856  O881    1.948   .     S
H866   C319    1.079   1_556 S
C882   O884    1.398   .     S
C882   O883    1.223   .     D
O884   H885    1.014   .     S
C886   O933    1.291   .     A
C886   C902    1.450   .     S
C886   O934    1.291   .     A
C887   C888    1.418   .     A
C887   C358    1.426   1_556 S
C887   C382    1.425   1_556 S
C888   C895    1.430   .     A
C888   C892    1.416   .     A
C889   C893    1.403   .     A
C890   C891    1.388   .     A
C890   C358    1.418   1_556 S
C890   C378    1.398   1_556 S
C891   C892    1.384   .     A
C891   H924    1.085   .     S
C892   H929    1.076   .     S
C893   H926    1.080   .     S
C893   C910    1.401   .     A
C894   C910    1.400   .     A
C894   C909    1.389   .     A
C894   H916    1.083   .     S
C895   C911    1.401   .     A
C895   C897    1.487   .     S
C896   H930    1.083   .     S
C896   C902    1.401   .     A
C896   C544    1.384   1_565 S
C897   O935    1.310   .     A
C897   O936    1.288   .     A
C898   H917    1.083   .     S
C898   C899    1.401   .     A
C899   C900    1.401   .     A
C899   C907    1.450   .     S
C900   H918    1.083   .     S
C901   H919    1.083   .     S
C901   C902    1.401   .     A
C901   C546    1.383   1_565 S
C903   H920    1.082   .     S
C903   N932    1.367   .     A
C903   C963    1.416   .     S
C904   N931    1.367   .     A
C904   H921    1.082   .     S
C904   C1021   1.416   1_455 S
C905   H922    1.081   .     S
C905   N931    1.367   .     A
C905   C1024   1.417   1_455 S
C906   H923    1.081   .     S
C906   N932    1.366   .     A
C906   C964    1.417   .     S
C907   O938    1.291   .     A
C907   O937    1.291   .     A
C908   O940    1.295   .     A
C908   C910    1.464   .     S
C908   O939    1.294   .     A
C911   C912    1.392   .     A
C911   H927    1.083   .     S
C912   C382    1.400   1_556 S
C912   H397    1.081   1_556 S
C913   C941    1.487   .     S
Cu914  N931    2.012   .     S
Cu914  Cu915   2.677   .     S
Cu914  O935    1.948   .     S
Cu914  O939    1.944   .     S
Cu914  O933    1.965   .     S
Cu914  O937    1.965   .     S
Cu915  O936    1.944   .     S
Cu915  O934    1.965   .     S
Cu915  O938    1.965   .     S
Cu915  N932    2.012   .     S
Cu915  O940    1.948   .     S
H925   C378    1.079   1_556 S
C941   O943    1.398   .     S
C941   O942    1.223   .     D
O943   H944    1.014   .     S
C945   O992    1.291   .     A
C945   C961    1.450   .     S
C945   O993    1.291   .     A
C946   C947    1.418   .     A
C946   C417    1.426   1_556 S
C946   C441    1.425   1_556 S
C947   C954    1.430   .     A
C947   C951    1.416   .     A
C948   C952    1.403   .     A
C949   C950    1.388   .     A
C949   C417    1.418   1_556 S
C949   C437    1.398   1_556 S
C950   C951    1.384   .     A
C950   H983    1.085   .     S
C951   H988    1.076   .     S
C952   H985    1.080   .     S
C952   C969    1.401   .     A
C953   C969    1.400   .     A
C953   C968    1.389   .     A
C953   H975    1.083   .     S
C954   C970    1.401   .     A
C954   C956    1.487   .     S
C955   H989    1.083   .     S
C955   C961    1.401   .     A
C955   C603    1.384   1_565 S
C956   O994    1.310   .     A
C956   O995    1.288   .     A
C957   H976    1.083   .     S
C957   C958    1.401   .     A
C958   C959    1.401   .     A
C958   C966    1.450   .     S
C959   H977    1.083   .     S
C960   H978    1.083   .     S
C960   C961    1.401   .     A
C960   C605    1.383   1_565 S
C962   H979    1.082   .     S
C962   N991    1.367   .     A
C962   C1022   1.416   .     S
C963   N990    1.367   .     A
C963   H980    1.082   .     S
C964   H981    1.081   .     S
C964   N990    1.367   .     A
C965   H982    1.081   .     S
C965   N991    1.366   .     A
C965   C1023   1.417   .     S
C966   O997    1.291   .     A
C966   O996    1.291   .     A
C967   O999    1.295   .     A
C967   C969    1.464   .     S
C967   O998    1.294   .     A
C970   C971    1.392   .     A
C970   H986    1.083   .     S
C971   C441    1.400   1_556 S
C971   H456    1.081   1_556 S
C972   C1000   1.487   .     S
Cu973  N990    2.012   .     S
Cu973  Cu974   2.677   .     S
Cu973  O994    1.948   .     S
Cu973  O998    1.944   .     S
Cu973  O992    1.965   .     S
Cu973  O996    1.965   .     S
Cu974  O995    1.944   .     S
Cu974  O993    1.965   .     S
Cu974  O997    1.965   .     S
Cu974  N991    2.012   .     S
Cu974  O999    1.948   .     S
H984   C437    1.079   1_556 S
C1000  O1002   1.398   .     S
C1000  O1001   1.223   .     D
O1002  H1003   1.014   .     S
C1004  O1051   1.291   .     A
C1004  C1020   1.450   .     S
C1004  O1052   1.291   .     A
C1005  C1006   1.418   .     A
C1005  C476    1.426   1_556 S
C1005  C500    1.425   1_556 S
C1006  C1013   1.430   .     A
C1006  C1010   1.416   .     A
C1007  C1011   1.403   .     A
C1008  C1009   1.388   .     A
C1008  C476    1.418   1_556 S
C1008  C496    1.398   1_556 S
C1009  C1010   1.384   .     A
C1009  H1042   1.085   .     S
C1010  H1047   1.076   .     S
C1011  H1044   1.080   .     S
C1011  C1028   1.401   .     A
C1012  C1028   1.400   .     A
C1012  C1027   1.389   .     A
C1012  H1034   1.083   .     S
C1013  C1029   1.401   .     A
C1013  C1015   1.487   .     S
C1014  H1048   1.083   .     S
C1014  C1020   1.401   .     A
C1014  C662    1.384   1_565 S
C1015  O1053   1.310   .     A
C1015  O1054   1.288   .     A
C1016  H1035   1.083   .     S
C1016  C1017   1.401   .     A
C1017  C1018   1.401   .     A
C1017  C1025   1.450   .     S
C1018  H1036   1.083   .     S
C1019  H1037   1.083   .     S
C1019  C1020   1.401   .     A
C1019  C664    1.383   1_565 S
C1021  H1038   1.082   .     S
C1021  N1050   1.367   .     A
C1021  C904    1.416   1_655 S
C1022  N1049   1.367   .     A
C1022  H1039   1.082   .     S
C1023  H1040   1.081   .     S
C1023  N1049   1.367   .     A
C1024  H1041   1.081   .     S
C1024  N1050   1.366   .     A
C1024  C905    1.417   1_655 S
C1025  O1056   1.291   .     A
C1025  O1055   1.291   .     A
C1026  O1058   1.295   .     A
C1026  C1028   1.464   .     S
C1026  O1057   1.294   .     A
C1029  C1030   1.392   .     A
C1029  H1045   1.083   .     S
C1030  C500    1.400   1_556 S
C1030  H515    1.081   1_556 S
C1031  C1059   1.487   .     S
Cu1032 N1049   2.012   .     S
Cu1032 Cu1033  2.677   .     S
Cu1032 O1053   1.948   .     S
Cu1032 O1057   1.944   .     S
Cu1032 O1051   1.965   .     S
Cu1032 O1055   1.965   .     S
Cu1033 O1054   1.944   .     S
Cu1033 O1052   1.965   .     S
Cu1033 O1056   1.965   .     S
Cu1033 N1050   2.012   .     S
Cu1033 O1058   1.948   .     S
H1043  C496    1.079   1_556 S
C1059  O1061   1.398   .     S
C1059  O1060   1.223   .     D
O1061  H1062   1.014   .     S
