data_str_m2_o1_o16_pcu_sym.150
_audit_creation_date              2020-01-03
_audit_creation_method            'Materials Studio'
_symmetry_space_group_name_H-M    'P1'
_symmetry_Int_Tables_number       1
_symmetry_cell_setting            triclinic
loop_
_symmetry_equiv_pos_as_xyz
  x,y,z
_cell_length_a                    28.4883
_cell_length_b                    32.6372
_cell_length_c                    26.7292
_cell_angle_alpha                 89.5904
_cell_angle_beta                  72.5876
_cell_angle_gamma                 89.0913
loop_
_atom_site_label
_atom_site_type_symbol
_atom_site_fract_x
_atom_site_fract_y
_atom_site_fract_z
_atom_site_U_iso_or_equiv
_atom_site_adp_type
_atom_site_occupancy
C1     C     0.16638   0.24600   0.24913   0.00000  Uiso   1.00
C2     C     0.14489   0.15726   0.49031   0.00000  Uiso   1.00
C3     C     0.15695   0.14905   0.43622   0.00000  Uiso   1.00
C4     C     0.18224   0.15295   0.01530   0.00000  Uiso   1.00
C5     C     0.22589   0.12978   0.49061   0.00000  Uiso   1.00
C6     C     0.23249   0.11379   0.43998   0.00000  Uiso   1.00
C7     C     0.19920   0.12506   0.41268   0.00000  Uiso   1.00
C8     C     0.17825   0.17235   0.06345   0.00000  Uiso   1.00
C9     C     0.24971   0.13460   0.07046   0.00000  Uiso   1.00
C10    C     0.12461   0.16262   0.40811   0.00000  Uiso   1.00
C11    C     0.20495   0.31049   0.25887   0.00000  Uiso   1.00
C12    C     0.14047   0.16479   0.35031   0.00000  Uiso   1.00
C13    C     0.20680   0.01944   0.25967   0.00000  Uiso   1.00
C14    C     0.16803   0.04272   0.25026   0.00000  Uiso   1.00
C15    C     0.12875   0.02283   0.23989   0.00000  Uiso   1.00
C16    C     0.12701   0.31386   0.23884   0.00000  Uiso   1.00
C17    C     0.16558   0.29059   0.24873   0.00000  Uiso   1.00
C18    C     0.29801   0.18902   0.28606   0.00000  Uiso   1.00
C19    C     0.01431   0.18893   0.28612   0.00000  Uiso   1.00
C20    C     0.03532   0.14433   0.21392   0.00000  Uiso   1.00
C21    C     0.31902   0.14441   0.21386   0.00000  Uiso   1.00
C22    C     0.16705   0.08733   0.25050   0.00000  Uiso   1.00
C23    C     0.19295   0.16617   0.14982   0.00000  Uiso   1.00
C24    C     0.26085   0.12257   0.01833   0.00000  Uiso   1.00
C25    C     0.20834   0.15911   0.09327   0.00000  Uiso   1.00
C26    C     0.07751   0.17721   0.43574   0.00000  Uiso   1.00
C27    C     0.06183   0.17802   0.49033   0.00000  Uiso   1.00
C28    C     0.09485   0.16553   0.01825   0.00000  Uiso   1.00
Cu29   Cu    0.11978   0.16666   0.25000   0.00000  Uiso   1.00
Cu30   Cu    0.21355   0.16667   0.25000   0.00000  Uiso   1.00
H31    H     0.27424   0.12547   0.09282   0.00000  Uiso   1.00
H32    H     0.09908   0.04026   0.23193   0.00000  Uiso   1.00
H33    H     0.27091   0.20702   0.31483   0.00000  Uiso   1.00
H34    H     0.02469   0.20684   0.31493   0.00000  Uiso   1.00
H35    H     0.06242   0.12631   0.18515   0.00000  Uiso   1.00
H36    H     0.30866   0.12651   0.18504   0.00000  Uiso   1.00
H37    H     0.05246   0.18812   0.41487   0.00000  Uiso   1.00
H38    H     0.20495   0.11229   0.37409   0.00000  Uiso   1.00
H39    H     0.23467   0.29308   0.26675   0.00000  Uiso   1.00
N40    N     0.04931   0.16666   0.24998   0.00000  Uiso   1.00
N41    N     0.28402   0.16669   0.24999   0.00000  Uiso   1.00
O42    O     0.12708   0.22678   0.25000   0.00000  Uiso   1.00
O43    O     0.20627   0.22679   0.25000   0.00000  Uiso   1.00
O44    O     0.10775   0.16665   0.32549   0.00000  Uiso   1.00
O45    O     0.18694   0.16666   0.32549   0.00000  Uiso   1.00
O46    O     0.12706   0.10654   0.24999   0.00000  Uiso   1.00
O47    O     0.20625   0.10655   0.24999   0.00000  Uiso   1.00
O48    O     0.14640   0.16667   0.17451   0.00000  Uiso   1.00
O49    O     0.22559   0.16668   0.17451   0.00000  Uiso   1.00
I50    I     0.26988   0.04268   0.27667   0.00000  Uiso   1.00
I51    I     0.06470   0.29045   0.22028   0.00000  Uiso   1.00
O52    O     0.27077   0.08667   0.41805   0.00000  Uiso   1.00
H53    H     0.27057   0.07926   0.38226   0.00000  Uiso   1.00
O54    O     0.30558   0.10333   0.49653   0.00000  Uiso   1.00
H55    H     0.32106   0.11701   0.46248   0.00000  Uiso   1.00
I56    I     0.14112   0.23054   0.08363   0.00000  Uiso   1.00
O57    O     0.07854   0.15708   0.07139   0.00000  Uiso   1.00
H58    H     0.04297   0.15101   0.08176   0.00000  Uiso   1.00
O59    O     0.01476   0.19237   0.01474   0.00000  Uiso   1.00
H60    H     0.01306   0.20238   0.05013   0.00000  Uiso   1.00
C61    C     0.49971   0.24600   0.24913   0.00000  Uiso   1.00
C62    C     0.47822   0.15726   0.49031   0.00000  Uiso   1.00
C63    C     0.49028   0.14905   0.43622   0.00000  Uiso   1.00
C64    C     0.51558   0.15295   0.01530   0.00000  Uiso   1.00
C65    C     0.55923   0.12978   0.49061   0.00000  Uiso   1.00
C66    C     0.56582   0.11379   0.43998   0.00000  Uiso   1.00
C67    C     0.53254   0.12506   0.41268   0.00000  Uiso   1.00
C68    C     0.51158   0.17235   0.06345   0.00000  Uiso   1.00
C69    C     0.58304   0.13460   0.07046   0.00000  Uiso   1.00
C70    C     0.45795   0.16262   0.40811   0.00000  Uiso   1.00
C71    C     0.53828   0.31049   0.25887   0.00000  Uiso   1.00
C72    C     0.47380   0.16479   0.35031   0.00000  Uiso   1.00
C73    C     0.54013   0.01944   0.25967   0.00000  Uiso   1.00
C74    C     0.50137   0.04272   0.25026   0.00000  Uiso   1.00
C75    C     0.46209   0.02283   0.23989   0.00000  Uiso   1.00
C76    C     0.46035   0.31386   0.23884   0.00000  Uiso   1.00
C77    C     0.49892   0.29059   0.24873   0.00000  Uiso   1.00
C78    C     0.63135   0.18902   0.28606   0.00000  Uiso   1.00
C79    C     0.34765   0.18893   0.28612   0.00000  Uiso   1.00
C80    C     0.36866   0.14433   0.21392   0.00000  Uiso   1.00
C81    C     0.65235   0.14441   0.21386   0.00000  Uiso   1.00
C82    C     0.50039   0.08733   0.25050   0.00000  Uiso   1.00
C83    C     0.52628   0.16617   0.14982   0.00000  Uiso   1.00
C84    C     0.59418   0.12257   0.01833   0.00000  Uiso   1.00
C85    C     0.54168   0.15911   0.09327   0.00000  Uiso   1.00
C86    C     0.41085   0.17721   0.43574   0.00000  Uiso   1.00
C87    C     0.39517   0.17802   0.49033   0.00000  Uiso   1.00
C88    C     0.42819   0.16553   0.01825   0.00000  Uiso   1.00
Cu89   Cu    0.45311   0.16666   0.25000   0.00000  Uiso   1.00
Cu90   Cu    0.54689   0.16667   0.25000   0.00000  Uiso   1.00
H91    H     0.60757   0.12547   0.09282   0.00000  Uiso   1.00
H92    H     0.43241   0.04026   0.23193   0.00000  Uiso   1.00
H93    H     0.60425   0.20702   0.31483   0.00000  Uiso   1.00
H94    H     0.35802   0.20684   0.31493   0.00000  Uiso   1.00
H95    H     0.39575   0.12631   0.18515   0.00000  Uiso   1.00
H96    H     0.64199   0.12651   0.18504   0.00000  Uiso   1.00
H97    H     0.38580   0.18812   0.41487   0.00000  Uiso   1.00
H98    H     0.53829   0.11229   0.37409   0.00000  Uiso   1.00
H99    H     0.56801   0.29308   0.26675   0.00000  Uiso   1.00
N100   N     0.38265   0.16666   0.24998   0.00000  Uiso   1.00
N101   N     0.61735   0.16669   0.24999   0.00000  Uiso   1.00
O102   O     0.46042   0.22678   0.25000   0.00000  Uiso   1.00
O103   O     0.53961   0.22679   0.25000   0.00000  Uiso   1.00
O104   O     0.44108   0.16665   0.32549   0.00000  Uiso   1.00
O105   O     0.52027   0.16666   0.32549   0.00000  Uiso   1.00
O106   O     0.46039   0.10654   0.24999   0.00000  Uiso   1.00
O107   O     0.53958   0.10655   0.24999   0.00000  Uiso   1.00
O108   O     0.47973   0.16667   0.17451   0.00000  Uiso   1.00
O109   O     0.55892   0.16668   0.17451   0.00000  Uiso   1.00
I110   I     0.60321   0.04268   0.27667   0.00000  Uiso   1.00
I111   I     0.39804   0.29045   0.22028   0.00000  Uiso   1.00
O112   O     0.60410   0.08667   0.41805   0.00000  Uiso   1.00
H113   H     0.60390   0.07926   0.38226   0.00000  Uiso   1.00
O114   O     0.63892   0.10333   0.49653   0.00000  Uiso   1.00
H115   H     0.65440   0.11701   0.46248   0.00000  Uiso   1.00
I116   I     0.47446   0.23054   0.08363   0.00000  Uiso   1.00
O117   O     0.41188   0.15708   0.07139   0.00000  Uiso   1.00
H118   H     0.37630   0.15101   0.08176   0.00000  Uiso   1.00
O119   O     0.34809   0.19237   0.01474   0.00000  Uiso   1.00
H120   H     0.34639   0.20238   0.05013   0.00000  Uiso   1.00
C121   C     0.83305   0.24600   0.24913   0.00000  Uiso   1.00
C122   C     0.81156   0.15726   0.49031   0.00000  Uiso   1.00
C123   C     0.82362   0.14905   0.43622   0.00000  Uiso   1.00
C124   C     0.84891   0.15295   0.01530   0.00000  Uiso   1.00
C125   C     0.89256   0.12978   0.49061   0.00000  Uiso   1.00
C126   C     0.89915   0.11379   0.43998   0.00000  Uiso   1.00
C127   C     0.86587   0.12506   0.41268   0.00000  Uiso   1.00
C128   C     0.84492   0.17235   0.06345   0.00000  Uiso   1.00
C129   C     0.91637   0.13460   0.07046   0.00000  Uiso   1.00
C130   C     0.79128   0.16262   0.40811   0.00000  Uiso   1.00
C131   C     0.87162   0.31049   0.25887   0.00000  Uiso   1.00
C132   C     0.80713   0.16479   0.35031   0.00000  Uiso   1.00
C133   C     0.87347   0.01944   0.25967   0.00000  Uiso   1.00
C134   C     0.83470   0.04272   0.25026   0.00000  Uiso   1.00
C135   C     0.79542   0.02283   0.23989   0.00000  Uiso   1.00
C136   C     0.79368   0.31386   0.23884   0.00000  Uiso   1.00
C137   C     0.83225   0.29059   0.24873   0.00000  Uiso   1.00
C138   C     0.96468   0.18902   0.28606   0.00000  Uiso   1.00
C139   C     0.68098   0.18893   0.28612   0.00000  Uiso   1.00
C140   C     0.70199   0.14433   0.21392   0.00000  Uiso   1.00
C141   C     0.98569   0.14441   0.21386   0.00000  Uiso   1.00
C142   C     0.83372   0.08733   0.25050   0.00000  Uiso   1.00
C143   C     0.85962   0.16617   0.14982   0.00000  Uiso   1.00
C144   C     0.92752   0.12257   0.01833   0.00000  Uiso   1.00
C145   C     0.87501   0.15911   0.09327   0.00000  Uiso   1.00
C146   C     0.74418   0.17721   0.43574   0.00000  Uiso   1.00
C147   C     0.72850   0.17802   0.49033   0.00000  Uiso   1.00
C148   C     0.76152   0.16553   0.01825   0.00000  Uiso   1.00
Cu149  Cu    0.78645   0.16666   0.25000   0.00000  Uiso   1.00
Cu150  Cu    0.88022   0.16667   0.25000   0.00000  Uiso   1.00
H151   H     0.94090   0.12547   0.09282   0.00000  Uiso   1.00
H152   H     0.76574   0.04026   0.23193   0.00000  Uiso   1.00
H153   H     0.93758   0.20702   0.31483   0.00000  Uiso   1.00
H154   H     0.69136   0.20684   0.31493   0.00000  Uiso   1.00
H155   H     0.72908   0.12631   0.18515   0.00000  Uiso   1.00
H156   H     0.97532   0.12651   0.18504   0.00000  Uiso   1.00
H157   H     0.71913   0.18812   0.41487   0.00000  Uiso   1.00
H158   H     0.87162   0.11229   0.37409   0.00000  Uiso   1.00
H159   H     0.90134   0.29308   0.26675   0.00000  Uiso   1.00
N160   N     0.71598   0.16666   0.24998   0.00000  Uiso   1.00
N161   N     0.95069   0.16669   0.24999   0.00000  Uiso   1.00
O162   O     0.79375   0.22678   0.25000   0.00000  Uiso   1.00
O163   O     0.87294   0.22679   0.25000   0.00000  Uiso   1.00
O164   O     0.77441   0.16665   0.32549   0.00000  Uiso   1.00
O165   O     0.85360   0.16666   0.32549   0.00000  Uiso   1.00
O166   O     0.79373   0.10654   0.24999   0.00000  Uiso   1.00
O167   O     0.87292   0.10655   0.24999   0.00000  Uiso   1.00
O168   O     0.81306   0.16667   0.17451   0.00000  Uiso   1.00
O169   O     0.89225   0.16668   0.17451   0.00000  Uiso   1.00
I170   I     0.93655   0.04268   0.27667   0.00000  Uiso   1.00
I171   I     0.73137   0.29045   0.22028   0.00000  Uiso   1.00
O172   O     0.93743   0.08667   0.41805   0.00000  Uiso   1.00
H173   H     0.93723   0.07926   0.38226   0.00000  Uiso   1.00
O174   O     0.97225   0.10333   0.49653   0.00000  Uiso   1.00
H175   H     0.98773   0.11701   0.46248   0.00000  Uiso   1.00
I176   I     0.80779   0.23054   0.08363   0.00000  Uiso   1.00
O177   O     0.74521   0.15708   0.07139   0.00000  Uiso   1.00
H178   H     0.70963   0.15101   0.08176   0.00000  Uiso   1.00
O179   O     0.68143   0.19237   0.01474   0.00000  Uiso   1.00
H180   H     0.67973   0.20238   0.05013   0.00000  Uiso   1.00
C181   C     0.16638   0.57933   0.24913   0.00000  Uiso   1.00
C182   C     0.14489   0.49059   0.49031   0.00000  Uiso   1.00
C183   C     0.15695   0.48238   0.43622   0.00000  Uiso   1.00
C184   C     0.18224   0.48628   0.01530   0.00000  Uiso   1.00
C185   C     0.22589   0.46311   0.49061   0.00000  Uiso   1.00
C186   C     0.23249   0.44712   0.43998   0.00000  Uiso   1.00
C187   C     0.19920   0.45839   0.41268   0.00000  Uiso   1.00
C188   C     0.17825   0.50569   0.06345   0.00000  Uiso   1.00
C189   C     0.24971   0.46793   0.07046   0.00000  Uiso   1.00
C190   C     0.12461   0.49595   0.40811   0.00000  Uiso   1.00
C191   C     0.20495   0.64382   0.25887   0.00000  Uiso   1.00
C192   C     0.14047   0.49813   0.35031   0.00000  Uiso   1.00
C193   C     0.20680   0.35277   0.25967   0.00000  Uiso   1.00
C194   C     0.16803   0.37606   0.25026   0.00000  Uiso   1.00
C195   C     0.12875   0.35616   0.23989   0.00000  Uiso   1.00
C196   C     0.12701   0.64719   0.23884   0.00000  Uiso   1.00
C197   C     0.16558   0.62392   0.24873   0.00000  Uiso   1.00
C198   C     0.29801   0.52235   0.28606   0.00000  Uiso   1.00
C199   C     0.01431   0.52226   0.28612   0.00000  Uiso   1.00
C200   C     0.03532   0.47766   0.21392   0.00000  Uiso   1.00
C201   C     0.31902   0.47775   0.21386   0.00000  Uiso   1.00
C202   C     0.16705   0.42066   0.25050   0.00000  Uiso   1.00
C203   C     0.19295   0.49951   0.14982   0.00000  Uiso   1.00
C204   C     0.26085   0.45590   0.01833   0.00000  Uiso   1.00
C205   C     0.20834   0.49245   0.09327   0.00000  Uiso   1.00
C206   C     0.07751   0.51055   0.43574   0.00000  Uiso   1.00
C207   C     0.06183   0.51135   0.49033   0.00000  Uiso   1.00
C208   C     0.09485   0.49886   0.01825   0.00000  Uiso   1.00
Cu209  Cu    0.11978   0.49999   0.25000   0.00000  Uiso   1.00
Cu210  Cu    0.21355   0.50001   0.25000   0.00000  Uiso   1.00
H211   H     0.27424   0.45880   0.09282   0.00000  Uiso   1.00
H212   H     0.09908   0.37359   0.23193   0.00000  Uiso   1.00
H213   H     0.27091   0.54036   0.31483   0.00000  Uiso   1.00
H214   H     0.02469   0.54017   0.31493   0.00000  Uiso   1.00
H215   H     0.06242   0.45964   0.18515   0.00000  Uiso   1.00
H216   H     0.30866   0.45984   0.18504   0.00000  Uiso   1.00
H217   H     0.05246   0.52146   0.41487   0.00000  Uiso   1.00
H218   H     0.20495   0.44562   0.37409   0.00000  Uiso   1.00
H219   H     0.23467   0.62641   0.26675   0.00000  Uiso   1.00
N220   N     0.04931   0.49999   0.24998   0.00000  Uiso   1.00
N221   N     0.28402   0.50002   0.24999   0.00000  Uiso   1.00
O222   O     0.12708   0.56011   0.25000   0.00000  Uiso   1.00
O223   O     0.20627   0.56012   0.25000   0.00000  Uiso   1.00
O224   O     0.10775   0.49998   0.32549   0.00000  Uiso   1.00
O225   O     0.18694   0.49999   0.32549   0.00000  Uiso   1.00
O226   O     0.12706   0.43988   0.24999   0.00000  Uiso   1.00
O227   O     0.20625   0.43989   0.24999   0.00000  Uiso   1.00
O228   O     0.14640   0.50001   0.17451   0.00000  Uiso   1.00
O229   O     0.22559   0.50002   0.17451   0.00000  Uiso   1.00
I230   I     0.26988   0.37602   0.27667   0.00000  Uiso   1.00
I231   I     0.06470   0.62378   0.22028   0.00000  Uiso   1.00
O232   O     0.27077   0.42001   0.41805   0.00000  Uiso   1.00
H233   H     0.27057   0.41260   0.38226   0.00000  Uiso   1.00
O234   O     0.30558   0.43667   0.49653   0.00000  Uiso   1.00
H235   H     0.32106   0.45035   0.46248   0.00000  Uiso   1.00
I236   I     0.14112   0.56388   0.08363   0.00000  Uiso   1.00
O237   O     0.07854   0.49042   0.07139   0.00000  Uiso   1.00
H238   H     0.04297   0.48434   0.08176   0.00000  Uiso   1.00
O239   O     0.01476   0.52570   0.01474   0.00000  Uiso   1.00
H240   H     0.01306   0.53571   0.05013   0.00000  Uiso   1.00
C241   C     0.49971   0.57933   0.24913   0.00000  Uiso   1.00
C242   C     0.47822   0.49059   0.49031   0.00000  Uiso   1.00
C243   C     0.49028   0.48238   0.43622   0.00000  Uiso   1.00
C244   C     0.51558   0.48628   0.01530   0.00000  Uiso   1.00
C245   C     0.55923   0.46311   0.49061   0.00000  Uiso   1.00
C246   C     0.56582   0.44712   0.43998   0.00000  Uiso   1.00
C247   C     0.53254   0.45839   0.41268   0.00000  Uiso   1.00
C248   C     0.51158   0.50569   0.06345   0.00000  Uiso   1.00
C249   C     0.58304   0.46793   0.07046   0.00000  Uiso   1.00
C250   C     0.45795   0.49595   0.40811   0.00000  Uiso   1.00
C251   C     0.53828   0.64382   0.25887   0.00000  Uiso   1.00
C252   C     0.47380   0.49813   0.35031   0.00000  Uiso   1.00
C253   C     0.54013   0.35277   0.25967   0.00000  Uiso   1.00
C254   C     0.50137   0.37606   0.25026   0.00000  Uiso   1.00
C255   C     0.46209   0.35616   0.23989   0.00000  Uiso   1.00
C256   C     0.46035   0.64719   0.23884   0.00000  Uiso   1.00
C257   C     0.49892   0.62392   0.24873   0.00000  Uiso   1.00
C258   C     0.63135   0.52235   0.28606   0.00000  Uiso   1.00
C259   C     0.34765   0.52226   0.28612   0.00000  Uiso   1.00
C260   C     0.36866   0.47766   0.21392   0.00000  Uiso   1.00
C261   C     0.65235   0.47775   0.21386   0.00000  Uiso   1.00
C262   C     0.50039   0.42066   0.25050   0.00000  Uiso   1.00
C263   C     0.52628   0.49951   0.14982   0.00000  Uiso   1.00
C264   C     0.59418   0.45590   0.01833   0.00000  Uiso   1.00
C265   C     0.54168   0.49245   0.09327   0.00000  Uiso   1.00
C266   C     0.41085   0.51055   0.43574   0.00000  Uiso   1.00
C267   C     0.39517   0.51135   0.49033   0.00000  Uiso   1.00
C268   C     0.42819   0.49886   0.01825   0.00000  Uiso   1.00
Cu269  Cu    0.45311   0.49999   0.25000   0.00000  Uiso   1.00
Cu270  Cu    0.54689   0.50001   0.25000   0.00000  Uiso   1.00
H271   H     0.60757   0.45880   0.09282   0.00000  Uiso   1.00
H272   H     0.43241   0.37359   0.23193   0.00000  Uiso   1.00
H273   H     0.60425   0.54036   0.31483   0.00000  Uiso   1.00
H274   H     0.35802   0.54017   0.31493   0.00000  Uiso   1.00
H275   H     0.39575   0.45964   0.18515   0.00000  Uiso   1.00
H276   H     0.64199   0.45984   0.18504   0.00000  Uiso   1.00
H277   H     0.38580   0.52146   0.41487   0.00000  Uiso   1.00
H278   H     0.53829   0.44562   0.37409   0.00000  Uiso   1.00
H279   H     0.56801   0.62641   0.26675   0.00000  Uiso   1.00
N280   N     0.38265   0.49999   0.24998   0.00000  Uiso   1.00
N281   N     0.61735   0.50002   0.24999   0.00000  Uiso   1.00
O282   O     0.46042   0.56011   0.25000   0.00000  Uiso   1.00
O283   O     0.53961   0.56012   0.25000   0.00000  Uiso   1.00
O284   O     0.44108   0.49998   0.32549   0.00000  Uiso   1.00
O285   O     0.52027   0.49999   0.32549   0.00000  Uiso   1.00
O286   O     0.46039   0.43988   0.24999   0.00000  Uiso   1.00
O287   O     0.53958   0.43989   0.24999   0.00000  Uiso   1.00
O288   O     0.47973   0.50001   0.17451   0.00000  Uiso   1.00
O289   O     0.55892   0.50002   0.17451   0.00000  Uiso   1.00
I290   I     0.60321   0.37602   0.27667   0.00000  Uiso   1.00
I291   I     0.39804   0.62378   0.22028   0.00000  Uiso   1.00
O292   O     0.60410   0.42001   0.41805   0.00000  Uiso   1.00
H293   H     0.60390   0.41260   0.38226   0.00000  Uiso   1.00
O294   O     0.63892   0.43667   0.49653   0.00000  Uiso   1.00
H295   H     0.65440   0.45035   0.46248   0.00000  Uiso   1.00
I296   I     0.47446   0.56388   0.08363   0.00000  Uiso   1.00
O297   O     0.41188   0.49042   0.07139   0.00000  Uiso   1.00
H298   H     0.37630   0.48434   0.08176   0.00000  Uiso   1.00
O299   O     0.34809   0.52570   0.01474   0.00000  Uiso   1.00
H300   H     0.34639   0.53571   0.05013   0.00000  Uiso   1.00
C301   C     0.83305   0.57933   0.24913   0.00000  Uiso   1.00
C302   C     0.81156   0.49059   0.49031   0.00000  Uiso   1.00
C303   C     0.82362   0.48238   0.43622   0.00000  Uiso   1.00
C304   C     0.84891   0.48628   0.01530   0.00000  Uiso   1.00
C305   C     0.89256   0.46311   0.49061   0.00000  Uiso   1.00
C306   C     0.89915   0.44712   0.43998   0.00000  Uiso   1.00
C307   C     0.86587   0.45839   0.41268   0.00000  Uiso   1.00
C308   C     0.84492   0.50569   0.06345   0.00000  Uiso   1.00
C309   C     0.91637   0.46793   0.07046   0.00000  Uiso   1.00
C310   C     0.79128   0.49595   0.40811   0.00000  Uiso   1.00
C311   C     0.87162   0.64382   0.25887   0.00000  Uiso   1.00
C312   C     0.80713   0.49813   0.35031   0.00000  Uiso   1.00
C313   C     0.87347   0.35277   0.25967   0.00000  Uiso   1.00
C314   C     0.83470   0.37606   0.25026   0.00000  Uiso   1.00
C315   C     0.79542   0.35616   0.23989   0.00000  Uiso   1.00
C316   C     0.79368   0.64719   0.23884   0.00000  Uiso   1.00
C317   C     0.83225   0.62392   0.24873   0.00000  Uiso   1.00
C318   C     0.96468   0.52235   0.28606   0.00000  Uiso   1.00
C319   C     0.68098   0.52226   0.28612   0.00000  Uiso   1.00
C320   C     0.70199   0.47766   0.21392   0.00000  Uiso   1.00
C321   C     0.98569   0.47775   0.21386   0.00000  Uiso   1.00
C322   C     0.83372   0.42066   0.25050   0.00000  Uiso   1.00
C323   C     0.85962   0.49951   0.14982   0.00000  Uiso   1.00
C324   C     0.92752   0.45590   0.01833   0.00000  Uiso   1.00
C325   C     0.87501   0.49245   0.09327   0.00000  Uiso   1.00
C326   C     0.74418   0.51055   0.43574   0.00000  Uiso   1.00
C327   C     0.72850   0.51135   0.49033   0.00000  Uiso   1.00
C328   C     0.76152   0.49886   0.01825   0.00000  Uiso   1.00
Cu329  Cu    0.78645   0.49999   0.25000   0.00000  Uiso   1.00
Cu330  Cu    0.88022   0.50001   0.25000   0.00000  Uiso   1.00
H331   H     0.94090   0.45880   0.09282   0.00000  Uiso   1.00
H332   H     0.76574   0.37359   0.23193   0.00000  Uiso   1.00
H333   H     0.93758   0.54036   0.31483   0.00000  Uiso   1.00
H334   H     0.69136   0.54017   0.31493   0.00000  Uiso   1.00
H335   H     0.72908   0.45964   0.18515   0.00000  Uiso   1.00
H336   H     0.97532   0.45984   0.18504   0.00000  Uiso   1.00
H337   H     0.71913   0.52146   0.41487   0.00000  Uiso   1.00
H338   H     0.87162   0.44562   0.37409   0.00000  Uiso   1.00
H339   H     0.90134   0.62641   0.26675   0.00000  Uiso   1.00
N340   N     0.71598   0.49999   0.24998   0.00000  Uiso   1.00
N341   N     0.95069   0.50002   0.24999   0.00000  Uiso   1.00
O342   O     0.79375   0.56011   0.25000   0.00000  Uiso   1.00
O343   O     0.87294   0.56012   0.25000   0.00000  Uiso   1.00
O344   O     0.77441   0.49998   0.32549   0.00000  Uiso   1.00
O345   O     0.85360   0.49999   0.32549   0.00000  Uiso   1.00
O346   O     0.79373   0.43988   0.24999   0.00000  Uiso   1.00
O347   O     0.87292   0.43989   0.24999   0.00000  Uiso   1.00
O348   O     0.81306   0.50001   0.17451   0.00000  Uiso   1.00
O349   O     0.89225   0.50002   0.17451   0.00000  Uiso   1.00
I350   I     0.93655   0.37602   0.27667   0.00000  Uiso   1.00
I351   I     0.73137   0.62378   0.22028   0.00000  Uiso   1.00
O352   O     0.93743   0.42001   0.41805   0.00000  Uiso   1.00
H353   H     0.93723   0.41260   0.38226   0.00000  Uiso   1.00
O354   O     0.97225   0.43667   0.49653   0.00000  Uiso   1.00
H355   H     0.98773   0.45035   0.46248   0.00000  Uiso   1.00
I356   I     0.80779   0.56388   0.08363   0.00000  Uiso   1.00
O357   O     0.74521   0.49042   0.07139   0.00000  Uiso   1.00
H358   H     0.70963   0.48434   0.08176   0.00000  Uiso   1.00
O359   O     0.68143   0.52570   0.01474   0.00000  Uiso   1.00
H360   H     0.67973   0.53571   0.05013   0.00000  Uiso   1.00
C361   C     0.16638   0.91266   0.24913   0.00000  Uiso   1.00
C362   C     0.14489   0.82392   0.49031   0.00000  Uiso   1.00
C363   C     0.15695   0.81572   0.43622   0.00000  Uiso   1.00
C364   C     0.18224   0.81962   0.01530   0.00000  Uiso   1.00
C365   C     0.22589   0.79645   0.49061   0.00000  Uiso   1.00
C366   C     0.23249   0.78045   0.43998   0.00000  Uiso   1.00
C367   C     0.19920   0.79173   0.41268   0.00000  Uiso   1.00
C368   C     0.17825   0.83902   0.06345   0.00000  Uiso   1.00
C369   C     0.24971   0.80126   0.07046   0.00000  Uiso   1.00
C370   C     0.12461   0.82928   0.40811   0.00000  Uiso   1.00
C371   C     0.20495   0.97715   0.25887   0.00000  Uiso   1.00
C372   C     0.14047   0.83146   0.35031   0.00000  Uiso   1.00
C373   C     0.20680   0.68610   0.25967   0.00000  Uiso   1.00
C374   C     0.16803   0.70939   0.25026   0.00000  Uiso   1.00
C375   C     0.12875   0.68950   0.23989   0.00000  Uiso   1.00
C376   C     0.12701   0.98052   0.23884   0.00000  Uiso   1.00
C377   C     0.16558   0.95726   0.24873   0.00000  Uiso   1.00
C378   C     0.29801   0.85568   0.28606   0.00000  Uiso   1.00
C379   C     0.01431   0.85559   0.28612   0.00000  Uiso   1.00
C380   C     0.03532   0.81100   0.21392   0.00000  Uiso   1.00
C381   C     0.31902   0.81108   0.21386   0.00000  Uiso   1.00
C382   C     0.16705   0.75399   0.25050   0.00000  Uiso   1.00
C383   C     0.19295   0.83284   0.14982   0.00000  Uiso   1.00
C384   C     0.26085   0.78923   0.01833   0.00000  Uiso   1.00
C385   C     0.20834   0.82578   0.09327   0.00000  Uiso   1.00
C386   C     0.07751   0.84388   0.43574   0.00000  Uiso   1.00
C387   C     0.06183   0.84469   0.49033   0.00000  Uiso   1.00
C388   C     0.09485   0.83220   0.01825   0.00000  Uiso   1.00
Cu389  Cu    0.11978   0.83333   0.25000   0.00000  Uiso   1.00
Cu390  Cu    0.21355   0.83334   0.25000   0.00000  Uiso   1.00
H391   H     0.27424   0.79214   0.09282   0.00000  Uiso   1.00
H392   H     0.09908   0.70692   0.23193   0.00000  Uiso   1.00
H393   H     0.27091   0.87369   0.31483   0.00000  Uiso   1.00
H394   H     0.02469   0.87350   0.31493   0.00000  Uiso   1.00
H395   H     0.06242   0.79298   0.18515   0.00000  Uiso   1.00
H396   H     0.30866   0.79318   0.18504   0.00000  Uiso   1.00
H397   H     0.05246   0.85479   0.41487   0.00000  Uiso   1.00
H398   H     0.20495   0.77895   0.37409   0.00000  Uiso   1.00
H399   H     0.23467   0.95975   0.26675   0.00000  Uiso   1.00
N400   N     0.04931   0.83332   0.24998   0.00000  Uiso   1.00
N401   N     0.28402   0.83335   0.24999   0.00000  Uiso   1.00
O402   O     0.12708   0.89345   0.25000   0.00000  Uiso   1.00
O403   O     0.20627   0.89346   0.25000   0.00000  Uiso   1.00
O404   O     0.10775   0.83332   0.32549   0.00000  Uiso   1.00
O405   O     0.18694   0.83333   0.32549   0.00000  Uiso   1.00
O406   O     0.12706   0.77321   0.24999   0.00000  Uiso   1.00
O407   O     0.20625   0.77322   0.24999   0.00000  Uiso   1.00
O408   O     0.14640   0.83334   0.17451   0.00000  Uiso   1.00
O409   O     0.22559   0.83335   0.17451   0.00000  Uiso   1.00
I410   I     0.26988   0.70935   0.27667   0.00000  Uiso   1.00
I411   I     0.06470   0.95711   0.22028   0.00000  Uiso   1.00
O412   O     0.27077   0.75334   0.41805   0.00000  Uiso   1.00
H413   H     0.27057   0.74593   0.38226   0.00000  Uiso   1.00
O414   O     0.30558   0.77000   0.49653   0.00000  Uiso   1.00
H415   H     0.32106   0.78368   0.46248   0.00000  Uiso   1.00
I416   I     0.14112   0.89721   0.08363   0.00000  Uiso   1.00
O417   O     0.07854   0.82375   0.07139   0.00000  Uiso   1.00
H418   H     0.04297   0.81767   0.08176   0.00000  Uiso   1.00
O419   O     0.01476   0.85904   0.01474   0.00000  Uiso   1.00
H420   H     0.01306   0.86905   0.05013   0.00000  Uiso   1.00
C421   C     0.49971   0.91266   0.24913   0.00000  Uiso   1.00
C422   C     0.47822   0.82392   0.49031   0.00000  Uiso   1.00
C423   C     0.49028   0.81572   0.43622   0.00000  Uiso   1.00
C424   C     0.51558   0.81962   0.01530   0.00000  Uiso   1.00
C425   C     0.55923   0.79645   0.49061   0.00000  Uiso   1.00
C426   C     0.56582   0.78045   0.43998   0.00000  Uiso   1.00
C427   C     0.53254   0.79173   0.41268   0.00000  Uiso   1.00
C428   C     0.51158   0.83902   0.06345   0.00000  Uiso   1.00
C429   C     0.58304   0.80126   0.07046   0.00000  Uiso   1.00
C430   C     0.45795   0.82928   0.40811   0.00000  Uiso   1.00
C431   C     0.53828   0.97715   0.25887   0.00000  Uiso   1.00
C432   C     0.47380   0.83146   0.35031   0.00000  Uiso   1.00
C433   C     0.54013   0.68610   0.25967   0.00000  Uiso   1.00
C434   C     0.50137   0.70939   0.25026   0.00000  Uiso   1.00
C435   C     0.46209   0.68950   0.23989   0.00000  Uiso   1.00
C436   C     0.46035   0.98052   0.23884   0.00000  Uiso   1.00
C437   C     0.49892   0.95726   0.24873   0.00000  Uiso   1.00
C438   C     0.63135   0.85568   0.28606   0.00000  Uiso   1.00
C439   C     0.34765   0.85559   0.28612   0.00000  Uiso   1.00
C440   C     0.36866   0.81100   0.21392   0.00000  Uiso   1.00
C441   C     0.65235   0.81108   0.21386   0.00000  Uiso   1.00
C442   C     0.50039   0.75399   0.25050   0.00000  Uiso   1.00
C443   C     0.52628   0.83284   0.14982   0.00000  Uiso   1.00
C444   C     0.59418   0.78923   0.01833   0.00000  Uiso   1.00
C445   C     0.54168   0.82578   0.09327   0.00000  Uiso   1.00
C446   C     0.41085   0.84388   0.43574   0.00000  Uiso   1.00
C447   C     0.39517   0.84469   0.49033   0.00000  Uiso   1.00
C448   C     0.42819   0.83220   0.01825   0.00000  Uiso   1.00
Cu449  Cu    0.45311   0.83333   0.25000   0.00000  Uiso   1.00
Cu450  Cu    0.54689   0.83334   0.25000   0.00000  Uiso   1.00
H451   H     0.60757   0.79214   0.09282   0.00000  Uiso   1.00
H452   H     0.43241   0.70692   0.23193   0.00000  Uiso   1.00
H453   H     0.60425   0.87369   0.31483   0.00000  Uiso   1.00
H454   H     0.35802   0.87350   0.31493   0.00000  Uiso   1.00
H455   H     0.39575   0.79298   0.18515   0.00000  Uiso   1.00
H456   H     0.64199   0.79318   0.18504   0.00000  Uiso   1.00
H457   H     0.38580   0.85479   0.41487   0.00000  Uiso   1.00
H458   H     0.53829   0.77895   0.37409   0.00000  Uiso   1.00
H459   H     0.56801   0.95975   0.26675   0.00000  Uiso   1.00
N460   N     0.38265   0.83332   0.24998   0.00000  Uiso   1.00
N461   N     0.61735   0.83335   0.24999   0.00000  Uiso   1.00
O462   O     0.46042   0.89345   0.25000   0.00000  Uiso   1.00
O463   O     0.53961   0.89346   0.25000   0.00000  Uiso   1.00
O464   O     0.44108   0.83332   0.32549   0.00000  Uiso   1.00
O465   O     0.52027   0.83333   0.32549   0.00000  Uiso   1.00
O466   O     0.46039   0.77321   0.24999   0.00000  Uiso   1.00
O467   O     0.53958   0.77322   0.24999   0.00000  Uiso   1.00
O468   O     0.47973   0.83334   0.17451   0.00000  Uiso   1.00
O469   O     0.55892   0.83335   0.17451   0.00000  Uiso   1.00
I470   I     0.60321   0.70935   0.27667   0.00000  Uiso   1.00
I471   I     0.39804   0.95711   0.22028   0.00000  Uiso   1.00
O472   O     0.60410   0.75334   0.41805   0.00000  Uiso   1.00
H473   H     0.60390   0.74593   0.38226   0.00000  Uiso   1.00
O474   O     0.63892   0.77000   0.49653   0.00000  Uiso   1.00
H475   H     0.65440   0.78368   0.46248   0.00000  Uiso   1.00
I476   I     0.47446   0.89721   0.08363   0.00000  Uiso   1.00
O477   O     0.41188   0.82375   0.07139   0.00000  Uiso   1.00
H478   H     0.37630   0.81767   0.08176   0.00000  Uiso   1.00
O479   O     0.34809   0.85904   0.01474   0.00000  Uiso   1.00
H480   H     0.34639   0.86905   0.05013   0.00000  Uiso   1.00
C481   C     0.83305   0.91266   0.24913   0.00000  Uiso   1.00
C482   C     0.81156   0.82392   0.49031   0.00000  Uiso   1.00
C483   C     0.82362   0.81572   0.43622   0.00000  Uiso   1.00
C484   C     0.84891   0.81962   0.01530   0.00000  Uiso   1.00
C485   C     0.89256   0.79645   0.49061   0.00000  Uiso   1.00
C486   C     0.89915   0.78045   0.43998   0.00000  Uiso   1.00
C487   C     0.86587   0.79173   0.41268   0.00000  Uiso   1.00
C488   C     0.84492   0.83902   0.06345   0.00000  Uiso   1.00
C489   C     0.91637   0.80126   0.07046   0.00000  Uiso   1.00
C490   C     0.79128   0.82928   0.40811   0.00000  Uiso   1.00
C491   C     0.87162   0.97715   0.25887   0.00000  Uiso   1.00
C492   C     0.80713   0.83146   0.35031   0.00000  Uiso   1.00
C493   C     0.87347   0.68610   0.25967   0.00000  Uiso   1.00
C494   C     0.83470   0.70939   0.25026   0.00000  Uiso   1.00
C495   C     0.79542   0.68950   0.23989   0.00000  Uiso   1.00
C496   C     0.79368   0.98052   0.23884   0.00000  Uiso   1.00
C497   C     0.83225   0.95726   0.24873   0.00000  Uiso   1.00
C498   C     0.96468   0.85568   0.28606   0.00000  Uiso   1.00
C499   C     0.68098   0.85559   0.28612   0.00000  Uiso   1.00
C500   C     0.70199   0.81100   0.21392   0.00000  Uiso   1.00
C501   C     0.98569   0.81108   0.21386   0.00000  Uiso   1.00
C502   C     0.83372   0.75399   0.25050   0.00000  Uiso   1.00
C503   C     0.85962   0.83284   0.14982   0.00000  Uiso   1.00
C504   C     0.92752   0.78923   0.01833   0.00000  Uiso   1.00
C505   C     0.87501   0.82578   0.09327   0.00000  Uiso   1.00
C506   C     0.74418   0.84388   0.43574   0.00000  Uiso   1.00
C507   C     0.72850   0.84469   0.49033   0.00000  Uiso   1.00
C508   C     0.76152   0.83220   0.01825   0.00000  Uiso   1.00
Cu509  Cu    0.78645   0.83333   0.25000   0.00000  Uiso   1.00
Cu510  Cu    0.88022   0.83334   0.25000   0.00000  Uiso   1.00
H511   H     0.94090   0.79214   0.09282   0.00000  Uiso   1.00
H512   H     0.76574   0.70692   0.23193   0.00000  Uiso   1.00
H513   H     0.93758   0.87369   0.31483   0.00000  Uiso   1.00
H514   H     0.69136   0.87350   0.31493   0.00000  Uiso   1.00
H515   H     0.72908   0.79298   0.18515   0.00000  Uiso   1.00
H516   H     0.97532   0.79318   0.18504   0.00000  Uiso   1.00
H517   H     0.71913   0.85479   0.41487   0.00000  Uiso   1.00
H518   H     0.87162   0.77895   0.37409   0.00000  Uiso   1.00
H519   H     0.90134   0.95975   0.26675   0.00000  Uiso   1.00
N520   N     0.71598   0.83332   0.24998   0.00000  Uiso   1.00
N521   N     0.95069   0.83335   0.24999   0.00000  Uiso   1.00
O522   O     0.79375   0.89345   0.25000   0.00000  Uiso   1.00
O523   O     0.87294   0.89346   0.25000   0.00000  Uiso   1.00
O524   O     0.77441   0.83332   0.32549   0.00000  Uiso   1.00
O525   O     0.85360   0.83333   0.32549   0.00000  Uiso   1.00
O526   O     0.79373   0.77321   0.24999   0.00000  Uiso   1.00
O527   O     0.87292   0.77322   0.24999   0.00000  Uiso   1.00
O528   O     0.81306   0.83334   0.17451   0.00000  Uiso   1.00
O529   O     0.89225   0.83335   0.17451   0.00000  Uiso   1.00
I530   I     0.93655   0.70935   0.27667   0.00000  Uiso   1.00
I531   I     0.73137   0.95711   0.22028   0.00000  Uiso   1.00
O532   O     0.93743   0.75334   0.41805   0.00000  Uiso   1.00
H533   H     0.93723   0.74593   0.38226   0.00000  Uiso   1.00
O534   O     0.97225   0.77000   0.49653   0.00000  Uiso   1.00
H535   H     0.98773   0.78368   0.46248   0.00000  Uiso   1.00
I536   I     0.80779   0.89721   0.08363   0.00000  Uiso   1.00
O537   O     0.74521   0.82375   0.07139   0.00000  Uiso   1.00
H538   H     0.70963   0.81767   0.08176   0.00000  Uiso   1.00
O539   O     0.68143   0.85904   0.01474   0.00000  Uiso   1.00
H540   H     0.67973   0.86905   0.05013   0.00000  Uiso   1.00
C541   C     0.16638   0.24600   0.74913   0.00000  Uiso   1.00
C542   C     0.14489   0.15726   0.99031   0.00000  Uiso   1.00
C543   C     0.15695   0.14905   0.93622   0.00000  Uiso   1.00
C544   C     0.18224   0.15295   0.51530   0.00000  Uiso   1.00
C545   C     0.22589   0.12978   0.99061   0.00000  Uiso   1.00
C546   C     0.23249   0.11379   0.93998   0.00000  Uiso   1.00
C547   C     0.19920   0.12506   0.91268   0.00000  Uiso   1.00
C548   C     0.17825   0.17235   0.56345   0.00000  Uiso   1.00
C549   C     0.24971   0.13460   0.57046   0.00000  Uiso   1.00
C550   C     0.12461   0.16262   0.90811   0.00000  Uiso   1.00
C551   C     0.20495   0.31049   0.75887   0.00000  Uiso   1.00
C552   C     0.14047   0.16479   0.85031   0.00000  Uiso   1.00
C553   C     0.20680   0.01944   0.75967   0.00000  Uiso   1.00
C554   C     0.16803   0.04272   0.75026   0.00000  Uiso   1.00
C555   C     0.12875   0.02283   0.73989   0.00000  Uiso   1.00
C556   C     0.12701   0.31386   0.73884   0.00000  Uiso   1.00
C557   C     0.16558   0.29059   0.74873   0.00000  Uiso   1.00
C558   C     0.29801   0.18902   0.78606   0.00000  Uiso   1.00
C559   C     0.01431   0.18893   0.78612   0.00000  Uiso   1.00
C560   C     0.03532   0.14433   0.71392   0.00000  Uiso   1.00
C561   C     0.31902   0.14441   0.71386   0.00000  Uiso   1.00
C562   C     0.16705   0.08733   0.75050   0.00000  Uiso   1.00
C563   C     0.19295   0.16617   0.64982   0.00000  Uiso   1.00
C564   C     0.26085   0.12257   0.51833   0.00000  Uiso   1.00
C565   C     0.20834   0.15911   0.59327   0.00000  Uiso   1.00
C566   C     0.07751   0.17721   0.93574   0.00000  Uiso   1.00
C567   C     0.06183   0.17802   0.99033   0.00000  Uiso   1.00
C568   C     0.09485   0.16553   0.51825   0.00000  Uiso   1.00
Cu569  Cu    0.11978   0.16666   0.75000   0.00000  Uiso   1.00
Cu570  Cu    0.21355   0.16667   0.75000   0.00000  Uiso   1.00
H571   H     0.27424   0.12547   0.59282   0.00000  Uiso   1.00
H572   H     0.09908   0.04026   0.73193   0.00000  Uiso   1.00
H573   H     0.27091   0.20702   0.81483   0.00000  Uiso   1.00
H574   H     0.02469   0.20684   0.81493   0.00000  Uiso   1.00
H575   H     0.06242   0.12631   0.68515   0.00000  Uiso   1.00
H576   H     0.30866   0.12651   0.68504   0.00000  Uiso   1.00
H577   H     0.05246   0.18812   0.91487   0.00000  Uiso   1.00
H578   H     0.20495   0.11229   0.87409   0.00000  Uiso   1.00
H579   H     0.23467   0.29308   0.76675   0.00000  Uiso   1.00
N580   N     0.04931   0.16666   0.74998   0.00000  Uiso   1.00
N581   N     0.28402   0.16669   0.74999   0.00000  Uiso   1.00
O582   O     0.12708   0.22678   0.75000   0.00000  Uiso   1.00
O583   O     0.20627   0.22679   0.75000   0.00000  Uiso   1.00
O584   O     0.10775   0.16665   0.82549   0.00000  Uiso   1.00
O585   O     0.18694   0.16666   0.82549   0.00000  Uiso   1.00
O586   O     0.12706   0.10654   0.74999   0.00000  Uiso   1.00
O587   O     0.20625   0.10655   0.74999   0.00000  Uiso   1.00
O588   O     0.14640   0.16667   0.67451   0.00000  Uiso   1.00
O589   O     0.22559   0.16668   0.67451   0.00000  Uiso   1.00
I590   I     0.26988   0.04268   0.77667   0.00000  Uiso   1.00
I591   I     0.06470   0.29045   0.72028   0.00000  Uiso   1.00
O592   O     0.27077   0.08667   0.91805   0.00000  Uiso   1.00
H593   H     0.27057   0.07926   0.88226   0.00000  Uiso   1.00
O594   O     0.30558   0.10333   0.99653   0.00000  Uiso   1.00
H595   H     0.32106   0.11701   0.96248   0.00000  Uiso   1.00
I596   I     0.14112   0.23054   0.58363   0.00000  Uiso   1.00
O597   O     0.07854   0.15708   0.57139   0.00000  Uiso   1.00
H598   H     0.04297   0.15101   0.58176   0.00000  Uiso   1.00
O599   O     0.01476   0.19237   0.51474   0.00000  Uiso   1.00
H600   H     0.01306   0.20238   0.55013   0.00000  Uiso   1.00
C601   C     0.49971   0.24600   0.74913   0.00000  Uiso   1.00
C602   C     0.47822   0.15726   0.99031   0.00000  Uiso   1.00
C603   C     0.49028   0.14905   0.93622   0.00000  Uiso   1.00
C604   C     0.51558   0.15295   0.51530   0.00000  Uiso   1.00
C605   C     0.55923   0.12978   0.99061   0.00000  Uiso   1.00
C606   C     0.56582   0.11379   0.93998   0.00000  Uiso   1.00
C607   C     0.53254   0.12506   0.91268   0.00000  Uiso   1.00
C608   C     0.51158   0.17235   0.56345   0.00000  Uiso   1.00
C609   C     0.58304   0.13460   0.57046   0.00000  Uiso   1.00
C610   C     0.45795   0.16262   0.90811   0.00000  Uiso   1.00
C611   C     0.53828   0.31049   0.75887   0.00000  Uiso   1.00
C612   C     0.47380   0.16479   0.85031   0.00000  Uiso   1.00
C613   C     0.54013   0.01944   0.75967   0.00000  Uiso   1.00
C614   C     0.50137   0.04272   0.75026   0.00000  Uiso   1.00
C615   C     0.46209   0.02283   0.73989   0.00000  Uiso   1.00
C616   C     0.46035   0.31386   0.73884   0.00000  Uiso   1.00
C617   C     0.49892   0.29059   0.74873   0.00000  Uiso   1.00
C618   C     0.63135   0.18902   0.78606   0.00000  Uiso   1.00
C619   C     0.34765   0.18893   0.78612   0.00000  Uiso   1.00
C620   C     0.36866   0.14433   0.71392   0.00000  Uiso   1.00
C621   C     0.65235   0.14441   0.71386   0.00000  Uiso   1.00
C622   C     0.50039   0.08733   0.75050   0.00000  Uiso   1.00
C623   C     0.52628   0.16617   0.64982   0.00000  Uiso   1.00
C624   C     0.59418   0.12257   0.51833   0.00000  Uiso   1.00
C625   C     0.54168   0.15911   0.59327   0.00000  Uiso   1.00
C626   C     0.41085   0.17721   0.93574   0.00000  Uiso   1.00
C627   C     0.39517   0.17802   0.99033   0.00000  Uiso   1.00
C628   C     0.42819   0.16553   0.51825   0.00000  Uiso   1.00
Cu629  Cu    0.45311   0.16666   0.75000   0.00000  Uiso   1.00
Cu630  Cu    0.54689   0.16667   0.75000   0.00000  Uiso   1.00
H631   H     0.60757   0.12547   0.59282   0.00000  Uiso   1.00
H632   H     0.43241   0.04026   0.73193   0.00000  Uiso   1.00
H633   H     0.60425   0.20702   0.81483   0.00000  Uiso   1.00
H634   H     0.35802   0.20684   0.81493   0.00000  Uiso   1.00
H635   H     0.39575   0.12631   0.68515   0.00000  Uiso   1.00
H636   H     0.64199   0.12651   0.68504   0.00000  Uiso   1.00
H637   H     0.38580   0.18812   0.91487   0.00000  Uiso   1.00
H638   H     0.53829   0.11229   0.87409   0.00000  Uiso   1.00
H639   H     0.56801   0.29308   0.76675   0.00000  Uiso   1.00
N640   N     0.38265   0.16666   0.74998   0.00000  Uiso   1.00
N641   N     0.61735   0.16669   0.74999   0.00000  Uiso   1.00
O642   O     0.46042   0.22678   0.75000   0.00000  Uiso   1.00
O643   O     0.53961   0.22679   0.75000   0.00000  Uiso   1.00
O644   O     0.44108   0.16665   0.82549   0.00000  Uiso   1.00
O645   O     0.52027   0.16666   0.82549   0.00000  Uiso   1.00
O646   O     0.46039   0.10654   0.74999   0.00000  Uiso   1.00
O647   O     0.53958   0.10655   0.74999   0.00000  Uiso   1.00
O648   O     0.47973   0.16667   0.67451   0.00000  Uiso   1.00
O649   O     0.55892   0.16668   0.67451   0.00000  Uiso   1.00
I650   I     0.60321   0.04268   0.77667   0.00000  Uiso   1.00
I651   I     0.39804   0.29045   0.72028   0.00000  Uiso   1.00
O652   O     0.60410   0.08667   0.91805   0.00000  Uiso   1.00
H653   H     0.60390   0.07926   0.88226   0.00000  Uiso   1.00
O654   O     0.63892   0.10333   0.99653   0.00000  Uiso   1.00
H655   H     0.65440   0.11701   0.96248   0.00000  Uiso   1.00
I656   I     0.47446   0.23054   0.58363   0.00000  Uiso   1.00
O657   O     0.41188   0.15708   0.57139   0.00000  Uiso   1.00
H658   H     0.37630   0.15101   0.58176   0.00000  Uiso   1.00
O659   O     0.34809   0.19237   0.51474   0.00000  Uiso   1.00
H660   H     0.34639   0.20238   0.55013   0.00000  Uiso   1.00
C661   C     0.83305   0.24600   0.74913   0.00000  Uiso   1.00
C662   C     0.81156   0.15726   0.99031   0.00000  Uiso   1.00
C663   C     0.82362   0.14905   0.93622   0.00000  Uiso   1.00
C664   C     0.84891   0.15295   0.51530   0.00000  Uiso   1.00
C665   C     0.89256   0.12978   0.99061   0.00000  Uiso   1.00
C666   C     0.89915   0.11379   0.93998   0.00000  Uiso   1.00
C667   C     0.86587   0.12506   0.91268   0.00000  Uiso   1.00
C668   C     0.84492   0.17235   0.56345   0.00000  Uiso   1.00
C669   C     0.91637   0.13460   0.57046   0.00000  Uiso   1.00
C670   C     0.79128   0.16262   0.90811   0.00000  Uiso   1.00
C671   C     0.87162   0.31049   0.75887   0.00000  Uiso   1.00
C672   C     0.80713   0.16479   0.85031   0.00000  Uiso   1.00
C673   C     0.87347   0.01944   0.75967   0.00000  Uiso   1.00
C674   C     0.83470   0.04272   0.75026   0.00000  Uiso   1.00
C675   C     0.79542   0.02283   0.73989   0.00000  Uiso   1.00
C676   C     0.79368   0.31386   0.73884   0.00000  Uiso   1.00
C677   C     0.83225   0.29059   0.74873   0.00000  Uiso   1.00
C678   C     0.96468   0.18902   0.78606   0.00000  Uiso   1.00
C679   C     0.68098   0.18893   0.78612   0.00000  Uiso   1.00
C680   C     0.70199   0.14433   0.71392   0.00000  Uiso   1.00
C681   C     0.98569   0.14441   0.71386   0.00000  Uiso   1.00
C682   C     0.83372   0.08733   0.75050   0.00000  Uiso   1.00
C683   C     0.85962   0.16617   0.64982   0.00000  Uiso   1.00
C684   C     0.92752   0.12257   0.51833   0.00000  Uiso   1.00
C685   C     0.87501   0.15911   0.59327   0.00000  Uiso   1.00
C686   C     0.74418   0.17721   0.93574   0.00000  Uiso   1.00
C687   C     0.72850   0.17802   0.99033   0.00000  Uiso   1.00
C688   C     0.76152   0.16553   0.51825   0.00000  Uiso   1.00
Cu689  Cu    0.78645   0.16666   0.75000   0.00000  Uiso   1.00
Cu690  Cu    0.88022   0.16667   0.75000   0.00000  Uiso   1.00
H691   H     0.94090   0.12547   0.59282   0.00000  Uiso   1.00
H692   H     0.76574   0.04026   0.73193   0.00000  Uiso   1.00
H693   H     0.93758   0.20702   0.81483   0.00000  Uiso   1.00
H694   H     0.69136   0.20684   0.81493   0.00000  Uiso   1.00
H695   H     0.72908   0.12631   0.68515   0.00000  Uiso   1.00
H696   H     0.97532   0.12651   0.68504   0.00000  Uiso   1.00
H697   H     0.71913   0.18812   0.91487   0.00000  Uiso   1.00
H698   H     0.87162   0.11229   0.87409   0.00000  Uiso   1.00
H699   H     0.90134   0.29308   0.76675   0.00000  Uiso   1.00
N700   N     0.71598   0.16666   0.74998   0.00000  Uiso   1.00
N701   N     0.95069   0.16669   0.74999   0.00000  Uiso   1.00
O702   O     0.79375   0.22678   0.75000   0.00000  Uiso   1.00
O703   O     0.87294   0.22679   0.75000   0.00000  Uiso   1.00
O704   O     0.77441   0.16665   0.82549   0.00000  Uiso   1.00
O705   O     0.85360   0.16666   0.82549   0.00000  Uiso   1.00
O706   O     0.79373   0.10654   0.74999   0.00000  Uiso   1.00
O707   O     0.87292   0.10655   0.74999   0.00000  Uiso   1.00
O708   O     0.81306   0.16667   0.67451   0.00000  Uiso   1.00
O709   O     0.89225   0.16668   0.67451   0.00000  Uiso   1.00
I710   I     0.93655   0.04268   0.77667   0.00000  Uiso   1.00
I711   I     0.73137   0.29045   0.72028   0.00000  Uiso   1.00
O712   O     0.93743   0.08667   0.91805   0.00000  Uiso   1.00
H713   H     0.93723   0.07926   0.88226   0.00000  Uiso   1.00
O714   O     0.97225   0.10333   0.99653   0.00000  Uiso   1.00
H715   H     0.98773   0.11701   0.96248   0.00000  Uiso   1.00
I716   I     0.80779   0.23054   0.58363   0.00000  Uiso   1.00
O717   O     0.74521   0.15708   0.57139   0.00000  Uiso   1.00
H718   H     0.70963   0.15101   0.58176   0.00000  Uiso   1.00
O719   O     0.68143   0.19237   0.51474   0.00000  Uiso   1.00
H720   H     0.67973   0.20238   0.55013   0.00000  Uiso   1.00
C721   C     0.16638   0.57933   0.74913   0.00000  Uiso   1.00
C722   C     0.14489   0.49059   0.99031   0.00000  Uiso   1.00
C723   C     0.15695   0.48238   0.93622   0.00000  Uiso   1.00
C724   C     0.18224   0.48628   0.51530   0.00000  Uiso   1.00
C725   C     0.22589   0.46311   0.99061   0.00000  Uiso   1.00
C726   C     0.23249   0.44712   0.93998   0.00000  Uiso   1.00
C727   C     0.19920   0.45839   0.91268   0.00000  Uiso   1.00
C728   C     0.17825   0.50569   0.56345   0.00000  Uiso   1.00
C729   C     0.24971   0.46793   0.57046   0.00000  Uiso   1.00
C730   C     0.12461   0.49595   0.90811   0.00000  Uiso   1.00
C731   C     0.20495   0.64382   0.75887   0.00000  Uiso   1.00
C732   C     0.14047   0.49813   0.85031   0.00000  Uiso   1.00
C733   C     0.20680   0.35277   0.75967   0.00000  Uiso   1.00
C734   C     0.16803   0.37606   0.75026   0.00000  Uiso   1.00
C735   C     0.12875   0.35616   0.73989   0.00000  Uiso   1.00
C736   C     0.12701   0.64719   0.73884   0.00000  Uiso   1.00
C737   C     0.16558   0.62392   0.74873   0.00000  Uiso   1.00
C738   C     0.29801   0.52235   0.78606   0.00000  Uiso   1.00
C739   C     0.01431   0.52226   0.78612   0.00000  Uiso   1.00
C740   C     0.03532   0.47766   0.71392   0.00000  Uiso   1.00
C741   C     0.31902   0.47775   0.71386   0.00000  Uiso   1.00
C742   C     0.16705   0.42066   0.75050   0.00000  Uiso   1.00
C743   C     0.19295   0.49951   0.64982   0.00000  Uiso   1.00
C744   C     0.26085   0.45590   0.51833   0.00000  Uiso   1.00
C745   C     0.20834   0.49245   0.59327   0.00000  Uiso   1.00
C746   C     0.07751   0.51055   0.93574   0.00000  Uiso   1.00
C747   C     0.06183   0.51135   0.99033   0.00000  Uiso   1.00
C748   C     0.09485   0.49886   0.51825   0.00000  Uiso   1.00
Cu749  Cu    0.11978   0.49999   0.75000   0.00000  Uiso   1.00
Cu750  Cu    0.21355   0.50001   0.75000   0.00000  Uiso   1.00
H751   H     0.27424   0.45880   0.59282   0.00000  Uiso   1.00
H752   H     0.09908   0.37359   0.73193   0.00000  Uiso   1.00
H753   H     0.27091   0.54036   0.81483   0.00000  Uiso   1.00
H754   H     0.02469   0.54017   0.81493   0.00000  Uiso   1.00
H755   H     0.06242   0.45964   0.68515   0.00000  Uiso   1.00
H756   H     0.30866   0.45984   0.68504   0.00000  Uiso   1.00
H757   H     0.05246   0.52146   0.91487   0.00000  Uiso   1.00
H758   H     0.20495   0.44562   0.87409   0.00000  Uiso   1.00
H759   H     0.23467   0.62641   0.76675   0.00000  Uiso   1.00
N760   N     0.04931   0.49999   0.74998   0.00000  Uiso   1.00
N761   N     0.28402   0.50002   0.74999   0.00000  Uiso   1.00
O762   O     0.12708   0.56011   0.75000   0.00000  Uiso   1.00
O763   O     0.20627   0.56012   0.75000   0.00000  Uiso   1.00
O764   O     0.10775   0.49998   0.82549   0.00000  Uiso   1.00
O765   O     0.18694   0.49999   0.82549   0.00000  Uiso   1.00
O766   O     0.12706   0.43988   0.74999   0.00000  Uiso   1.00
O767   O     0.20625   0.43989   0.74999   0.00000  Uiso   1.00
O768   O     0.14640   0.50001   0.67451   0.00000  Uiso   1.00
O769   O     0.22559   0.50002   0.67451   0.00000  Uiso   1.00
I770   I     0.26988   0.37602   0.77667   0.00000  Uiso   1.00
I771   I     0.06470   0.62378   0.72028   0.00000  Uiso   1.00
O772   O     0.27077   0.42001   0.91805   0.00000  Uiso   1.00
H773   H     0.27057   0.41260   0.88226   0.00000  Uiso   1.00
O774   O     0.30558   0.43667   0.99653   0.00000  Uiso   1.00
H775   H     0.32106   0.45035   0.96248   0.00000  Uiso   1.00
I776   I     0.14112   0.56388   0.58363   0.00000  Uiso   1.00
O777   O     0.07854   0.49042   0.57139   0.00000  Uiso   1.00
H778   H     0.04297   0.48434   0.58176   0.00000  Uiso   1.00
O779   O     0.01476   0.52570   0.51474   0.00000  Uiso   1.00
H780   H     0.01306   0.53571   0.55013   0.00000  Uiso   1.00
C781   C     0.49971   0.57933   0.74913   0.00000  Uiso   1.00
C782   C     0.47822   0.49059   0.99031   0.00000  Uiso   1.00
C783   C     0.49028   0.48238   0.93622   0.00000  Uiso   1.00
C784   C     0.51558   0.48628   0.51530   0.00000  Uiso   1.00
C785   C     0.55923   0.46311   0.99061   0.00000  Uiso   1.00
C786   C     0.56582   0.44712   0.93998   0.00000  Uiso   1.00
C787   C     0.53254   0.45839   0.91268   0.00000  Uiso   1.00
C788   C     0.51158   0.50569   0.56345   0.00000  Uiso   1.00
C789   C     0.58304   0.46793   0.57046   0.00000  Uiso   1.00
C790   C     0.45795   0.49595   0.90811   0.00000  Uiso   1.00
C791   C     0.53828   0.64382   0.75887   0.00000  Uiso   1.00
C792   C     0.47380   0.49813   0.85031   0.00000  Uiso   1.00
C793   C     0.54013   0.35277   0.75967   0.00000  Uiso   1.00
C794   C     0.50137   0.37606   0.75026   0.00000  Uiso   1.00
C795   C     0.46209   0.35616   0.73989   0.00000  Uiso   1.00
C796   C     0.46035   0.64719   0.73884   0.00000  Uiso   1.00
C797   C     0.49892   0.62392   0.74873   0.00000  Uiso   1.00
C798   C     0.63135   0.52235   0.78606   0.00000  Uiso   1.00
C799   C     0.34765   0.52226   0.78612   0.00000  Uiso   1.00
C800   C     0.36866   0.47766   0.71392   0.00000  Uiso   1.00
C801   C     0.65235   0.47775   0.71386   0.00000  Uiso   1.00
C802   C     0.50039   0.42066   0.75050   0.00000  Uiso   1.00
C803   C     0.52628   0.49951   0.64982   0.00000  Uiso   1.00
C804   C     0.59418   0.45590   0.51833   0.00000  Uiso   1.00
C805   C     0.54168   0.49245   0.59327   0.00000  Uiso   1.00
C806   C     0.41085   0.51055   0.93574   0.00000  Uiso   1.00
C807   C     0.39517   0.51135   0.99033   0.00000  Uiso   1.00
C808   C     0.42819   0.49886   0.51825   0.00000  Uiso   1.00
Cu809  Cu    0.45311   0.49999   0.75000   0.00000  Uiso   1.00
Cu810  Cu    0.54689   0.50001   0.75000   0.00000  Uiso   1.00
H811   H     0.60757   0.45880   0.59282   0.00000  Uiso   1.00
H812   H     0.43241   0.37359   0.73193   0.00000  Uiso   1.00
H813   H     0.60425   0.54036   0.81483   0.00000  Uiso   1.00
H814   H     0.35802   0.54017   0.81493   0.00000  Uiso   1.00
H815   H     0.39575   0.45964   0.68515   0.00000  Uiso   1.00
H816   H     0.64199   0.45984   0.68504   0.00000  Uiso   1.00
H817   H     0.38580   0.52146   0.91487   0.00000  Uiso   1.00
H818   H     0.53829   0.44562   0.87409   0.00000  Uiso   1.00
H819   H     0.56801   0.62641   0.76675   0.00000  Uiso   1.00
N820   N     0.38265   0.49999   0.74998   0.00000  Uiso   1.00
N821   N     0.61735   0.50002   0.74999   0.00000  Uiso   1.00
O822   O     0.46042   0.56011   0.75000   0.00000  Uiso   1.00
O823   O     0.53961   0.56012   0.75000   0.00000  Uiso   1.00
O824   O     0.44108   0.49998   0.82549   0.00000  Uiso   1.00
O825   O     0.52027   0.49999   0.82549   0.00000  Uiso   1.00
O826   O     0.46039   0.43988   0.74999   0.00000  Uiso   1.00
O827   O     0.53958   0.43989   0.74999   0.00000  Uiso   1.00
O828   O     0.47973   0.50001   0.67451   0.00000  Uiso   1.00
O829   O     0.55892   0.50002   0.67451   0.00000  Uiso   1.00
I830   I     0.60321   0.37602   0.77667   0.00000  Uiso   1.00
I831   I     0.39804   0.62378   0.72028   0.00000  Uiso   1.00
O832   O     0.60410   0.42001   0.91805   0.00000  Uiso   1.00
H833   H     0.60390   0.41260   0.88226   0.00000  Uiso   1.00
O834   O     0.63892   0.43667   0.99653   0.00000  Uiso   1.00
H835   H     0.65440   0.45035   0.96248   0.00000  Uiso   1.00
I836   I     0.47446   0.56388   0.58363   0.00000  Uiso   1.00
O837   O     0.41188   0.49042   0.57139   0.00000  Uiso   1.00
H838   H     0.37630   0.48434   0.58176   0.00000  Uiso   1.00
O839   O     0.34809   0.52570   0.51474   0.00000  Uiso   1.00
H840   H     0.34639   0.53571   0.55013   0.00000  Uiso   1.00
C841   C     0.83305   0.57933   0.74913   0.00000  Uiso   1.00
C842   C     0.81156   0.49059   0.99031   0.00000  Uiso   1.00
C843   C     0.82362   0.48238   0.93622   0.00000  Uiso   1.00
C844   C     0.84891   0.48628   0.51530   0.00000  Uiso   1.00
C845   C     0.89256   0.46311   0.99061   0.00000  Uiso   1.00
C846   C     0.89915   0.44712   0.93998   0.00000  Uiso   1.00
C847   C     0.86587   0.45839   0.91268   0.00000  Uiso   1.00
C848   C     0.84492   0.50569   0.56345   0.00000  Uiso   1.00
C849   C     0.91637   0.46793   0.57046   0.00000  Uiso   1.00
C850   C     0.79128   0.49595   0.90811   0.00000  Uiso   1.00
C851   C     0.87162   0.64382   0.75887   0.00000  Uiso   1.00
C852   C     0.80713   0.49813   0.85031   0.00000  Uiso   1.00
C853   C     0.87347   0.35277   0.75967   0.00000  Uiso   1.00
C854   C     0.83470   0.37606   0.75026   0.00000  Uiso   1.00
C855   C     0.79542   0.35616   0.73989   0.00000  Uiso   1.00
C856   C     0.79368   0.64719   0.73884   0.00000  Uiso   1.00
C857   C     0.83225   0.62392   0.74873   0.00000  Uiso   1.00
C858   C     0.96468   0.52235   0.78606   0.00000  Uiso   1.00
C859   C     0.68098   0.52226   0.78612   0.00000  Uiso   1.00
C860   C     0.70199   0.47766   0.71392   0.00000  Uiso   1.00
C861   C     0.98569   0.47775   0.71386   0.00000  Uiso   1.00
C862   C     0.83372   0.42066   0.75050   0.00000  Uiso   1.00
C863   C     0.85962   0.49951   0.64982   0.00000  Uiso   1.00
C864   C     0.92752   0.45590   0.51833   0.00000  Uiso   1.00
C865   C     0.87501   0.49245   0.59327   0.00000  Uiso   1.00
C866   C     0.74418   0.51055   0.93574   0.00000  Uiso   1.00
C867   C     0.72850   0.51135   0.99033   0.00000  Uiso   1.00
C868   C     0.76152   0.49886   0.51825   0.00000  Uiso   1.00
Cu869  Cu    0.78645   0.49999   0.75000   0.00000  Uiso   1.00
Cu870  Cu    0.88022   0.50001   0.75000   0.00000  Uiso   1.00
H871   H     0.94090   0.45880   0.59282   0.00000  Uiso   1.00
H872   H     0.76574   0.37359   0.73193   0.00000  Uiso   1.00
H873   H     0.93758   0.54036   0.81483   0.00000  Uiso   1.00
H874   H     0.69136   0.54017   0.81493   0.00000  Uiso   1.00
H875   H     0.72908   0.45964   0.68515   0.00000  Uiso   1.00
H876   H     0.97532   0.45984   0.68504   0.00000  Uiso   1.00
H877   H     0.71913   0.52146   0.91487   0.00000  Uiso   1.00
H878   H     0.87162   0.44562   0.87409   0.00000  Uiso   1.00
H879   H     0.90134   0.62641   0.76675   0.00000  Uiso   1.00
N880   N     0.71598   0.49999   0.74998   0.00000  Uiso   1.00
N881   N     0.95069   0.50002   0.74999   0.00000  Uiso   1.00
O882   O     0.79375   0.56011   0.75000   0.00000  Uiso   1.00
O883   O     0.87294   0.56012   0.75000   0.00000  Uiso   1.00
O884   O     0.77441   0.49998   0.82549   0.00000  Uiso   1.00
O885   O     0.85360   0.49999   0.82549   0.00000  Uiso   1.00
O886   O     0.79373   0.43988   0.74999   0.00000  Uiso   1.00
O887   O     0.87292   0.43989   0.74999   0.00000  Uiso   1.00
O888   O     0.81306   0.50001   0.67451   0.00000  Uiso   1.00
O889   O     0.89225   0.50002   0.67451   0.00000  Uiso   1.00
I890   I     0.93655   0.37602   0.77667   0.00000  Uiso   1.00
I891   I     0.73137   0.62378   0.72028   0.00000  Uiso   1.00
O892   O     0.93743   0.42001   0.91805   0.00000  Uiso   1.00
H893   H     0.93723   0.41260   0.88226   0.00000  Uiso   1.00
O894   O     0.97225   0.43667   0.99653   0.00000  Uiso   1.00
H895   H     0.98773   0.45035   0.96248   0.00000  Uiso   1.00
I896   I     0.80779   0.56388   0.58363   0.00000  Uiso   1.00
O897   O     0.74521   0.49042   0.57139   0.00000  Uiso   1.00
H898   H     0.70963   0.48434   0.58176   0.00000  Uiso   1.00
O899   O     0.68143   0.52570   0.51474   0.00000  Uiso   1.00
H900   H     0.67973   0.53571   0.55013   0.00000  Uiso   1.00
C901   C     0.16638   0.91266   0.74913   0.00000  Uiso   1.00
C902   C     0.14489   0.82392   0.99031   0.00000  Uiso   1.00
C903   C     0.15695   0.81572   0.93622   0.00000  Uiso   1.00
C904   C     0.18224   0.81962   0.51530   0.00000  Uiso   1.00
C905   C     0.22589   0.79645   0.99061   0.00000  Uiso   1.00
C906   C     0.23249   0.78045   0.93998   0.00000  Uiso   1.00
C907   C     0.19920   0.79173   0.91268   0.00000  Uiso   1.00
C908   C     0.17825   0.83902   0.56345   0.00000  Uiso   1.00
C909   C     0.24971   0.80126   0.57046   0.00000  Uiso   1.00
C910   C     0.12461   0.82928   0.90811   0.00000  Uiso   1.00
C911   C     0.20495   0.97715   0.75887   0.00000  Uiso   1.00
C912   C     0.14047   0.83146   0.85031   0.00000  Uiso   1.00
C913   C     0.20680   0.68610   0.75967   0.00000  Uiso   1.00
C914   C     0.16803   0.70939   0.75026   0.00000  Uiso   1.00
C915   C     0.12875   0.68950   0.73989   0.00000  Uiso   1.00
C916   C     0.12701   0.98052   0.73884   0.00000  Uiso   1.00
C917   C     0.16558   0.95726   0.74873   0.00000  Uiso   1.00
C918   C     0.29801   0.85568   0.78606   0.00000  Uiso   1.00
C919   C     0.01431   0.85559   0.78612   0.00000  Uiso   1.00
C920   C     0.03532   0.81100   0.71392   0.00000  Uiso   1.00
C921   C     0.31902   0.81108   0.71386   0.00000  Uiso   1.00
C922   C     0.16705   0.75399   0.75050   0.00000  Uiso   1.00
C923   C     0.19295   0.83284   0.64982   0.00000  Uiso   1.00
C924   C     0.26085   0.78923   0.51833   0.00000  Uiso   1.00
C925   C     0.20834   0.82578   0.59327   0.00000  Uiso   1.00
C926   C     0.07751   0.84388   0.93574   0.00000  Uiso   1.00
C927   C     0.06183   0.84469   0.99033   0.00000  Uiso   1.00
C928   C     0.09485   0.83220   0.51825   0.00000  Uiso   1.00
Cu929  Cu    0.11978   0.83333   0.75000   0.00000  Uiso   1.00
Cu930  Cu    0.21355   0.83334   0.75000   0.00000  Uiso   1.00
H931   H     0.27424   0.79214   0.59282   0.00000  Uiso   1.00
H932   H     0.09908   0.70692   0.73193   0.00000  Uiso   1.00
H933   H     0.27091   0.87369   0.81483   0.00000  Uiso   1.00
H934   H     0.02469   0.87350   0.81493   0.00000  Uiso   1.00
H935   H     0.06242   0.79298   0.68515   0.00000  Uiso   1.00
H936   H     0.30866   0.79318   0.68504   0.00000  Uiso   1.00
H937   H     0.05246   0.85479   0.91487   0.00000  Uiso   1.00
H938   H     0.20495   0.77895   0.87409   0.00000  Uiso   1.00
H939   H     0.23467   0.95975   0.76675   0.00000  Uiso   1.00
N940   N     0.04931   0.83332   0.74998   0.00000  Uiso   1.00
N941   N     0.28402   0.83335   0.74999   0.00000  Uiso   1.00
O942   O     0.12708   0.89345   0.75000   0.00000  Uiso   1.00
O943   O     0.20627   0.89346   0.75000   0.00000  Uiso   1.00
O944   O     0.10775   0.83332   0.82549   0.00000  Uiso   1.00
O945   O     0.18694   0.83333   0.82549   0.00000  Uiso   1.00
O946   O     0.12706   0.77321   0.74999   0.00000  Uiso   1.00
O947   O     0.20625   0.77322   0.74999   0.00000  Uiso   1.00
O948   O     0.14640   0.83334   0.67451   0.00000  Uiso   1.00
O949   O     0.22559   0.83335   0.67451   0.00000  Uiso   1.00
I950   I     0.26988   0.70935   0.77667   0.00000  Uiso   1.00
I951   I     0.06470   0.95711   0.72028   0.00000  Uiso   1.00
O952   O     0.27077   0.75334   0.91805   0.00000  Uiso   1.00
H953   H     0.27057   0.74593   0.88226   0.00000  Uiso   1.00
O954   O     0.30558   0.77000   0.99653   0.00000  Uiso   1.00
H955   H     0.32106   0.78368   0.96248   0.00000  Uiso   1.00
I956   I     0.14112   0.89721   0.58363   0.00000  Uiso   1.00
O957   O     0.07854   0.82375   0.57139   0.00000  Uiso   1.00
H958   H     0.04297   0.81767   0.58176   0.00000  Uiso   1.00
O959   O     0.01476   0.85904   0.51474   0.00000  Uiso   1.00
H960   H     0.01306   0.86905   0.55013   0.00000  Uiso   1.00
C961   C     0.49971   0.91266   0.74913   0.00000  Uiso   1.00
C962   C     0.47822   0.82392   0.99031   0.00000  Uiso   1.00
C963   C     0.49028   0.81572   0.93622   0.00000  Uiso   1.00
C964   C     0.51558   0.81962   0.51530   0.00000  Uiso   1.00
C965   C     0.55923   0.79645   0.99061   0.00000  Uiso   1.00
C966   C     0.56582   0.78045   0.93998   0.00000  Uiso   1.00
C967   C     0.53254   0.79173   0.91268   0.00000  Uiso   1.00
C968   C     0.51158   0.83902   0.56345   0.00000  Uiso   1.00
C969   C     0.58304   0.80126   0.57046   0.00000  Uiso   1.00
C970   C     0.45795   0.82928   0.90811   0.00000  Uiso   1.00
C971   C     0.53828   0.97715   0.75887   0.00000  Uiso   1.00
C972   C     0.47380   0.83146   0.85031   0.00000  Uiso   1.00
C973   C     0.54013   0.68610   0.75967   0.00000  Uiso   1.00
C974   C     0.50137   0.70939   0.75026   0.00000  Uiso   1.00
C975   C     0.46209   0.68950   0.73989   0.00000  Uiso   1.00
C976   C     0.46035   0.98052   0.73884   0.00000  Uiso   1.00
C977   C     0.49892   0.95726   0.74873   0.00000  Uiso   1.00
C978   C     0.63135   0.85568   0.78606   0.00000  Uiso   1.00
C979   C     0.34765   0.85559   0.78612   0.00000  Uiso   1.00
C980   C     0.36866   0.81100   0.71392   0.00000  Uiso   1.00
C981   C     0.65235   0.81108   0.71386   0.00000  Uiso   1.00
C982   C     0.50039   0.75399   0.75050   0.00000  Uiso   1.00
C983   C     0.52628   0.83284   0.64982   0.00000  Uiso   1.00
C984   C     0.59418   0.78923   0.51833   0.00000  Uiso   1.00
C985   C     0.54168   0.82578   0.59327   0.00000  Uiso   1.00
C986   C     0.41085   0.84388   0.93574   0.00000  Uiso   1.00
C987   C     0.39517   0.84469   0.99033   0.00000  Uiso   1.00
C988   C     0.42819   0.83220   0.51825   0.00000  Uiso   1.00
Cu989  Cu    0.45311   0.83333   0.75000   0.00000  Uiso   1.00
Cu990  Cu    0.54689   0.83334   0.75000   0.00000  Uiso   1.00
H991   H     0.60757   0.79214   0.59282   0.00000  Uiso   1.00
H992   H     0.43241   0.70692   0.73193   0.00000  Uiso   1.00
H993   H     0.60425   0.87369   0.81483   0.00000  Uiso   1.00
H994   H     0.35802   0.87350   0.81493   0.00000  Uiso   1.00
H995   H     0.39575   0.79298   0.68515   0.00000  Uiso   1.00
H996   H     0.64199   0.79318   0.68504   0.00000  Uiso   1.00
H997   H     0.38580   0.85479   0.91487   0.00000  Uiso   1.00
H998   H     0.53829   0.77895   0.87409   0.00000  Uiso   1.00
H999   H     0.56801   0.95975   0.76675   0.00000  Uiso   1.00
N1000  N     0.38265   0.83332   0.74998   0.00000  Uiso   1.00
N1001  N     0.61735   0.83335   0.74999   0.00000  Uiso   1.00
O1002  O     0.46042   0.89345   0.75000   0.00000  Uiso   1.00
O1003  O     0.53961   0.89346   0.75000   0.00000  Uiso   1.00
O1004  O     0.44108   0.83332   0.82549   0.00000  Uiso   1.00
O1005  O     0.52027   0.83333   0.82549   0.00000  Uiso   1.00
O1006  O     0.46039   0.77321   0.74999   0.00000  Uiso   1.00
O1007  O     0.53958   0.77322   0.74999   0.00000  Uiso   1.00
O1008  O     0.47973   0.83334   0.67451   0.00000  Uiso   1.00
O1009  O     0.55892   0.83335   0.67451   0.00000  Uiso   1.00
I1010  I     0.60321   0.70935   0.77667   0.00000  Uiso   1.00
I1011  I     0.39804   0.95711   0.72028   0.00000  Uiso   1.00
O1012  O     0.60410   0.75334   0.91805   0.00000  Uiso   1.00
H1013  H     0.60390   0.74593   0.88226   0.00000  Uiso   1.00
O1014  O     0.63892   0.77000   0.99653   0.00000  Uiso   1.00
H1015  H     0.65440   0.78368   0.96248   0.00000  Uiso   1.00
I1016  I     0.47446   0.89721   0.58363   0.00000  Uiso   1.00
O1017  O     0.41188   0.82375   0.57139   0.00000  Uiso   1.00
H1018  H     0.37630   0.81767   0.58176   0.00000  Uiso   1.00
O1019  O     0.34809   0.85904   0.51474   0.00000  Uiso   1.00
H1020  H     0.34639   0.86905   0.55013   0.00000  Uiso   1.00
C1021  C     0.83305   0.91266   0.74913   0.00000  Uiso   1.00
C1022  C     0.81156   0.82392   0.99031   0.00000  Uiso   1.00
C1023  C     0.82362   0.81572   0.93622   0.00000  Uiso   1.00
C1024  C     0.84891   0.81962   0.51530   0.00000  Uiso   1.00
C1025  C     0.89256   0.79645   0.99061   0.00000  Uiso   1.00
C1026  C     0.89915   0.78045   0.93998   0.00000  Uiso   1.00
C1027  C     0.86587   0.79173   0.91268   0.00000  Uiso   1.00
C1028  C     0.84492   0.83902   0.56345   0.00000  Uiso   1.00
C1029  C     0.91637   0.80126   0.57046   0.00000  Uiso   1.00
C1030  C     0.79128   0.82928   0.90811   0.00000  Uiso   1.00
C1031  C     0.87162   0.97715   0.75887   0.00000  Uiso   1.00
C1032  C     0.80713   0.83146   0.85031   0.00000  Uiso   1.00
C1033  C     0.87347   0.68610   0.75967   0.00000  Uiso   1.00
C1034  C     0.83470   0.70939   0.75026   0.00000  Uiso   1.00
C1035  C     0.79542   0.68950   0.73989   0.00000  Uiso   1.00
C1036  C     0.79368   0.98052   0.73884   0.00000  Uiso   1.00
C1037  C     0.83225   0.95726   0.74873   0.00000  Uiso   1.00
C1038  C     0.96468   0.85568   0.78606   0.00000  Uiso   1.00
C1039  C     0.68098   0.85559   0.78612   0.00000  Uiso   1.00
C1040  C     0.70199   0.81100   0.71392   0.00000  Uiso   1.00
C1041  C     0.98569   0.81108   0.71386   0.00000  Uiso   1.00
C1042  C     0.83372   0.75399   0.75050   0.00000  Uiso   1.00
C1043  C     0.85962   0.83284   0.64982   0.00000  Uiso   1.00
C1044  C     0.92752   0.78923   0.51833   0.00000  Uiso   1.00
C1045  C     0.87501   0.82578   0.59327   0.00000  Uiso   1.00
C1046  C     0.74418   0.84388   0.93574   0.00000  Uiso   1.00
C1047  C     0.72850   0.84469   0.99033   0.00000  Uiso   1.00
C1048  C     0.76152   0.83220   0.51825   0.00000  Uiso   1.00
Cu1049 Cu    0.78645   0.83333   0.75000   0.00000  Uiso   1.00
Cu1050 Cu    0.88022   0.83334   0.75000   0.00000  Uiso   1.00
H1051  H     0.94090   0.79214   0.59282   0.00000  Uiso   1.00
H1052  H     0.76574   0.70692   0.73193   0.00000  Uiso   1.00
H1053  H     0.93758   0.87369   0.81483   0.00000  Uiso   1.00
H1054  H     0.69136   0.87350   0.81493   0.00000  Uiso   1.00
H1055  H     0.72908   0.79298   0.68515   0.00000  Uiso   1.00
H1056  H     0.97532   0.79318   0.68504   0.00000  Uiso   1.00
H1057  H     0.71913   0.85479   0.91487   0.00000  Uiso   1.00
H1058  H     0.87162   0.77895   0.87409   0.00000  Uiso   1.00
H1059  H     0.90134   0.95975   0.76675   0.00000  Uiso   1.00
N1060  N     0.71598   0.83332   0.74998   0.00000  Uiso   1.00
N1061  N     0.95069   0.83335   0.74999   0.00000  Uiso   1.00
O1062  O     0.79375   0.89345   0.75000   0.00000  Uiso   1.00
O1063  O     0.87294   0.89346   0.75000   0.00000  Uiso   1.00
O1064  O     0.77441   0.83332   0.82549   0.00000  Uiso   1.00
O1065  O     0.85360   0.83333   0.82549   0.00000  Uiso   1.00
O1066  O     0.79373   0.77321   0.74999   0.00000  Uiso   1.00
O1067  O     0.87292   0.77322   0.74999   0.00000  Uiso   1.00
O1068  O     0.81306   0.83334   0.67451   0.00000  Uiso   1.00
O1069  O     0.89225   0.83335   0.67451   0.00000  Uiso   1.00
I1070  I     0.93655   0.70935   0.77667   0.00000  Uiso   1.00
I1071  I     0.73137   0.95711   0.72028   0.00000  Uiso   1.00
O1072  O     0.93743   0.75334   0.91805   0.00000  Uiso   1.00
H1073  H     0.93723   0.74593   0.88226   0.00000  Uiso   1.00
O1074  O     0.97225   0.77000   0.99653   0.00000  Uiso   1.00
H1075  H     0.98773   0.78368   0.96248   0.00000  Uiso   1.00
I1076  I     0.80779   0.89721   0.58363   0.00000  Uiso   1.00
O1077  O     0.74521   0.82375   0.57139   0.00000  Uiso   1.00
H1078  H     0.70963   0.81767   0.58176   0.00000  Uiso   1.00
O1079  O     0.68143   0.85904   0.51474   0.00000  Uiso   1.00
H1080  H     0.67973   0.86905   0.55013   0.00000  Uiso   1.00
loop_
_geom_bond_atom_site_label_1
_geom_bond_atom_site_label_2
_geom_bond_distance
_geom_bond_site_symmetry_2
_ccdc_geom_bond_type
C1     C17     1.455   .     S
C1     O43     1.295   .     A
C1     O42     1.286   .     A
C2     C3      1.409   .     A
C2     C544    1.420   .     S
C2     C568    1.420   .     S
C3     C10     1.416   .     A
C3     C7      1.408   .     A
C4     C8      1.411   .     A
C4     C542    1.420   1_554 S
C4     C545    1.428   1_554 S
C5     C6      1.412   .     A
C5     C544    1.428   .     S
C5     C564    1.424   .     S
C6     C7      1.402   .     A
C6     O52     1.382   .     S
C7     H38     1.080   .     S
C8     I56     2.151   .     S
C8     C25     1.396   .     A
C9     C25     1.396   .     A
C9     H31     1.084   .     S
C9     C24     1.391   .     A
C10    C12     1.476   .     S
C10    C26     1.402   .     A
C11    H39     1.083   .     S
C11    C17     1.400   .     A
C11    C193    1.382   .     S
C12    O45     1.293   .     A
C12    O44     1.296   .     A
C13    C14     1.413   .     A
C13    I50     2.133   .     S
C13    C371    1.382   1_545 S
C14    C22     1.456   .     S
C14    C15     1.401   .     A
C15    H32     1.083   .     S
C15    C376    1.383   1_545 S
C16    I51     2.135   .     S
C16    C17     1.414   .     A
C16    C195    1.383   .     S
C18    H33     1.082   .     S
C18    N41     1.367   .     A
C18    C79     1.414   .     S
C19    N40     1.366   .     A
C19    H34     1.082   .     S
C19    C138    1.414   1_455 S
C20    N40     1.367   .     A
C20    H35     1.082   .     S
C20    C141    1.414   1_455 S
C21    N41     1.366   .     A
C21    H36     1.082   .     S
C21    C80     1.414   .     S
C22    O47     1.286   .     A
C22    O46     1.295   .     A
C23    C25     1.461   .     S
C23    O49     1.292   .     A
C23    O48     1.292   .     A
C24    C545    1.424   1_554 S
C24    O594    1.376   1_554 S
C26    H37     1.084   .     S
C26    C27     1.393   .     A
C27    C568    1.418   .     S
C27    O599    1.380   .     S
C28    O57     1.383   .     S
C28    C567    1.418   1_554 S
C28    C542    1.420   1_554 S
Cu29   O42     1.976   .     S
Cu29   O46     1.970   .     S
Cu29   Cu30    2.671   .     S
Cu29   N40     2.008   .     S
Cu29   O44     1.943   .     S
Cu29   O48     1.932   .     S
Cu30   N41     2.007   .     S
Cu30   O47     1.976   .     S
Cu30   O45     1.932   .     S
Cu30   O49     1.943   .     S
Cu30   O43     1.970   .     S
O52    H53     0.990   .     S
O54    H55     0.991   .     S
O54    C564    1.376   .     S
O57    H58     0.990   .     S
O59    H60     0.990   .     S
O59    C567    1.380   1_554 S
C61    C77     1.455   .     S
C61    O103    1.295   .     A
C61    O102    1.286   .     A
C62    C63     1.409   .     A
C62    C604    1.420   .     S
C62    C628    1.420   .     S
C63    C70     1.416   .     A
C63    C67     1.408   .     A
C64    C68     1.411   .     A
C64    C602    1.420   1_554 S
C64    C605    1.428   1_554 S
C65    C66     1.412   .     A
C65    C604    1.428   .     S
C65    C624    1.424   .     S
C66    C67     1.402   .     A
C66    O112    1.382   .     S
C67    H98     1.080   .     S
C68    I116    2.151   .     S
C68    C85     1.396   .     A
C69    C85     1.396   .     A
C69    H91     1.084   .     S
C69    C84     1.391   .     A
C70    C72     1.476   .     S
C70    C86     1.402   .     A
C71    H99     1.083   .     S
C71    C77     1.400   .     A
C71    C253    1.382   .     S
C72    O105    1.293   .     A
C72    O104    1.296   .     A
C73    C74     1.413   .     A
C73    I110    2.133   .     S
C73    C431    1.382   1_545 S
C74    C82     1.456   .     S
C74    C75     1.401   .     A
C75    H92     1.083   .     S
C75    C436    1.383   1_545 S
C76    I111    2.135   .     S
C76    C77     1.414   .     A
C76    C255    1.383   .     S
C78    H93     1.082   .     S
C78    N101    1.367   .     A
C78    C139    1.414   .     S
C79    N100    1.366   .     A
C79    H94     1.082   .     S
C80    N100    1.367   .     A
C80    H95     1.082   .     S
C81    N101    1.366   .     A
C81    H96     1.082   .     S
C81    C140    1.414   .     S
C82    O107    1.286   .     A
C82    O106    1.295   .     A
C83    C85     1.461   .     S
C83    O109    1.292   .     A
C83    O108    1.292   .     A
C84    C605    1.424   1_554 S
C84    O654    1.376   1_554 S
C86    H97     1.084   .     S
C86    C87     1.393   .     A
C87    C628    1.418   .     S
C87    O659    1.380   .     S
C88    O117    1.383   .     S
C88    C627    1.418   1_554 S
C88    C602    1.420   1_554 S
Cu89   O102    1.976   .     S
Cu89   O106    1.970   .     S
Cu89   Cu90    2.671   .     S
Cu89   N100    2.008   .     S
Cu89   O104    1.943   .     S
Cu89   O108    1.932   .     S
Cu90   N101    2.007   .     S
Cu90   O107    1.976   .     S
Cu90   O105    1.932   .     S
Cu90   O109    1.943   .     S
Cu90   O103    1.970   .     S
O112   H113    0.990   .     S
O114   H115    0.991   .     S
O114   C624    1.376   .     S
O117   H118    0.990   .     S
O119   H120    0.990   .     S
O119   C627    1.380   1_554 S
C121   C137    1.455   .     S
C121   O163    1.295   .     A
C121   O162    1.286   .     A
C122   C123    1.409   .     A
C122   C664    1.420   .     S
C122   C688    1.420   .     S
C123   C130    1.416   .     A
C123   C127    1.408   .     A
C124   C128    1.411   .     A
C124   C662    1.420   1_554 S
C124   C665    1.428   1_554 S
C125   C126    1.412   .     A
C125   C664    1.428   .     S
C125   C684    1.424   .     S
C126   C127    1.402   .     A
C126   O172    1.382   .     S
C127   H158    1.080   .     S
C128   I176    2.151   .     S
C128   C145    1.396   .     A
C129   C145    1.396   .     A
C129   H151    1.084   .     S
C129   C144    1.391   .     A
C130   C132    1.476   .     S
C130   C146    1.402   .     A
C131   H159    1.083   .     S
C131   C137    1.400   .     A
C131   C313    1.382   .     S
C132   O165    1.293   .     A
C132   O164    1.296   .     A
C133   C134    1.413   .     A
C133   I170    2.133   .     S
C133   C491    1.382   1_545 S
C134   C142    1.456   .     S
C134   C135    1.401   .     A
C135   H152    1.083   .     S
C135   C496    1.383   1_545 S
C136   I171    2.135   .     S
C136   C137    1.414   .     A
C136   C315    1.383   .     S
C138   H153    1.082   .     S
C138   N161    1.367   .     A
C138   C19     1.414   1_655 S
C139   N160    1.366   .     A
C139   H154    1.082   .     S
C140   N160    1.367   .     A
C140   H155    1.082   .     S
C141   N161    1.366   .     A
C141   H156    1.082   .     S
C141   C20     1.414   1_655 S
C142   O167    1.286   .     A
C142   O166    1.295   .     A
C143   C145    1.461   .     S
C143   O169    1.292   .     A
C143   O168    1.292   .     A
C144   C665    1.424   1_554 S
C144   O714    1.376   1_554 S
C146   H157    1.084   .     S
C146   C147    1.393   .     A
C147   C688    1.418   .     S
C147   O719    1.380   .     S
C148   O177    1.383   .     S
C148   C687    1.418   1_554 S
C148   C662    1.420   1_554 S
Cu149  O162    1.976   .     S
Cu149  O166    1.970   .     S
Cu149  Cu150   2.671   .     S
Cu149  N160    2.008   .     S
Cu149  O164    1.943   .     S
Cu149  O168    1.932   .     S
Cu150  N161    2.007   .     S
Cu150  O167    1.976   .     S
Cu150  O165    1.932   .     S
Cu150  O169    1.943   .     S
Cu150  O163    1.970   .     S
O172   H173    0.990   .     S
O174   H175    0.991   .     S
O174   C684    1.376   .     S
O177   H178    0.990   .     S
O179   H180    0.990   .     S
O179   C687    1.380   1_554 S
C181   C197    1.455   .     S
C181   O223    1.295   .     A
C181   O222    1.286   .     A
C182   C183    1.409   .     A
C182   C724    1.420   .     S
C182   C748    1.420   .     S
C183   C190    1.416   .     A
C183   C187    1.408   .     A
C184   C188    1.411   .     A
C184   C722    1.420   1_554 S
C184   C725    1.428   1_554 S
C185   C186    1.412   .     A
C185   C724    1.428   .     S
C185   C744    1.424   .     S
C186   C187    1.402   .     A
C186   O232    1.382   .     S
C187   H218    1.080   .     S
C188   I236    2.151   .     S
C188   C205    1.396   .     A
C189   C205    1.396   .     A
C189   H211    1.084   .     S
C189   C204    1.391   .     A
C190   C192    1.476   .     S
C190   C206    1.402   .     A
C191   H219    1.083   .     S
C191   C197    1.400   .     A
C191   C373    1.382   .     S
C192   O225    1.293   .     A
C192   O224    1.296   .     A
C193   C194    1.413   .     A
C193   I230    2.133   .     S
C194   C202    1.456   .     S
C194   C195    1.401   .     A
C195   H212    1.083   .     S
C196   I231    2.135   .     S
C196   C197    1.414   .     A
C196   C375    1.383   .     S
C198   H213    1.082   .     S
C198   N221    1.367   .     A
C198   C259    1.414   .     S
C199   N220    1.366   .     A
C199   H214    1.082   .     S
C199   C318    1.414   1_455 S
C200   N220    1.367   .     A
C200   H215    1.082   .     S
C200   C321    1.414   1_455 S
C201   N221    1.366   .     A
C201   H216    1.082   .     S
C201   C260    1.414   .     S
C202   O227    1.286   .     A
C202   O226    1.295   .     A
C203   C205    1.461   .     S
C203   O229    1.292   .     A
C203   O228    1.292   .     A
C204   C725    1.424   1_554 S
C204   O774    1.376   1_554 S
C206   H217    1.084   .     S
C206   C207    1.393   .     A
C207   C748    1.418   .     S
C207   O779    1.380   .     S
C208   O237    1.383   .     S
C208   C747    1.418   1_554 S
C208   C722    1.420   1_554 S
Cu209  O222    1.976   .     S
Cu209  O226    1.970   .     S
Cu209  Cu210   2.671   .     S
Cu209  N220    2.008   .     S
Cu209  O224    1.943   .     S
Cu209  O228    1.932   .     S
Cu210  N221    2.007   .     S
Cu210  O227    1.976   .     S
Cu210  O225    1.932   .     S
Cu210  O229    1.943   .     S
Cu210  O223    1.970   .     S
O232   H233    0.990   .     S
O234   H235    0.991   .     S
O234   C744    1.376   .     S
O237   H238    0.990   .     S
O239   H240    0.990   .     S
O239   C747    1.380   1_554 S
C241   C257    1.455   .     S
C241   O283    1.295   .     A
C241   O282    1.286   .     A
C242   C243    1.409   .     A
C242   C784    1.420   .     S
C242   C808    1.420   .     S
C243   C250    1.416   .     A
C243   C247    1.408   .     A
C244   C248    1.411   .     A
C244   C782    1.420   1_554 S
C244   C785    1.428   1_554 S
C245   C246    1.412   .     A
C245   C784    1.428   .     S
C245   C804    1.424   .     S
C246   C247    1.402   .     A
C246   O292    1.382   .     S
C247   H278    1.080   .     S
C248   I296    2.151   .     S
C248   C265    1.396   .     A
C249   C265    1.396   .     A
C249   H271    1.084   .     S
C249   C264    1.391   .     A
C250   C252    1.476   .     S
C250   C266    1.402   .     A
C251   H279    1.083   .     S
C251   C257    1.400   .     A
C251   C433    1.382   .     S
C252   O285    1.293   .     A
C252   O284    1.296   .     A
C253   C254    1.413   .     A
C253   I290    2.133   .     S
C254   C262    1.456   .     S
C254   C255    1.401   .     A
C255   H272    1.083   .     S
C256   I291    2.135   .     S
C256   C257    1.414   .     A
C256   C435    1.383   .     S
C258   H273    1.082   .     S
C258   N281    1.367   .     A
C258   C319    1.414   .     S
C259   N280    1.366   .     A
C259   H274    1.082   .     S
C260   N280    1.367   .     A
C260   H275    1.082   .     S
C261   N281    1.366   .     A
C261   H276    1.082   .     S
C261   C320    1.414   .     S
C262   O287    1.286   .     A
C262   O286    1.295   .     A
C263   C265    1.461   .     S
C263   O289    1.292   .     A
C263   O288    1.292   .     A
C264   C785    1.424   1_554 S
C264   O834    1.376   1_554 S
C266   H277    1.084   .     S
C266   C267    1.393   .     A
C267   C808    1.418   .     S
C267   O839    1.380   .     S
C268   O297    1.383   .     S
C268   C807    1.418   1_554 S
C268   C782    1.420   1_554 S
Cu269  O282    1.976   .     S
Cu269  O286    1.970   .     S
Cu269  Cu270   2.671   .     S
Cu269  N280    2.008   .     S
Cu269  O284    1.943   .     S
Cu269  O288    1.932   .     S
Cu270  N281    2.007   .     S
Cu270  O287    1.976   .     S
Cu270  O285    1.932   .     S
Cu270  O289    1.943   .     S
Cu270  O283    1.970   .     S
O292   H293    0.990   .     S
O294   H295    0.991   .     S
O294   C804    1.376   .     S
O297   H298    0.990   .     S
O299   H300    0.990   .     S
O299   C807    1.380   1_554 S
C301   C317    1.455   .     S
C301   O343    1.295   .     A
C301   O342    1.286   .     A
C302   C303    1.409   .     A
C302   C844    1.420   .     S
C302   C868    1.420   .     S
C303   C310    1.416   .     A
C303   C307    1.408   .     A
C304   C308    1.411   .     A
C304   C842    1.420   1_554 S
C304   C845    1.428   1_554 S
C305   C306    1.412   .     A
C305   C844    1.428   .     S
C305   C864    1.424   .     S
C306   C307    1.402   .     A
C306   O352    1.382   .     S
C307   H338    1.080   .     S
C308   I356    2.151   .     S
C308   C325    1.396   .     A
C309   C325    1.396   .     A
C309   H331    1.084   .     S
C309   C324    1.391   .     A
C310   C312    1.476   .     S
C310   C326    1.402   .     A
C311   H339    1.083   .     S
C311   C317    1.400   .     A
C311   C493    1.382   .     S
C312   O345    1.293   .     A
C312   O344    1.296   .     A
C313   C314    1.413   .     A
C313   I350    2.133   .     S
C314   C322    1.456   .     S
C314   C315    1.401   .     A
C315   H332    1.083   .     S
C316   I351    2.135   .     S
C316   C317    1.414   .     A
C316   C495    1.383   .     S
C318   H333    1.082   .     S
C318   N341    1.367   .     A
C318   C199    1.414   1_655 S
C319   N340    1.366   .     A
C319   H334    1.082   .     S
C320   N340    1.367   .     A
C320   H335    1.082   .     S
C321   N341    1.366   .     A
C321   H336    1.082   .     S
C321   C200    1.414   1_655 S
C322   O347    1.286   .     A
C322   O346    1.295   .     A
C323   C325    1.461   .     S
C323   O349    1.292   .     A
C323   O348    1.292   .     A
C324   C845    1.424   1_554 S
C324   O894    1.376   1_554 S
C326   H337    1.084   .     S
C326   C327    1.393   .     A
C327   C868    1.418   .     S
C327   O899    1.380   .     S
C328   O357    1.383   .     S
C328   C867    1.418   1_554 S
C328   C842    1.420   1_554 S
Cu329  O342    1.976   .     S
Cu329  O346    1.970   .     S
Cu329  Cu330   2.671   .     S
Cu329  N340    2.008   .     S
Cu329  O344    1.943   .     S
Cu329  O348    1.932   .     S
Cu330  N341    2.007   .     S
Cu330  O347    1.976   .     S
Cu330  O345    1.932   .     S
Cu330  O349    1.943   .     S
Cu330  O343    1.970   .     S
O352   H353    0.990   .     S
O354   H355    0.991   .     S
O354   C864    1.376   .     S
O357   H358    0.990   .     S
O359   H360    0.990   .     S
O359   C867    1.380   1_554 S
C361   C377    1.455   .     S
C361   O403    1.295   .     A
C361   O402    1.286   .     A
C362   C363    1.409   .     A
C362   C904    1.420   .     S
C362   C928    1.420   .     S
C363   C370    1.416   .     A
C363   C367    1.408   .     A
C364   C368    1.411   .     A
C364   C902    1.420   1_554 S
C364   C905    1.428   1_554 S
C365   C366    1.412   .     A
C365   C904    1.428   .     S
C365   C924    1.424   .     S
C366   C367    1.402   .     A
C366   O412    1.382   .     S
C367   H398    1.080   .     S
C368   I416    2.151   .     S
C368   C385    1.396   .     A
C369   C385    1.396   .     A
C369   H391    1.084   .     S
C369   C384    1.391   .     A
C370   C372    1.476   .     S
C370   C386    1.402   .     A
C371   H399    1.083   .     S
C371   C377    1.400   .     A
C371   C13     1.382   1_565 S
C372   O405    1.293   .     A
C372   O404    1.296   .     A
C373   C374    1.413   .     A
C373   I410    2.133   .     S
C374   C382    1.456   .     S
C374   C375    1.401   .     A
C375   H392    1.083   .     S
C376   I411    2.135   .     S
C376   C377    1.414   .     A
C376   C15     1.383   1_565 S
C378   H393    1.082   .     S
C378   N401    1.367   .     A
C378   C439    1.414   .     S
C379   N400    1.366   .     A
C379   H394    1.082   .     S
C379   C498    1.414   1_455 S
C380   N400    1.367   .     A
C380   H395    1.082   .     S
C380   C501    1.414   1_455 S
C381   N401    1.366   .     A
C381   H396    1.082   .     S
C381   C440    1.414   .     S
C382   O407    1.286   .     A
C382   O406    1.295   .     A
C383   C385    1.461   .     S
C383   O409    1.292   .     A
C383   O408    1.292   .     A
C384   C905    1.424   1_554 S
C384   O954    1.376   1_554 S
C386   H397    1.084   .     S
C386   C387    1.393   .     A
C387   C928    1.418   .     S
C387   O959    1.380   .     S
C388   O417    1.383   .     S
C388   C927    1.418   1_554 S
C388   C902    1.420   1_554 S
Cu389  O402    1.976   .     S
Cu389  O406    1.970   .     S
Cu389  Cu390   2.671   .     S
Cu389  N400    2.008   .     S
Cu389  O404    1.943   .     S
Cu389  O408    1.932   .     S
Cu390  N401    2.007   .     S
Cu390  O407    1.976   .     S
Cu390  O405    1.932   .     S
Cu390  O409    1.943   .     S
Cu390  O403    1.970   .     S
O412   H413    0.990   .     S
O414   H415    0.991   .     S
O414   C924    1.376   .     S
O417   H418    0.990   .     S
O419   H420    0.990   .     S
O419   C927    1.380   1_554 S
C421   C437    1.455   .     S
C421   O463    1.295   .     A
C421   O462    1.286   .     A
C422   C423    1.409   .     A
C422   C964    1.420   .     S
C422   C988    1.420   .     S
C423   C430    1.416   .     A
C423   C427    1.408   .     A
C424   C428    1.411   .     A
C424   C962    1.420   1_554 S
C424   C965    1.428   1_554 S
C425   C426    1.412   .     A
C425   C964    1.428   .     S
C425   C984    1.424   .     S
C426   C427    1.402   .     A
C426   O472    1.382   .     S
C427   H458    1.080   .     S
C428   I476    2.151   .     S
C428   C445    1.396   .     A
C429   C445    1.396   .     A
C429   H451    1.084   .     S
C429   C444    1.391   .     A
C430   C432    1.476   .     S
C430   C446    1.402   .     A
C431   H459    1.083   .     S
C431   C437    1.400   .     A
C431   C73     1.382   1_565 S
C432   O465    1.293   .     A
C432   O464    1.296   .     A
C433   C434    1.413   .     A
C433   I470    2.133   .     S
C434   C442    1.456   .     S
C434   C435    1.401   .     A
C435   H452    1.083   .     S
C436   I471    2.135   .     S
C436   C437    1.414   .     A
C436   C75     1.383   1_565 S
C438   H453    1.082   .     S
C438   N461    1.367   .     A
C438   C499    1.414   .     S
C439   N460    1.366   .     A
C439   H454    1.082   .     S
C440   N460    1.367   .     A
C440   H455    1.082   .     S
C441   N461    1.366   .     A
C441   H456    1.082   .     S
C441   C500    1.414   .     S
C442   O467    1.286   .     A
C442   O466    1.295   .     A
C443   C445    1.461   .     S
C443   O469    1.292   .     A
C443   O468    1.292   .     A
C444   C965    1.424   1_554 S
C444   O1014   1.376   1_554 S
C446   H457    1.084   .     S
C446   C447    1.393   .     A
C447   C988    1.418   .     S
C447   O1019   1.380   .     S
C448   O477    1.383   .     S
C448   C987    1.418   1_554 S
C448   C962    1.420   1_554 S
Cu449  O462    1.976   .     S
Cu449  O466    1.970   .     S
Cu449  Cu450   2.671   .     S
Cu449  N460    2.008   .     S
Cu449  O464    1.943   .     S
Cu449  O468    1.932   .     S
Cu450  N461    2.007   .     S
Cu450  O467    1.976   .     S
Cu450  O465    1.932   .     S
Cu450  O469    1.943   .     S
Cu450  O463    1.970   .     S
O472   H473    0.990   .     S
O474   H475    0.991   .     S
O474   C984    1.376   .     S
O477   H478    0.990   .     S
O479   H480    0.990   .     S
O479   C987    1.380   1_554 S
C481   C497    1.455   .     S
C481   O523    1.295   .     A
C481   O522    1.286   .     A
C482   C483    1.409   .     A
C482   C1024   1.420   .     S
C482   C1048   1.420   .     S
C483   C490    1.416   .     A
C483   C487    1.408   .     A
C484   C488    1.411   .     A
C484   C1022   1.420   1_554 S
C484   C1025   1.428   1_554 S
C485   C486    1.412   .     A
C485   C1024   1.428   .     S
C485   C1044   1.424   .     S
C486   C487    1.402   .     A
C486   O532    1.382   .     S
C487   H518    1.080   .     S
C488   I536    2.151   .     S
C488   C505    1.396   .     A
C489   C505    1.396   .     A
C489   H511    1.084   .     S
C489   C504    1.391   .     A
C490   C492    1.476   .     S
C490   C506    1.402   .     A
C491   H519    1.083   .     S
C491   C497    1.400   .     A
C491   C133    1.382   1_565 S
C492   O525    1.293   .     A
C492   O524    1.296   .     A
C493   C494    1.413   .     A
C493   I530    2.133   .     S
C494   C502    1.456   .     S
C494   C495    1.401   .     A
C495   H512    1.083   .     S
C496   I531    2.135   .     S
C496   C497    1.414   .     A
C496   C135    1.383   1_565 S
C498   H513    1.082   .     S
C498   N521    1.367   .     A
C498   C379    1.414   1_655 S
C499   N520    1.366   .     A
C499   H514    1.082   .     S
C500   N520    1.367   .     A
C500   H515    1.082   .     S
C501   N521    1.366   .     A
C501   H516    1.082   .     S
C501   C380    1.414   1_655 S
C502   O527    1.286   .     A
C502   O526    1.295   .     A
C503   C505    1.461   .     S
C503   O529    1.292   .     A
C503   O528    1.292   .     A
C504   C1025   1.424   1_554 S
C504   O1074   1.376   1_554 S
C506   H517    1.084   .     S
C506   C507    1.393   .     A
C507   C1048   1.418   .     S
C507   O1079   1.380   .     S
C508   O537    1.383   .     S
C508   C1047   1.418   1_554 S
C508   C1022   1.420   1_554 S
Cu509  O522    1.976   .     S
Cu509  O526    1.970   .     S
Cu509  Cu510   2.671   .     S
Cu509  N520    2.008   .     S
Cu509  O524    1.943   .     S
Cu509  O528    1.932   .     S
Cu510  N521    2.007   .     S
Cu510  O527    1.976   .     S
Cu510  O525    1.932   .     S
Cu510  O529    1.943   .     S
Cu510  O523    1.970   .     S
O532   H533    0.990   .     S
O534   H535    0.991   .     S
O534   C1044   1.376   .     S
O537   H538    0.990   .     S
O539   H540    0.990   .     S
O539   C1047   1.380   1_554 S
C541   C557    1.455   .     S
C541   O583    1.295   .     A
C541   O582    1.286   .     A
C542   C543    1.409   .     A
C542   C4      1.420   1_556 S
C542   C28     1.420   1_556 S
C543   C550    1.416   .     A
C543   C547    1.408   .     A
C544   C548    1.411   .     A
C545   C546    1.412   .     A
C545   C4      1.428   1_556 S
C545   C24     1.424   1_556 S
C546   C547    1.402   .     A
C546   O592    1.382   .     S
C547   H578    1.080   .     S
C548   I596    2.151   .     S
C548   C565    1.396   .     A
C549   C565    1.396   .     A
C549   H571    1.084   .     S
C549   C564    1.391   .     A
C550   C552    1.476   .     S
C550   C566    1.402   .     A
C551   H579    1.083   .     S
C551   C557    1.400   .     A
C551   C733    1.382   .     S
C552   O585    1.293   .     A
C552   O584    1.296   .     A
C553   C554    1.413   .     A
C553   I590    2.133   .     S
C553   C911    1.382   1_545 S
C554   C562    1.456   .     S
C554   C555    1.401   .     A
C555   H572    1.083   .     S
C555   C916    1.383   1_545 S
C556   I591    2.135   .     S
C556   C557    1.414   .     A
C556   C735    1.383   .     S
C558   H573    1.082   .     S
C558   N581    1.367   .     A
C558   C619    1.414   .     S
C559   N580    1.366   .     A
C559   H574    1.082   .     S
C559   C678    1.414   1_455 S
C560   N580    1.367   .     A
C560   H575    1.082   .     S
C560   C681    1.414   1_455 S
C561   N581    1.366   .     A
C561   H576    1.082   .     S
C561   C620    1.414   .     S
C562   O587    1.286   .     A
C562   O586    1.295   .     A
C563   C565    1.461   .     S
C563   O589    1.292   .     A
C563   O588    1.292   .     A
C566   H577    1.084   .     S
C566   C567    1.393   .     A
C567   C28     1.418   1_556 S
C567   O59     1.380   1_556 S
C568   O597    1.383   .     S
Cu569  O582    1.976   .     S
Cu569  O586    1.970   .     S
Cu569  Cu570   2.671   .     S
Cu569  N580    2.008   .     S
Cu569  O584    1.943   .     S
Cu569  O588    1.932   .     S
Cu570  N581    2.007   .     S
Cu570  O587    1.976   .     S
Cu570  O585    1.932   .     S
Cu570  O589    1.943   .     S
Cu570  O583    1.970   .     S
O592   H593    0.990   .     S
O594   H595    0.991   .     S
O594   C24     1.376   1_556 S
O597   H598    0.990   .     S
O599   H600    0.990   .     S
C601   C617    1.455   .     S
C601   O643    1.295   .     A
C601   O642    1.286   .     A
C602   C603    1.409   .     A
C602   C64     1.420   1_556 S
C602   C88     1.420   1_556 S
C603   C610    1.416   .     A
C603   C607    1.408   .     A
C604   C608    1.411   .     A
C605   C606    1.412   .     A
C605   C64     1.428   1_556 S
C605   C84     1.424   1_556 S
C606   C607    1.402   .     A
C606   O652    1.382   .     S
C607   H638    1.080   .     S
C608   I656    2.151   .     S
C608   C625    1.396   .     A
C609   C625    1.396   .     A
C609   H631    1.084   .     S
C609   C624    1.391   .     A
C610   C612    1.476   .     S
C610   C626    1.402   .     A
C611   H639    1.083   .     S
C611   C617    1.400   .     A
C611   C793    1.382   .     S
C612   O645    1.293   .     A
C612   O644    1.296   .     A
C613   C614    1.413   .     A
C613   I650    2.133   .     S
C613   C971    1.382   1_545 S
C614   C622    1.456   .     S
C614   C615    1.401   .     A
C615   H632    1.083   .     S
C615   C976    1.383   1_545 S
C616   I651    2.135   .     S
C616   C617    1.414   .     A
C616   C795    1.383   .     S
C618   H633    1.082   .     S
C618   N641    1.367   .     A
C618   C679    1.414   .     S
C619   N640    1.366   .     A
C619   H634    1.082   .     S
C620   N640    1.367   .     A
C620   H635    1.082   .     S
C621   N641    1.366   .     A
C621   H636    1.082   .     S
C621   C680    1.414   .     S
C622   O647    1.286   .     A
C622   O646    1.295   .     A
C623   C625    1.461   .     S
C623   O649    1.292   .     A
C623   O648    1.292   .     A
C626   H637    1.084   .     S
C626   C627    1.393   .     A
C627   C88     1.418   1_556 S
C627   O119    1.380   1_556 S
C628   O657    1.383   .     S
Cu629  O642    1.976   .     S
Cu629  O646    1.970   .     S
Cu629  Cu630   2.671   .     S
Cu629  N640    2.008   .     S
Cu629  O644    1.943   .     S
Cu629  O648    1.932   .     S
Cu630  N641    2.007   .     S
Cu630  O647    1.976   .     S
Cu630  O645    1.932   .     S
Cu630  O649    1.943   .     S
Cu630  O643    1.970   .     S
O652   H653    0.990   .     S
O654   H655    0.991   .     S
O654   C84     1.376   1_556 S
O657   H658    0.990   .     S
O659   H660    0.990   .     S
C661   C677    1.455   .     S
C661   O703    1.295   .     A
C661   O702    1.286   .     A
C662   C663    1.409   .     A
C662   C124    1.420   1_556 S
C662   C148    1.420   1_556 S
C663   C670    1.416   .     A
C663   C667    1.408   .     A
C664   C668    1.411   .     A
C665   C666    1.412   .     A
C665   C124    1.428   1_556 S
C665   C144    1.424   1_556 S
C666   C667    1.402   .     A
C666   O712    1.382   .     S
C667   H698    1.080   .     S
C668   I716    2.151   .     S
C668   C685    1.396   .     A
C669   C685    1.396   .     A
C669   H691    1.084   .     S
C669   C684    1.391   .     A
C670   C672    1.476   .     S
C670   C686    1.402   .     A
C671   H699    1.083   .     S
C671   C677    1.400   .     A
C671   C853    1.382   .     S
C672   O705    1.293   .     A
C672   O704    1.296   .     A
C673   C674    1.413   .     A
C673   I710    2.133   .     S
C673   C1031   1.382   1_545 S
C674   C682    1.456   .     S
C674   C675    1.401   .     A
C675   H692    1.083   .     S
C675   C1036   1.383   1_545 S
C676   I711    2.135   .     S
C676   C677    1.414   .     A
C676   C855    1.383   .     S
C678   H693    1.082   .     S
C678   N701    1.367   .     A
C678   C559    1.414   1_655 S
C679   N700    1.366   .     A
C679   H694    1.082   .     S
C680   N700    1.367   .     A
C680   H695    1.082   .     S
C681   N701    1.366   .     A
C681   H696    1.082   .     S
C681   C560    1.414   1_655 S
C682   O707    1.286   .     A
C682   O706    1.295   .     A
C683   C685    1.461   .     S
C683   O709    1.292   .     A
C683   O708    1.292   .     A
C686   H697    1.084   .     S
C686   C687    1.393   .     A
C687   C148    1.418   1_556 S
C687   O179    1.380   1_556 S
C688   O717    1.383   .     S
Cu689  O702    1.976   .     S
Cu689  O706    1.970   .     S
Cu689  Cu690   2.671   .     S
Cu689  N700    2.008   .     S
Cu689  O704    1.943   .     S
Cu689  O708    1.932   .     S
Cu690  N701    2.007   .     S
Cu690  O707    1.976   .     S
Cu690  O705    1.932   .     S
Cu690  O709    1.943   .     S
Cu690  O703    1.970   .     S
O712   H713    0.990   .     S
O714   H715    0.991   .     S
O714   C144    1.376   1_556 S
O717   H718    0.990   .     S
O719   H720    0.990   .     S
C721   C737    1.455   .     S
C721   O763    1.295   .     A
C721   O762    1.286   .     A
C722   C723    1.409   .     A
C722   C184    1.420   1_556 S
C722   C208    1.420   1_556 S
C723   C730    1.416   .     A
C723   C727    1.408   .     A
C724   C728    1.411   .     A
C725   C726    1.412   .     A
C725   C184    1.428   1_556 S
C725   C204    1.424   1_556 S
C726   C727    1.402   .     A
C726   O772    1.382   .     S
C727   H758    1.080   .     S
C728   I776    2.151   .     S
C728   C745    1.396   .     A
C729   C745    1.396   .     A
C729   H751    1.084   .     S
C729   C744    1.391   .     A
C730   C732    1.476   .     S
C730   C746    1.402   .     A
C731   H759    1.083   .     S
C731   C737    1.400   .     A
C731   C913    1.382   .     S
C732   O765    1.293   .     A
C732   O764    1.296   .     A
C733   C734    1.413   .     A
C733   I770    2.133   .     S
C734   C742    1.456   .     S
C734   C735    1.401   .     A
C735   H752    1.083   .     S
C736   I771    2.135   .     S
C736   C737    1.414   .     A
C736   C915    1.383   .     S
C738   H753    1.082   .     S
C738   N761    1.367   .     A
C738   C799    1.414   .     S
C739   N760    1.366   .     A
C739   H754    1.082   .     S
C739   C858    1.414   1_455 S
C740   N760    1.367   .     A
C740   H755    1.082   .     S
C740   C861    1.414   1_455 S
C741   N761    1.366   .     A
C741   H756    1.082   .     S
C741   C800    1.414   .     S
C742   O767    1.286   .     A
C742   O766    1.295   .     A
C743   C745    1.461   .     S
C743   O769    1.292   .     A
C743   O768    1.292   .     A
C746   H757    1.084   .     S
C746   C747    1.393   .     A
C747   C208    1.418   1_556 S
C747   O239    1.380   1_556 S
C748   O777    1.383   .     S
Cu749  O762    1.976   .     S
Cu749  O766    1.970   .     S
Cu749  Cu750   2.671   .     S
Cu749  N760    2.008   .     S
Cu749  O764    1.943   .     S
Cu749  O768    1.932   .     S
Cu750  N761    2.007   .     S
Cu750  O767    1.976   .     S
Cu750  O765    1.932   .     S
Cu750  O769    1.943   .     S
Cu750  O763    1.970   .     S
O772   H773    0.990   .     S
O774   H775    0.991   .     S
O774   C204    1.376   1_556 S
O777   H778    0.990   .     S
O779   H780    0.990   .     S
C781   C797    1.455   .     S
C781   O823    1.295   .     A
C781   O822    1.286   .     A
C782   C783    1.409   .     A
C782   C244    1.420   1_556 S
C782   C268    1.420   1_556 S
C783   C790    1.416   .     A
C783   C787    1.408   .     A
C784   C788    1.411   .     A
C785   C786    1.412   .     A
C785   C244    1.428   1_556 S
C785   C264    1.424   1_556 S
C786   C787    1.402   .     A
C786   O832    1.382   .     S
C787   H818    1.080   .     S
C788   I836    2.151   .     S
C788   C805    1.396   .     A
C789   C805    1.396   .     A
C789   H811    1.084   .     S
C789   C804    1.391   .     A
C790   C792    1.476   .     S
C790   C806    1.402   .     A
C791   H819    1.083   .     S
C791   C797    1.400   .     A
C791   C973    1.382   .     S
C792   O825    1.293   .     A
C792   O824    1.296   .     A
C793   C794    1.413   .     A
C793   I830    2.133   .     S
C794   C802    1.456   .     S
C794   C795    1.401   .     A
C795   H812    1.083   .     S
C796   I831    2.135   .     S
C796   C797    1.414   .     A
C796   C975    1.383   .     S
C798   H813    1.082   .     S
C798   N821    1.367   .     A
C798   C859    1.414   .     S
C799   N820    1.366   .     A
C799   H814    1.082   .     S
C800   N820    1.367   .     A
C800   H815    1.082   .     S
C801   N821    1.366   .     A
C801   H816    1.082   .     S
C801   C860    1.414   .     S
C802   O827    1.286   .     A
C802   O826    1.295   .     A
C803   C805    1.461   .     S
C803   O829    1.292   .     A
C803   O828    1.292   .     A
C806   H817    1.084   .     S
C806   C807    1.393   .     A
C807   C268    1.418   1_556 S
C807   O299    1.380   1_556 S
C808   O837    1.383   .     S
Cu809  O822    1.976   .     S
Cu809  O826    1.970   .     S
Cu809  Cu810   2.671   .     S
Cu809  N820    2.008   .     S
Cu809  O824    1.943   .     S
Cu809  O828    1.932   .     S
Cu810  N821    2.007   .     S
Cu810  O827    1.976   .     S
Cu810  O825    1.932   .     S
Cu810  O829    1.943   .     S
Cu810  O823    1.970   .     S
O832   H833    0.990   .     S
O834   H835    0.991   .     S
O834   C264    1.376   1_556 S
O837   H838    0.990   .     S
O839   H840    0.990   .     S
C841   C857    1.455   .     S
C841   O883    1.295   .     A
C841   O882    1.286   .     A
C842   C843    1.409   .     A
C842   C304    1.420   1_556 S
C842   C328    1.420   1_556 S
C843   C850    1.416   .     A
C843   C847    1.408   .     A
C844   C848    1.411   .     A
C845   C846    1.412   .     A
C845   C304    1.428   1_556 S
C845   C324    1.424   1_556 S
C846   C847    1.402   .     A
C846   O892    1.382   .     S
C847   H878    1.080   .     S
C848   I896    2.151   .     S
C848   C865    1.396   .     A
C849   C865    1.396   .     A
C849   H871    1.084   .     S
C849   C864    1.391   .     A
C850   C852    1.476   .     S
C850   C866    1.402   .     A
C851   H879    1.083   .     S
C851   C857    1.400   .     A
C851   C1033   1.382   .     S
C852   O885    1.293   .     A
C852   O884    1.296   .     A
C853   C854    1.413   .     A
C853   I890    2.133   .     S
C854   C862    1.456   .     S
C854   C855    1.401   .     A
C855   H872    1.083   .     S
C856   I891    2.135   .     S
C856   C857    1.414   .     A
C856   C1035   1.383   .     S
C858   H873    1.082   .     S
C858   N881    1.367   .     A
C858   C739    1.414   1_655 S
C859   N880    1.366   .     A
C859   H874    1.082   .     S
C860   N880    1.367   .     A
C860   H875    1.082   .     S
C861   N881    1.366   .     A
C861   H876    1.082   .     S
C861   C740    1.414   1_655 S
C862   O887    1.286   .     A
C862   O886    1.295   .     A
C863   C865    1.461   .     S
C863   O889    1.292   .     A
C863   O888    1.292   .     A
C866   H877    1.084   .     S
C866   C867    1.393   .     A
C867   C328    1.418   1_556 S
C867   O359    1.380   1_556 S
C868   O897    1.383   .     S
Cu869  O882    1.976   .     S
Cu869  O886    1.970   .     S
Cu869  Cu870   2.671   .     S
Cu869  N880    2.008   .     S
Cu869  O884    1.943   .     S
Cu869  O888    1.932   .     S
Cu870  N881    2.007   .     S
Cu870  O887    1.976   .     S
Cu870  O885    1.932   .     S
Cu870  O889    1.943   .     S
Cu870  O883    1.970   .     S
O892   H893    0.990   .     S
O894   H895    0.991   .     S
O894   C324    1.376   1_556 S
O897   H898    0.990   .     S
O899   H900    0.990   .     S
C901   C917    1.455   .     S
C901   O943    1.295   .     A
C901   O942    1.286   .     A
C902   C903    1.409   .     A
C902   C364    1.420   1_556 S
C902   C388    1.420   1_556 S
C903   C910    1.416   .     A
C903   C907    1.408   .     A
C904   C908    1.411   .     A
C905   C906    1.412   .     A
C905   C364    1.428   1_556 S
C905   C384    1.424   1_556 S
C906   C907    1.402   .     A
C906   O952    1.382   .     S
C907   H938    1.080   .     S
C908   I956    2.151   .     S
C908   C925    1.396   .     A
C909   C925    1.396   .     A
C909   H931    1.084   .     S
C909   C924    1.391   .     A
C910   C912    1.476   .     S
C910   C926    1.402   .     A
C911   H939    1.083   .     S
C911   C917    1.400   .     A
C911   C553    1.382   1_565 S
C912   O945    1.293   .     A
C912   O944    1.296   .     A
C913   C914    1.413   .     A
C913   I950    2.133   .     S
C914   C922    1.456   .     S
C914   C915    1.401   .     A
C915   H932    1.083   .     S
C916   I951    2.135   .     S
C916   C917    1.414   .     A
C916   C555    1.383   1_565 S
C918   H933    1.082   .     S
C918   N941    1.367   .     A
C918   C979    1.414   .     S
C919   N940    1.366   .     A
C919   H934    1.082   .     S
C919   C1038   1.414   1_455 S
C920   N940    1.367   .     A
C920   H935    1.082   .     S
C920   C1041   1.414   1_455 S
C921   N941    1.366   .     A
C921   H936    1.082   .     S
C921   C980    1.414   .     S
C922   O947    1.286   .     A
C922   O946    1.295   .     A
C923   C925    1.461   .     S
C923   O949    1.292   .     A
C923   O948    1.292   .     A
C926   H937    1.084   .     S
C926   C927    1.393   .     A
C927   C388    1.418   1_556 S
C927   O419    1.380   1_556 S
C928   O957    1.383   .     S
Cu929  O942    1.976   .     S
Cu929  O946    1.970   .     S
Cu929  Cu930   2.671   .     S
Cu929  N940    2.008   .     S
Cu929  O944    1.943   .     S
Cu929  O948    1.932   .     S
Cu930  N941    2.007   .     S
Cu930  O947    1.976   .     S
Cu930  O945    1.932   .     S
Cu930  O949    1.943   .     S
Cu930  O943    1.970   .     S
O952   H953    0.990   .     S
O954   H955    0.991   .     S
O954   C384    1.376   1_556 S
O957   H958    0.990   .     S
O959   H960    0.990   .     S
C961   C977    1.455   .     S
C961   O1003   1.295   .     A
C961   O1002   1.286   .     A
C962   C963    1.409   .     A
C962   C424    1.420   1_556 S
C962   C448    1.420   1_556 S
C963   C970    1.416   .     A
C963   C967    1.408   .     A
C964   C968    1.411   .     A
C965   C966    1.412   .     A
C965   C424    1.428   1_556 S
C965   C444    1.424   1_556 S
C966   C967    1.402   .     A
C966   O1012   1.382   .     S
C967   H998    1.080   .     S
C968   I1016   2.151   .     S
C968   C985    1.396   .     A
C969   C985    1.396   .     A
C969   H991    1.084   .     S
C969   C984    1.391   .     A
C970   C972    1.476   .     S
C970   C986    1.402   .     A
C971   H999    1.083   .     S
C971   C977    1.400   .     A
C971   C613    1.382   1_565 S
C972   O1005   1.293   .     A
C972   O1004   1.296   .     A
C973   C974    1.413   .     A
C973   I1010   2.133   .     S
C974   C982    1.456   .     S
C974   C975    1.401   .     A
C975   H992    1.083   .     S
C976   I1011   2.135   .     S
C976   C977    1.414   .     A
C976   C615    1.383   1_565 S
C978   H993    1.082   .     S
C978   N1001   1.367   .     A
C978   C1039   1.414   .     S
C979   N1000   1.366   .     A
C979   H994    1.082   .     S
C980   N1000   1.367   .     A
C980   H995    1.082   .     S
C981   N1001   1.366   .     A
C981   H996    1.082   .     S
C981   C1040   1.414   .     S
C982   O1007   1.286   .     A
C982   O1006   1.295   .     A
C983   C985    1.461   .     S
C983   O1009   1.292   .     A
C983   O1008   1.292   .     A
C986   H997    1.084   .     S
C986   C987    1.393   .     A
C987   C448    1.418   1_556 S
C987   O479    1.380   1_556 S
C988   O1017   1.383   .     S
Cu989  O1002   1.976   .     S
Cu989  O1006   1.970   .     S
Cu989  Cu990   2.671   .     S
Cu989  N1000   2.008   .     S
Cu989  O1004   1.943   .     S
Cu989  O1008   1.932   .     S
Cu990  N1001   2.007   .     S
Cu990  O1007   1.976   .     S
Cu990  O1005   1.932   .     S
Cu990  O1009   1.943   .     S
Cu990  O1003   1.970   .     S
O1012  H1013   0.990   .     S
O1014  H1015   0.991   .     S
O1014  C444    1.376   1_556 S
O1017  H1018   0.990   .     S
O1019  H1020   0.990   .     S
C1021  C1037   1.455   .     S
C1021  O1063   1.295   .     A
C1021  O1062   1.286   .     A
C1022  C1023   1.409   .     A
C1022  C484    1.420   1_556 S
C1022  C508    1.420   1_556 S
C1023  C1030   1.416   .     A
C1023  C1027   1.408   .     A
C1024  C1028   1.411   .     A
C1025  C1026   1.412   .     A
C1025  C484    1.428   1_556 S
C1025  C504    1.424   1_556 S
C1026  C1027   1.402   .     A
C1026  O1072   1.382   .     S
C1027  H1058   1.080   .     S
C1028  I1076   2.151   .     S
C1028  C1045   1.396   .     A
C1029  C1045   1.396   .     A
C1029  H1051   1.084   .     S
C1029  C1044   1.391   .     A
C1030  C1032   1.476   .     S
C1030  C1046   1.402   .     A
C1031  H1059   1.083   .     S
C1031  C1037   1.400   .     A
C1031  C673    1.382   1_565 S
C1032  O1065   1.293   .     A
C1032  O1064   1.296   .     A
C1033  C1034   1.413   .     A
C1033  I1070   2.133   .     S
C1034  C1042   1.456   .     S
C1034  C1035   1.401   .     A
C1035  H1052   1.083   .     S
C1036  I1071   2.135   .     S
C1036  C1037   1.414   .     A
C1036  C675    1.383   1_565 S
C1038  H1053   1.082   .     S
C1038  N1061   1.367   .     A
C1038  C919    1.414   1_655 S
C1039  N1060   1.366   .     A
C1039  H1054   1.082   .     S
C1040  N1060   1.367   .     A
C1040  H1055   1.082   .     S
C1041  N1061   1.366   .     A
C1041  H1056   1.082   .     S
C1041  C920    1.414   1_655 S
C1042  O1067   1.286   .     A
C1042  O1066   1.295   .     A
C1043  C1045   1.461   .     S
C1043  O1069   1.292   .     A
C1043  O1068   1.292   .     A
C1046  H1057   1.084   .     S
C1046  C1047   1.393   .     A
C1047  C508    1.418   1_556 S
C1047  O539    1.380   1_556 S
C1048  O1077   1.383   .     S
Cu1049 O1062   1.976   .     S
Cu1049 O1066   1.970   .     S
Cu1049 Cu1050  2.671   .     S
Cu1049 N1060   2.008   .     S
Cu1049 O1064   1.943   .     S
Cu1049 O1068   1.932   .     S
Cu1050 N1061   2.007   .     S
Cu1050 O1067   1.976   .     S
Cu1050 O1065   1.932   .     S
Cu1050 O1069   1.943   .     S
Cu1050 O1063   1.970   .     S
O1072  H1073   0.990   .     S
O1074  H1075   0.991   .     S
O1074  C504    1.376   1_556 S
O1077  H1078   0.990   .     S
O1079  H1080   0.990   .     S
