data_str_m2_o1_o18_pcu_sym.134
_audit_creation_date              2020-01-03
_audit_creation_method            'Materials Studio'
_symmetry_space_group_name_H-M    'P1'
_symmetry_Int_Tables_number       1
_symmetry_cell_setting            triclinic
loop_
_symmetry_equiv_pos_as_xyz
  x,y,z
_cell_length_a                    28.5562
_cell_length_b                    32.4921
_cell_length_c                    30.9900
_cell_angle_alpha                 89.9357
_cell_angle_beta                  74.4045
_cell_angle_gamma                 90.3548
loop_
_atom_site_label
_atom_site_type_symbol
_atom_site_fract_x
_atom_site_fract_y
_atom_site_fract_z
_atom_site_U_iso_or_equiv
_atom_site_adp_type
_atom_site_occupancy
O1     O     0.03958   0.10655   0.25000   0.00000  Uiso   1.00
O2     O     0.29375   0.22678   0.25000   0.00000  Uiso   1.00
O3     O     0.29372   0.10654   0.25000   0.00000  Uiso   1.00
O4     O     0.03961   0.22679   0.24999   0.00000  Uiso   1.00
C5     C     0.33331   0.08741   0.24939   0.00000  Uiso   1.00
C6     C     0.00002   0.24593   0.25061   0.00000  Uiso   1.00
O7     O     0.01852   0.16668   0.31491   0.00000  Uiso   1.00
O8     O     0.31481   0.16666   0.18508   0.00000  Uiso   1.00
O9     O     0.27267   0.16667   0.31492   0.00000  Uiso   1.00
O10    O     0.06067   0.16667   0.18508   0.00000  Uiso   1.00
C11    C     0.30607   0.16742   0.33604   0.00000  Uiso   1.00
C12    C     0.02726   0.16591   0.16396   0.00000  Uiso   1.00
Cu13   Cu    0.04689   0.16667   0.25000   0.00000  Uiso   1.00
Cu14   Cu    0.28645   0.16666   0.25000   0.00000  Uiso   1.00
C15    C     0.29101   0.17190   0.38488   0.00000  Uiso   1.00
C16    C     0.04231   0.16145   0.11511   0.00000  Uiso   1.00
C17    C     0.30557   0.19860   0.45308   0.00000  Uiso   1.00
C18    C     0.02768   0.13485   0.04690   0.00000  Uiso   1.00
C19    C     0.32259   0.18811   0.40786   0.00000  Uiso   1.00
C20    C     0.01069   0.14531   0.09214   0.00000  Uiso   1.00
C21    C     0.24305   0.16308   0.40788   0.00000  Uiso   1.00
C22    C     0.09027   0.17025   0.09210   0.00000  Uiso   1.00
C23    C     0.22482   0.17116   0.45390   0.00000  Uiso   1.00
C24    C     0.10845   0.16224   0.04607   0.00000  Uiso   1.00
C25    C     0.25572   0.19208   0.47617   0.00000  Uiso   1.00
C26    C     0.07753   0.14136   0.02379   0.00000  Uiso   1.00
C27    C     0.17607   0.16035   0.47751   0.00000  Uiso   1.00
C28    C     0.15719   0.17307   0.02245   0.00000  Uiso   1.00
C29    C     0.18718   0.19718   0.04221   0.00000  Uiso   1.00
C30    C     0.14605   0.13628   0.45774   0.00000  Uiso   1.00
C31    C     0.23548   0.20610   0.02035   0.00000  Uiso   1.00
C32    C     0.09774   0.12738   0.47959   0.00000  Uiso   1.00
H33    H     0.11338   0.18169   0.11171   0.00000  Uiso   1.00
H34    H     0.21999   0.15157   0.38827   0.00000  Uiso   1.00
H35    H     0.30642   0.13898   0.10972   0.00000  Uiso   1.00
H36    H     0.02687   0.19445   0.39028   0.00000  Uiso   1.00
H37    H     0.17373   0.21140   0.07449   0.00000  Uiso   1.00
H38    H     0.15946   0.12209   0.42543   0.00000  Uiso   1.00
C39    C     0.30054   0.02055   0.23081   0.00000  Uiso   1.00
C40    C     0.03278   0.31278   0.26921   0.00000  Uiso   1.00
C41    C     0.30103   0.31116   0.23199   0.00000  Uiso   1.00
C42    C     0.03229   0.02217   0.26803   0.00000  Uiso   1.00
H43    H     0.27634   0.29413   0.21738   0.00000  Uiso   1.00
H44    H     0.05697   0.03921   0.28265   0.00000  Uiso   1.00
C45    C     0.00031   0.29054   0.25085   0.00000  Uiso   1.00
C46    C     0.33301   0.04280   0.24916   0.00000  Uiso   1.00
C47    C     0.18268   0.14260   0.27945   0.00000  Uiso   1.00
C48    C     0.15066   0.19073   0.22055   0.00000  Uiso   1.00
H49    H     0.19432   0.12326   0.30299   0.00000  Uiso   1.00
H50    H     0.13901   0.21008   0.19701   0.00000  Uiso   1.00
C51    C     0.13306   0.14265   0.27947   0.00000  Uiso   1.00
C52    C     0.20027   0.19069   0.22053   0.00000  Uiso   1.00
H53    H     0.10733   0.12338   0.30304   0.00000  Uiso   1.00
H54    H     0.22600   0.20996   0.19696   0.00000  Uiso   1.00
N55    N     0.11736   0.16668   0.24999   0.00000  Uiso   1.00
N56    N     0.21597   0.16666   0.25001   0.00000  Uiso   1.00
N57    N     0.26189   0.23219   0.04297   0.00000  Uiso   1.00
O58    O     0.27335   0.26944   0.02830   0.00000  Uiso   1.00
O59    O     0.26447   0.22240   0.08299   0.00000  Uiso   1.00
N60    N     0.07130   0.10135   0.45696   0.00000  Uiso   1.00
O61    O     0.06872   0.11118   0.41695   0.00000  Uiso   1.00
O62    O     0.05981   0.06408   0.47160   0.00000  Uiso   1.00
N63    N     0.00620   0.21554   0.47500   0.00000  Uiso   1.00
H64    H     0.03482   0.19485   0.47141   0.00000  Uiso   1.00
H65    H     0.02059   0.24266   0.45828   0.00000  Uiso   1.00
N66    N     0.32702   0.11797   0.02499   0.00000  Uiso   1.00
H67    H     0.31263   0.09084   0.04167   0.00000  Uiso   1.00
H68    H     0.29841   0.13868   0.02862   0.00000  Uiso   1.00
N69    N     0.26804   0.04107   0.20991   0.00000  Uiso   1.00
H70    H     0.27543   0.03102   0.17672   0.00000  Uiso   1.00
H71    H     0.23251   0.03205   0.22641   0.00000  Uiso   1.00
N72    N     0.06527   0.29226   0.29012   0.00000  Uiso   1.00
H73    H     0.05776   0.30222   0.32334   0.00000  Uiso   1.00
H74    H     0.10079   0.30137   0.27371   0.00000  Uiso   1.00
O75    O     0.37291   0.10655   0.25000   0.00000  Uiso   1.00
O76    O     0.62709   0.22678   0.25000   0.00000  Uiso   1.00
O77    O     0.62706   0.10654   0.25000   0.00000  Uiso   1.00
O78    O     0.37294   0.22679   0.24999   0.00000  Uiso   1.00
C79    C     0.66664   0.08741   0.24939   0.00000  Uiso   1.00
C80    C     0.33336   0.24593   0.25061   0.00000  Uiso   1.00
O81    O     0.35186   0.16668   0.31491   0.00000  Uiso   1.00
O82    O     0.64814   0.16666   0.18508   0.00000  Uiso   1.00
O83    O     0.60600   0.16667   0.31492   0.00000  Uiso   1.00
O84    O     0.39400   0.16667   0.18508   0.00000  Uiso   1.00
C85    C     0.63940   0.16742   0.33604   0.00000  Uiso   1.00
C86    C     0.36059   0.16591   0.16396   0.00000  Uiso   1.00
Cu87   Cu    0.38022   0.16667   0.25000   0.00000  Uiso   1.00
Cu88   Cu    0.61978   0.16666   0.25000   0.00000  Uiso   1.00
C89    C     0.62434   0.17190   0.38488   0.00000  Uiso   1.00
C90    C     0.37564   0.16145   0.11511   0.00000  Uiso   1.00
C91    C     0.63891   0.19860   0.45308   0.00000  Uiso   1.00
C92    C     0.36101   0.13485   0.04690   0.00000  Uiso   1.00
C93    C     0.65593   0.18811   0.40786   0.00000  Uiso   1.00
C94    C     0.34402   0.14531   0.09214   0.00000  Uiso   1.00
C95    C     0.57638   0.16308   0.40788   0.00000  Uiso   1.00
C96    C     0.42360   0.17025   0.09210   0.00000  Uiso   1.00
C97    C     0.55816   0.17116   0.45390   0.00000  Uiso   1.00
C98    C     0.44178   0.16224   0.04607   0.00000  Uiso   1.00
C99    C     0.58905   0.19208   0.47617   0.00000  Uiso   1.00
C100   C     0.41086   0.14136   0.02379   0.00000  Uiso   1.00
C101   C     0.50940   0.16035   0.47751   0.00000  Uiso   1.00
C102   C     0.49052   0.17307   0.02245   0.00000  Uiso   1.00
C103   C     0.52051   0.19718   0.04221   0.00000  Uiso   1.00
C104   C     0.47938   0.13628   0.45774   0.00000  Uiso   1.00
C105   C     0.56881   0.20610   0.02035   0.00000  Uiso   1.00
C106   C     0.43108   0.12738   0.47959   0.00000  Uiso   1.00
H107   H     0.44671   0.18169   0.11171   0.00000  Uiso   1.00
H108   H     0.55332   0.15157   0.38827   0.00000  Uiso   1.00
H109   H     0.63975   0.13898   0.10972   0.00000  Uiso   1.00
H110   H     0.36020   0.19445   0.39028   0.00000  Uiso   1.00
H111   H     0.50706   0.21140   0.07449   0.00000  Uiso   1.00
H112   H     0.49279   0.12209   0.42543   0.00000  Uiso   1.00
C113   C     0.63388   0.02055   0.23081   0.00000  Uiso   1.00
C114   C     0.36611   0.31278   0.26921   0.00000  Uiso   1.00
C115   C     0.63436   0.31116   0.23199   0.00000  Uiso   1.00
C116   C     0.36563   0.02217   0.26803   0.00000  Uiso   1.00
H117   H     0.60967   0.29413   0.21738   0.00000  Uiso   1.00
H118   H     0.39030   0.03921   0.28265   0.00000  Uiso   1.00
C119   C     0.33365   0.29054   0.25085   0.00000  Uiso   1.00
C120   C     0.66635   0.04280   0.24916   0.00000  Uiso   1.00
C121   C     0.51601   0.14260   0.27945   0.00000  Uiso   1.00
C122   C     0.48399   0.19073   0.22055   0.00000  Uiso   1.00
H123   H     0.52765   0.12326   0.30299   0.00000  Uiso   1.00
H124   H     0.47235   0.21008   0.19701   0.00000  Uiso   1.00
C125   C     0.46640   0.14265   0.27947   0.00000  Uiso   1.00
C126   C     0.53360   0.19069   0.22053   0.00000  Uiso   1.00
H127   H     0.44066   0.12338   0.30304   0.00000  Uiso   1.00
H128   H     0.55934   0.20996   0.19696   0.00000  Uiso   1.00
N129   N     0.45069   0.16668   0.24999   0.00000  Uiso   1.00
N130   N     0.54931   0.16666   0.25001   0.00000  Uiso   1.00
N131   N     0.59522   0.23219   0.04297   0.00000  Uiso   1.00
O132   O     0.60668   0.26944   0.02830   0.00000  Uiso   1.00
O133   O     0.59780   0.22240   0.08299   0.00000  Uiso   1.00
N134   N     0.40463   0.10135   0.45696   0.00000  Uiso   1.00
O135   O     0.40205   0.11118   0.41695   0.00000  Uiso   1.00
O136   O     0.39314   0.06408   0.47160   0.00000  Uiso   1.00
N137   N     0.33953   0.21554   0.47500   0.00000  Uiso   1.00
H138   H     0.36815   0.19485   0.47141   0.00000  Uiso   1.00
H139   H     0.35392   0.24266   0.45828   0.00000  Uiso   1.00
N140   N     0.66035   0.11797   0.02499   0.00000  Uiso   1.00
H141   H     0.64596   0.09084   0.04167   0.00000  Uiso   1.00
H142   H     0.63175   0.13868   0.02862   0.00000  Uiso   1.00
N143   N     0.60137   0.04107   0.20991   0.00000  Uiso   1.00
H144   H     0.60877   0.03102   0.17672   0.00000  Uiso   1.00
H145   H     0.56585   0.03205   0.22641   0.00000  Uiso   1.00
N146   N     0.39860   0.29226   0.29012   0.00000  Uiso   1.00
H147   H     0.39110   0.30222   0.32334   0.00000  Uiso   1.00
H148   H     0.43412   0.30137   0.27371   0.00000  Uiso   1.00
O149   O     0.70625   0.10655   0.25000   0.00000  Uiso   1.00
O150   O     0.96042   0.22678   0.25000   0.00000  Uiso   1.00
O151   O     0.96039   0.10654   0.25000   0.00000  Uiso   1.00
O152   O     0.70628   0.22679   0.24999   0.00000  Uiso   1.00
C153   C     0.99997   0.08741   0.24939   0.00000  Uiso   1.00
C154   C     0.66669   0.24593   0.25061   0.00000  Uiso   1.00
O155   O     0.68519   0.16668   0.31491   0.00000  Uiso   1.00
O156   O     0.98148   0.16666   0.18508   0.00000  Uiso   1.00
O157   O     0.93933   0.16667   0.31492   0.00000  Uiso   1.00
O158   O     0.72733   0.16667   0.18508   0.00000  Uiso   1.00
C159   C     0.97274   0.16742   0.33604   0.00000  Uiso   1.00
C160   C     0.69393   0.16591   0.16396   0.00000  Uiso   1.00
Cu161  Cu    0.71355   0.16667   0.25000   0.00000  Uiso   1.00
Cu162  Cu    0.95311   0.16666   0.25000   0.00000  Uiso   1.00
C163   C     0.95768   0.17190   0.38488   0.00000  Uiso   1.00
C164   C     0.70897   0.16145   0.11511   0.00000  Uiso   1.00
C165   C     0.97224   0.19860   0.45308   0.00000  Uiso   1.00
C166   C     0.69435   0.13485   0.04690   0.00000  Uiso   1.00
C167   C     0.98926   0.18811   0.40786   0.00000  Uiso   1.00
C168   C     0.67736   0.14531   0.09214   0.00000  Uiso   1.00
C169   C     0.90971   0.16308   0.40788   0.00000  Uiso   1.00
C170   C     0.75694   0.17025   0.09210   0.00000  Uiso   1.00
C171   C     0.89149   0.17116   0.45390   0.00000  Uiso   1.00
C172   C     0.77511   0.16224   0.04607   0.00000  Uiso   1.00
C173   C     0.92238   0.19208   0.47617   0.00000  Uiso   1.00
C174   C     0.74420   0.14136   0.02379   0.00000  Uiso   1.00
C175   C     0.84274   0.16035   0.47751   0.00000  Uiso   1.00
C176   C     0.82385   0.17307   0.02245   0.00000  Uiso   1.00
C177   C     0.85384   0.19718   0.04221   0.00000  Uiso   1.00
C178   C     0.81272   0.13628   0.45774   0.00000  Uiso   1.00
C179   C     0.90214   0.20610   0.02035   0.00000  Uiso   1.00
C180   C     0.76441   0.12738   0.47959   0.00000  Uiso   1.00
H181   H     0.78004   0.18169   0.11171   0.00000  Uiso   1.00
H182   H     0.88666   0.15157   0.38827   0.00000  Uiso   1.00
H183   H     0.97308   0.13898   0.10972   0.00000  Uiso   1.00
H184   H     0.69353   0.19445   0.39028   0.00000  Uiso   1.00
H185   H     0.84040   0.21140   0.07449   0.00000  Uiso   1.00
H186   H     0.82613   0.12209   0.42543   0.00000  Uiso   1.00
C187   C     0.96721   0.02055   0.23081   0.00000  Uiso   1.00
C188   C     0.69944   0.31278   0.26921   0.00000  Uiso   1.00
C189   C     0.96769   0.31116   0.23199   0.00000  Uiso   1.00
C190   C     0.69896   0.02217   0.26803   0.00000  Uiso   1.00
H191   H     0.94300   0.29413   0.21738   0.00000  Uiso   1.00
H192   H     0.72364   0.03921   0.28265   0.00000  Uiso   1.00
C193   C     0.66698   0.29054   0.25085   0.00000  Uiso   1.00
C194   C     0.99968   0.04280   0.24916   0.00000  Uiso   1.00
C195   C     0.84934   0.14260   0.27945   0.00000  Uiso   1.00
C196   C     0.81732   0.19073   0.22055   0.00000  Uiso   1.00
H197   H     0.86099   0.12326   0.30299   0.00000  Uiso   1.00
H198   H     0.80568   0.21008   0.19701   0.00000  Uiso   1.00
C199   C     0.79973   0.14265   0.27947   0.00000  Uiso   1.00
C200   C     0.86694   0.19069   0.22053   0.00000  Uiso   1.00
H201   H     0.77400   0.12338   0.30304   0.00000  Uiso   1.00
H202   H     0.89267   0.20996   0.19696   0.00000  Uiso   1.00
N203   N     0.78403   0.16668   0.24999   0.00000  Uiso   1.00
N204   N     0.88264   0.16666   0.25001   0.00000  Uiso   1.00
N205   N     0.92856   0.23219   0.04297   0.00000  Uiso   1.00
O206   O     0.94001   0.26944   0.02830   0.00000  Uiso   1.00
O207   O     0.93114   0.22240   0.08299   0.00000  Uiso   1.00
N208   N     0.73796   0.10135   0.45696   0.00000  Uiso   1.00
O209   O     0.73538   0.11118   0.41695   0.00000  Uiso   1.00
O210   O     0.72648   0.06408   0.47160   0.00000  Uiso   1.00
N211   N     0.67287   0.21554   0.47500   0.00000  Uiso   1.00
H212   H     0.70148   0.19485   0.47141   0.00000  Uiso   1.00
H213   H     0.68725   0.24266   0.45828   0.00000  Uiso   1.00
N214   N     0.99369   0.11797   0.02499   0.00000  Uiso   1.00
H215   H     0.97929   0.09084   0.04167   0.00000  Uiso   1.00
H216   H     0.96508   0.13868   0.02862   0.00000  Uiso   1.00
N217   N     0.93471   0.04107   0.20991   0.00000  Uiso   1.00
H218   H     0.94210   0.03102   0.17672   0.00000  Uiso   1.00
H219   H     0.89918   0.03205   0.22641   0.00000  Uiso   1.00
N220   N     0.73193   0.29226   0.29012   0.00000  Uiso   1.00
H221   H     0.72443   0.30222   0.32334   0.00000  Uiso   1.00
H222   H     0.76746   0.30137   0.27371   0.00000  Uiso   1.00
O223   O     0.03958   0.43989   0.25000   0.00000  Uiso   1.00
O224   O     0.29375   0.56011   0.25000   0.00000  Uiso   1.00
O225   O     0.29372   0.43988   0.25000   0.00000  Uiso   1.00
O226   O     0.03961   0.56012   0.24999   0.00000  Uiso   1.00
C227   C     0.33331   0.42074   0.24939   0.00000  Uiso   1.00
C228   C     0.00002   0.57926   0.25061   0.00000  Uiso   1.00
O229   O     0.01852   0.50001   0.31491   0.00000  Uiso   1.00
O230   O     0.31481   0.49999   0.18508   0.00000  Uiso   1.00
O231   O     0.27267   0.50000   0.31492   0.00000  Uiso   1.00
O232   O     0.06067   0.50000   0.18508   0.00000  Uiso   1.00
C233   C     0.30607   0.50075   0.33604   0.00000  Uiso   1.00
C234   C     0.02726   0.49925   0.16396   0.00000  Uiso   1.00
Cu235  Cu    0.04689   0.50001   0.25000   0.00000  Uiso   1.00
Cu236  Cu    0.28645   0.49999   0.25000   0.00000  Uiso   1.00
C237   C     0.29101   0.50524   0.38488   0.00000  Uiso   1.00
C238   C     0.04231   0.49478   0.11511   0.00000  Uiso   1.00
C239   C     0.30557   0.53194   0.45308   0.00000  Uiso   1.00
C240   C     0.02768   0.46819   0.04690   0.00000  Uiso   1.00
C241   C     0.32259   0.52144   0.40786   0.00000  Uiso   1.00
C242   C     0.01069   0.47864   0.09214   0.00000  Uiso   1.00
C243   C     0.24305   0.49641   0.40788   0.00000  Uiso   1.00
C244   C     0.09027   0.50358   0.09210   0.00000  Uiso   1.00
C245   C     0.22482   0.50449   0.45390   0.00000  Uiso   1.00
C246   C     0.10845   0.49558   0.04607   0.00000  Uiso   1.00
C247   C     0.25572   0.52542   0.47617   0.00000  Uiso   1.00
C248   C     0.07753   0.47470   0.02379   0.00000  Uiso   1.00
C249   C     0.17607   0.49369   0.47751   0.00000  Uiso   1.00
C250   C     0.15719   0.50641   0.02245   0.00000  Uiso   1.00
C251   C     0.18718   0.53052   0.04221   0.00000  Uiso   1.00
C252   C     0.14605   0.46961   0.45774   0.00000  Uiso   1.00
C253   C     0.23548   0.53944   0.02035   0.00000  Uiso   1.00
C254   C     0.09774   0.46071   0.47959   0.00000  Uiso   1.00
H255   H     0.11338   0.51502   0.11171   0.00000  Uiso   1.00
H256   H     0.21999   0.48490   0.38827   0.00000  Uiso   1.00
H257   H     0.30642   0.47232   0.10972   0.00000  Uiso   1.00
H258   H     0.02687   0.52779   0.39028   0.00000  Uiso   1.00
H259   H     0.17373   0.54473   0.07449   0.00000  Uiso   1.00
H260   H     0.15946   0.45543   0.42543   0.00000  Uiso   1.00
C261   C     0.30054   0.35388   0.23081   0.00000  Uiso   1.00
C262   C     0.03278   0.64612   0.26921   0.00000  Uiso   1.00
C263   C     0.30103   0.64449   0.23199   0.00000  Uiso   1.00
C264   C     0.03229   0.35551   0.26803   0.00000  Uiso   1.00
H265   H     0.27634   0.62746   0.21738   0.00000  Uiso   1.00
H266   H     0.05697   0.37254   0.28265   0.00000  Uiso   1.00
C267   C     0.00031   0.62387   0.25085   0.00000  Uiso   1.00
C268   C     0.33301   0.37613   0.24916   0.00000  Uiso   1.00
C269   C     0.18268   0.47594   0.27945   0.00000  Uiso   1.00
C270   C     0.15066   0.52406   0.22055   0.00000  Uiso   1.00
H271   H     0.19432   0.45659   0.30299   0.00000  Uiso   1.00
H272   H     0.13901   0.54341   0.19701   0.00000  Uiso   1.00
C273   C     0.13306   0.47598   0.27947   0.00000  Uiso   1.00
C274   C     0.20027   0.52402   0.22053   0.00000  Uiso   1.00
H275   H     0.10733   0.45671   0.30304   0.00000  Uiso   1.00
H276   H     0.22600   0.54329   0.19696   0.00000  Uiso   1.00
N277   N     0.11736   0.50001   0.24999   0.00000  Uiso   1.00
N278   N     0.21597   0.49999   0.25001   0.00000  Uiso   1.00
N279   N     0.26189   0.56552   0.04297   0.00000  Uiso   1.00
O280   O     0.27335   0.60278   0.02830   0.00000  Uiso   1.00
O281   O     0.26447   0.55573   0.08299   0.00000  Uiso   1.00
N282   N     0.07130   0.43468   0.45696   0.00000  Uiso   1.00
O283   O     0.06872   0.44451   0.41695   0.00000  Uiso   1.00
O284   O     0.05981   0.39742   0.47160   0.00000  Uiso   1.00
N285   N     0.00620   0.54887   0.47500   0.00000  Uiso   1.00
H286   H     0.03482   0.52818   0.47141   0.00000  Uiso   1.00
H287   H     0.02059   0.57599   0.45828   0.00000  Uiso   1.00
N288   N     0.32702   0.45130   0.02499   0.00000  Uiso   1.00
H289   H     0.31263   0.42417   0.04167   0.00000  Uiso   1.00
H290   H     0.29841   0.47201   0.02862   0.00000  Uiso   1.00
N291   N     0.26804   0.37440   0.20991   0.00000  Uiso   1.00
H292   H     0.27543   0.36436   0.17672   0.00000  Uiso   1.00
H293   H     0.23251   0.36538   0.22641   0.00000  Uiso   1.00
N294   N     0.06527   0.62560   0.29012   0.00000  Uiso   1.00
H295   H     0.05776   0.63556   0.32334   0.00000  Uiso   1.00
H296   H     0.10079   0.63470   0.27371   0.00000  Uiso   1.00
O297   O     0.37291   0.43989   0.25000   0.00000  Uiso   1.00
O298   O     0.62709   0.56011   0.25000   0.00000  Uiso   1.00
O299   O     0.62706   0.43988   0.25000   0.00000  Uiso   1.00
O300   O     0.37294   0.56012   0.24999   0.00000  Uiso   1.00
C301   C     0.66664   0.42074   0.24939   0.00000  Uiso   1.00
C302   C     0.33336   0.57926   0.25061   0.00000  Uiso   1.00
O303   O     0.35186   0.50001   0.31491   0.00000  Uiso   1.00
O304   O     0.64814   0.49999   0.18508   0.00000  Uiso   1.00
O305   O     0.60600   0.50000   0.31492   0.00000  Uiso   1.00
O306   O     0.39400   0.50000   0.18508   0.00000  Uiso   1.00
C307   C     0.63940   0.50075   0.33604   0.00000  Uiso   1.00
C308   C     0.36059   0.49925   0.16396   0.00000  Uiso   1.00
Cu309  Cu    0.38022   0.50001   0.25000   0.00000  Uiso   1.00
Cu310  Cu    0.61978   0.49999   0.25000   0.00000  Uiso   1.00
C311   C     0.62434   0.50524   0.38488   0.00000  Uiso   1.00
C312   C     0.37564   0.49478   0.11511   0.00000  Uiso   1.00
C313   C     0.63891   0.53194   0.45308   0.00000  Uiso   1.00
C314   C     0.36101   0.46819   0.04690   0.00000  Uiso   1.00
C315   C     0.65593   0.52144   0.40786   0.00000  Uiso   1.00
C316   C     0.34402   0.47864   0.09214   0.00000  Uiso   1.00
C317   C     0.57638   0.49641   0.40788   0.00000  Uiso   1.00
C318   C     0.42360   0.50358   0.09210   0.00000  Uiso   1.00
C319   C     0.55816   0.50449   0.45390   0.00000  Uiso   1.00
C320   C     0.44178   0.49558   0.04607   0.00000  Uiso   1.00
C321   C     0.58905   0.52542   0.47617   0.00000  Uiso   1.00
C322   C     0.41086   0.47470   0.02379   0.00000  Uiso   1.00
C323   C     0.50940   0.49369   0.47751   0.00000  Uiso   1.00
C324   C     0.49052   0.50641   0.02245   0.00000  Uiso   1.00
C325   C     0.52051   0.53052   0.04221   0.00000  Uiso   1.00
C326   C     0.47938   0.46961   0.45774   0.00000  Uiso   1.00
C327   C     0.56881   0.53944   0.02035   0.00000  Uiso   1.00
C328   C     0.43108   0.46071   0.47959   0.00000  Uiso   1.00
H329   H     0.44671   0.51502   0.11171   0.00000  Uiso   1.00
H330   H     0.55332   0.48490   0.38827   0.00000  Uiso   1.00
H331   H     0.63975   0.47232   0.10972   0.00000  Uiso   1.00
H332   H     0.36020   0.52779   0.39028   0.00000  Uiso   1.00
H333   H     0.50706   0.54473   0.07449   0.00000  Uiso   1.00
H334   H     0.49279   0.45543   0.42543   0.00000  Uiso   1.00
C335   C     0.63388   0.35388   0.23081   0.00000  Uiso   1.00
C336   C     0.36611   0.64612   0.26921   0.00000  Uiso   1.00
C337   C     0.63436   0.64449   0.23199   0.00000  Uiso   1.00
C338   C     0.36563   0.35551   0.26803   0.00000  Uiso   1.00
H339   H     0.60967   0.62746   0.21738   0.00000  Uiso   1.00
H340   H     0.39030   0.37254   0.28265   0.00000  Uiso   1.00
C341   C     0.33365   0.62387   0.25085   0.00000  Uiso   1.00
C342   C     0.66635   0.37613   0.24916   0.00000  Uiso   1.00
C343   C     0.51601   0.47594   0.27945   0.00000  Uiso   1.00
C344   C     0.48399   0.52406   0.22055   0.00000  Uiso   1.00
H345   H     0.52765   0.45659   0.30299   0.00000  Uiso   1.00
H346   H     0.47235   0.54341   0.19701   0.00000  Uiso   1.00
C347   C     0.46640   0.47598   0.27947   0.00000  Uiso   1.00
C348   C     0.53360   0.52402   0.22053   0.00000  Uiso   1.00
H349   H     0.44066   0.45671   0.30304   0.00000  Uiso   1.00
H350   H     0.55934   0.54329   0.19696   0.00000  Uiso   1.00
N351   N     0.45069   0.50001   0.24999   0.00000  Uiso   1.00
N352   N     0.54931   0.49999   0.25001   0.00000  Uiso   1.00
N353   N     0.59522   0.56552   0.04297   0.00000  Uiso   1.00
O354   O     0.60668   0.60278   0.02830   0.00000  Uiso   1.00
O355   O     0.59780   0.55573   0.08299   0.00000  Uiso   1.00
N356   N     0.40463   0.43468   0.45696   0.00000  Uiso   1.00
O357   O     0.40205   0.44451   0.41695   0.00000  Uiso   1.00
O358   O     0.39314   0.39742   0.47160   0.00000  Uiso   1.00
N359   N     0.33953   0.54887   0.47500   0.00000  Uiso   1.00
H360   H     0.36815   0.52818   0.47141   0.00000  Uiso   1.00
H361   H     0.35392   0.57599   0.45828   0.00000  Uiso   1.00
N362   N     0.66035   0.45130   0.02499   0.00000  Uiso   1.00
H363   H     0.64596   0.42417   0.04167   0.00000  Uiso   1.00
H364   H     0.63175   0.47201   0.02862   0.00000  Uiso   1.00
N365   N     0.60137   0.37440   0.20991   0.00000  Uiso   1.00
H366   H     0.60877   0.36436   0.17672   0.00000  Uiso   1.00
H367   H     0.56585   0.36538   0.22641   0.00000  Uiso   1.00
N368   N     0.39860   0.62560   0.29012   0.00000  Uiso   1.00
H369   H     0.39110   0.63556   0.32334   0.00000  Uiso   1.00
H370   H     0.43412   0.63470   0.27371   0.00000  Uiso   1.00
O371   O     0.70625   0.43989   0.25000   0.00000  Uiso   1.00
O372   O     0.96042   0.56011   0.25000   0.00000  Uiso   1.00
O373   O     0.96039   0.43988   0.25000   0.00000  Uiso   1.00
O374   O     0.70628   0.56012   0.24999   0.00000  Uiso   1.00
C375   C     0.99997   0.42074   0.24939   0.00000  Uiso   1.00
C376   C     0.66669   0.57926   0.25061   0.00000  Uiso   1.00
O377   O     0.68519   0.50001   0.31491   0.00000  Uiso   1.00
O378   O     0.98148   0.49999   0.18508   0.00000  Uiso   1.00
O379   O     0.93933   0.50000   0.31492   0.00000  Uiso   1.00
O380   O     0.72733   0.50000   0.18508   0.00000  Uiso   1.00
C381   C     0.97274   0.50075   0.33604   0.00000  Uiso   1.00
C382   C     0.69393   0.49925   0.16396   0.00000  Uiso   1.00
Cu383  Cu    0.71355   0.50001   0.25000   0.00000  Uiso   1.00
Cu384  Cu    0.95311   0.49999   0.25000   0.00000  Uiso   1.00
C385   C     0.95768   0.50524   0.38488   0.00000  Uiso   1.00
C386   C     0.70897   0.49478   0.11511   0.00000  Uiso   1.00
C387   C     0.97224   0.53194   0.45308   0.00000  Uiso   1.00
C388   C     0.69435   0.46819   0.04690   0.00000  Uiso   1.00
C389   C     0.98926   0.52144   0.40786   0.00000  Uiso   1.00
C390   C     0.67736   0.47864   0.09214   0.00000  Uiso   1.00
C391   C     0.90971   0.49641   0.40788   0.00000  Uiso   1.00
C392   C     0.75694   0.50358   0.09210   0.00000  Uiso   1.00
C393   C     0.89149   0.50449   0.45390   0.00000  Uiso   1.00
C394   C     0.77511   0.49558   0.04607   0.00000  Uiso   1.00
C395   C     0.92238   0.52542   0.47617   0.00000  Uiso   1.00
C396   C     0.74420   0.47470   0.02379   0.00000  Uiso   1.00
C397   C     0.84274   0.49369   0.47751   0.00000  Uiso   1.00
C398   C     0.82385   0.50641   0.02245   0.00000  Uiso   1.00
C399   C     0.85384   0.53052   0.04221   0.00000  Uiso   1.00
C400   C     0.81272   0.46961   0.45774   0.00000  Uiso   1.00
C401   C     0.90214   0.53944   0.02035   0.00000  Uiso   1.00
C402   C     0.76441   0.46071   0.47959   0.00000  Uiso   1.00
H403   H     0.78004   0.51502   0.11171   0.00000  Uiso   1.00
H404   H     0.88666   0.48490   0.38827   0.00000  Uiso   1.00
H405   H     0.97308   0.47232   0.10972   0.00000  Uiso   1.00
H406   H     0.69353   0.52779   0.39028   0.00000  Uiso   1.00
H407   H     0.84040   0.54473   0.07449   0.00000  Uiso   1.00
H408   H     0.82613   0.45543   0.42543   0.00000  Uiso   1.00
C409   C     0.96721   0.35388   0.23081   0.00000  Uiso   1.00
C410   C     0.69944   0.64612   0.26921   0.00000  Uiso   1.00
C411   C     0.96769   0.64449   0.23199   0.00000  Uiso   1.00
C412   C     0.69896   0.35551   0.26803   0.00000  Uiso   1.00
H413   H     0.94300   0.62746   0.21738   0.00000  Uiso   1.00
H414   H     0.72364   0.37254   0.28265   0.00000  Uiso   1.00
C415   C     0.66698   0.62387   0.25085   0.00000  Uiso   1.00
C416   C     0.99968   0.37613   0.24916   0.00000  Uiso   1.00
C417   C     0.84934   0.47594   0.27945   0.00000  Uiso   1.00
C418   C     0.81732   0.52406   0.22055   0.00000  Uiso   1.00
H419   H     0.86099   0.45659   0.30299   0.00000  Uiso   1.00
H420   H     0.80568   0.54341   0.19701   0.00000  Uiso   1.00
C421   C     0.79973   0.47598   0.27947   0.00000  Uiso   1.00
C422   C     0.86694   0.52402   0.22053   0.00000  Uiso   1.00
H423   H     0.77400   0.45671   0.30304   0.00000  Uiso   1.00
H424   H     0.89267   0.54329   0.19696   0.00000  Uiso   1.00
N425   N     0.78403   0.50001   0.24999   0.00000  Uiso   1.00
N426   N     0.88264   0.49999   0.25001   0.00000  Uiso   1.00
N427   N     0.92856   0.56552   0.04297   0.00000  Uiso   1.00
O428   O     0.94001   0.60278   0.02830   0.00000  Uiso   1.00
O429   O     0.93114   0.55573   0.08299   0.00000  Uiso   1.00
N430   N     0.73796   0.43468   0.45696   0.00000  Uiso   1.00
O431   O     0.73538   0.44451   0.41695   0.00000  Uiso   1.00
O432   O     0.72648   0.39742   0.47160   0.00000  Uiso   1.00
N433   N     0.67287   0.54887   0.47500   0.00000  Uiso   1.00
H434   H     0.70148   0.52818   0.47141   0.00000  Uiso   1.00
H435   H     0.68725   0.57599   0.45828   0.00000  Uiso   1.00
N436   N     0.99369   0.45130   0.02499   0.00000  Uiso   1.00
H437   H     0.97929   0.42417   0.04167   0.00000  Uiso   1.00
H438   H     0.96508   0.47201   0.02862   0.00000  Uiso   1.00
N439   N     0.93471   0.37440   0.20991   0.00000  Uiso   1.00
H440   H     0.94210   0.36436   0.17672   0.00000  Uiso   1.00
H441   H     0.89918   0.36538   0.22641   0.00000  Uiso   1.00
N442   N     0.73193   0.62560   0.29012   0.00000  Uiso   1.00
H443   H     0.72443   0.63556   0.32334   0.00000  Uiso   1.00
H444   H     0.76746   0.63470   0.27371   0.00000  Uiso   1.00
O445   O     0.03958   0.77322   0.25000   0.00000  Uiso   1.00
O446   O     0.29375   0.89345   0.25000   0.00000  Uiso   1.00
O447   O     0.29372   0.77321   0.25000   0.00000  Uiso   1.00
O448   O     0.03961   0.89346   0.24999   0.00000  Uiso   1.00
C449   C     0.33331   0.75407   0.24939   0.00000  Uiso   1.00
C450   C     0.00002   0.91259   0.25061   0.00000  Uiso   1.00
O451   O     0.01852   0.83334   0.31491   0.00000  Uiso   1.00
O452   O     0.31481   0.83332   0.18508   0.00000  Uiso   1.00
O453   O     0.27267   0.83333   0.31492   0.00000  Uiso   1.00
O454   O     0.06067   0.83333   0.18508   0.00000  Uiso   1.00
C455   C     0.30607   0.83409   0.33604   0.00000  Uiso   1.00
C456   C     0.02726   0.83258   0.16396   0.00000  Uiso   1.00
Cu457  Cu    0.04689   0.83334   0.25000   0.00000  Uiso   1.00
Cu458  Cu    0.28645   0.83333   0.25000   0.00000  Uiso   1.00
C459   C     0.29101   0.83857   0.38488   0.00000  Uiso   1.00
C460   C     0.04231   0.82812   0.11511   0.00000  Uiso   1.00
C461   C     0.30557   0.86527   0.45308   0.00000  Uiso   1.00
C462   C     0.02768   0.80152   0.04690   0.00000  Uiso   1.00
C463   C     0.32259   0.85477   0.40786   0.00000  Uiso   1.00
C464   C     0.01069   0.81198   0.09214   0.00000  Uiso   1.00
C465   C     0.24305   0.82975   0.40788   0.00000  Uiso   1.00
C466   C     0.09027   0.83692   0.09210   0.00000  Uiso   1.00
C467   C     0.22482   0.83783   0.45390   0.00000  Uiso   1.00
C468   C     0.10845   0.82891   0.04607   0.00000  Uiso   1.00
C469   C     0.25572   0.85875   0.47617   0.00000  Uiso   1.00
C470   C     0.07753   0.80803   0.02379   0.00000  Uiso   1.00
C471   C     0.17607   0.82702   0.47751   0.00000  Uiso   1.00
C472   C     0.15719   0.83974   0.02245   0.00000  Uiso   1.00
C473   C     0.18718   0.86385   0.04221   0.00000  Uiso   1.00
C474   C     0.14605   0.80295   0.45774   0.00000  Uiso   1.00
C475   C     0.23548   0.87277   0.02035   0.00000  Uiso   1.00
C476   C     0.09774   0.79405   0.47959   0.00000  Uiso   1.00
H477   H     0.11338   0.84835   0.11171   0.00000  Uiso   1.00
H478   H     0.21999   0.81823   0.38827   0.00000  Uiso   1.00
H479   H     0.30642   0.80565   0.10972   0.00000  Uiso   1.00
H480   H     0.02687   0.86112   0.39028   0.00000  Uiso   1.00
H481   H     0.17373   0.87807   0.07449   0.00000  Uiso   1.00
H482   H     0.15946   0.78876   0.42543   0.00000  Uiso   1.00
C483   C     0.30054   0.68722   0.23081   0.00000  Uiso   1.00
C484   C     0.03278   0.97945   0.26921   0.00000  Uiso   1.00
C485   C     0.30103   0.97783   0.23199   0.00000  Uiso   1.00
C486   C     0.03229   0.68884   0.26803   0.00000  Uiso   1.00
H487   H     0.27634   0.96079   0.21738   0.00000  Uiso   1.00
H488   H     0.05697   0.70588   0.28265   0.00000  Uiso   1.00
C489   C     0.00031   0.95720   0.25085   0.00000  Uiso   1.00
C490   C     0.33301   0.70946   0.24916   0.00000  Uiso   1.00
C491   C     0.18268   0.80927   0.27945   0.00000  Uiso   1.00
C492   C     0.15066   0.85740   0.22055   0.00000  Uiso   1.00
H493   H     0.19432   0.78992   0.30299   0.00000  Uiso   1.00
H494   H     0.13901   0.87674   0.19701   0.00000  Uiso   1.00
C495   C     0.13306   0.80931   0.27947   0.00000  Uiso   1.00
C496   C     0.20027   0.85735   0.22053   0.00000  Uiso   1.00
H497   H     0.10733   0.79004   0.30304   0.00000  Uiso   1.00
H498   H     0.22600   0.87662   0.19696   0.00000  Uiso   1.00
N499   N     0.11736   0.83334   0.24999   0.00000  Uiso   1.00
N500   N     0.21597   0.83332   0.25001   0.00000  Uiso   1.00
N501   N     0.26189   0.89885   0.04297   0.00000  Uiso   1.00
O502   O     0.27335   0.93611   0.02830   0.00000  Uiso   1.00
O503   O     0.26447   0.88907   0.08299   0.00000  Uiso   1.00
N504   N     0.07130   0.76802   0.45696   0.00000  Uiso   1.00
O505   O     0.06872   0.77784   0.41695   0.00000  Uiso   1.00
O506   O     0.05981   0.73075   0.47160   0.00000  Uiso   1.00
N507   N     0.00620   0.88221   0.47500   0.00000  Uiso   1.00
H508   H     0.03482   0.86151   0.47141   0.00000  Uiso   1.00
H509   H     0.02059   0.90933   0.45828   0.00000  Uiso   1.00
N510   N     0.32702   0.78464   0.02499   0.00000  Uiso   1.00
H511   H     0.31263   0.75751   0.04167   0.00000  Uiso   1.00
H512   H     0.29841   0.80535   0.02862   0.00000  Uiso   1.00
N513   N     0.26804   0.70774   0.20991   0.00000  Uiso   1.00
H514   H     0.27543   0.69769   0.17672   0.00000  Uiso   1.00
H515   H     0.23251   0.69871   0.22641   0.00000  Uiso   1.00
N516   N     0.06527   0.95893   0.29012   0.00000  Uiso   1.00
H517   H     0.05776   0.96889   0.32334   0.00000  Uiso   1.00
H518   H     0.10079   0.96804   0.27371   0.00000  Uiso   1.00
O519   O     0.37291   0.77322   0.25000   0.00000  Uiso   1.00
O520   O     0.62709   0.89345   0.25000   0.00000  Uiso   1.00
O521   O     0.62706   0.77321   0.25000   0.00000  Uiso   1.00
O522   O     0.37294   0.89346   0.24999   0.00000  Uiso   1.00
C523   C     0.66664   0.75407   0.24939   0.00000  Uiso   1.00
C524   C     0.33336   0.91259   0.25061   0.00000  Uiso   1.00
O525   O     0.35186   0.83334   0.31491   0.00000  Uiso   1.00
O526   O     0.64814   0.83332   0.18508   0.00000  Uiso   1.00
O527   O     0.60600   0.83333   0.31492   0.00000  Uiso   1.00
O528   O     0.39400   0.83333   0.18508   0.00000  Uiso   1.00
C529   C     0.63940   0.83409   0.33604   0.00000  Uiso   1.00
C530   C     0.36059   0.83258   0.16396   0.00000  Uiso   1.00
Cu531  Cu    0.38022   0.83334   0.25000   0.00000  Uiso   1.00
Cu532  Cu    0.61978   0.83333   0.25000   0.00000  Uiso   1.00
C533   C     0.62434   0.83857   0.38488   0.00000  Uiso   1.00
C534   C     0.37564   0.82812   0.11511   0.00000  Uiso   1.00
C535   C     0.63891   0.86527   0.45308   0.00000  Uiso   1.00
C536   C     0.36101   0.80152   0.04690   0.00000  Uiso   1.00
C537   C     0.65593   0.85477   0.40786   0.00000  Uiso   1.00
C538   C     0.34402   0.81198   0.09214   0.00000  Uiso   1.00
C539   C     0.57638   0.82975   0.40788   0.00000  Uiso   1.00
C540   C     0.42360   0.83692   0.09210   0.00000  Uiso   1.00
C541   C     0.55816   0.83783   0.45390   0.00000  Uiso   1.00
C542   C     0.44178   0.82891   0.04607   0.00000  Uiso   1.00
C543   C     0.58905   0.85875   0.47617   0.00000  Uiso   1.00
C544   C     0.41086   0.80803   0.02379   0.00000  Uiso   1.00
C545   C     0.50940   0.82702   0.47751   0.00000  Uiso   1.00
C546   C     0.49052   0.83974   0.02245   0.00000  Uiso   1.00
C547   C     0.52051   0.86385   0.04221   0.00000  Uiso   1.00
C548   C     0.47938   0.80295   0.45774   0.00000  Uiso   1.00
C549   C     0.56881   0.87277   0.02035   0.00000  Uiso   1.00
C550   C     0.43108   0.79405   0.47959   0.00000  Uiso   1.00
H551   H     0.44671   0.84835   0.11171   0.00000  Uiso   1.00
H552   H     0.55332   0.81823   0.38827   0.00000  Uiso   1.00
H553   H     0.63975   0.80565   0.10972   0.00000  Uiso   1.00
H554   H     0.36020   0.86112   0.39028   0.00000  Uiso   1.00
H555   H     0.50706   0.87807   0.07449   0.00000  Uiso   1.00
H556   H     0.49279   0.78876   0.42543   0.00000  Uiso   1.00
C557   C     0.63388   0.68722   0.23081   0.00000  Uiso   1.00
C558   C     0.36611   0.97945   0.26921   0.00000  Uiso   1.00
C559   C     0.63436   0.97783   0.23199   0.00000  Uiso   1.00
C560   C     0.36563   0.68884   0.26803   0.00000  Uiso   1.00
H561   H     0.60967   0.96079   0.21738   0.00000  Uiso   1.00
H562   H     0.39030   0.70588   0.28265   0.00000  Uiso   1.00
C563   C     0.33365   0.95720   0.25085   0.00000  Uiso   1.00
C564   C     0.66635   0.70946   0.24916   0.00000  Uiso   1.00
C565   C     0.51601   0.80927   0.27945   0.00000  Uiso   1.00
C566   C     0.48399   0.85740   0.22055   0.00000  Uiso   1.00
H567   H     0.52765   0.78992   0.30299   0.00000  Uiso   1.00
H568   H     0.47235   0.87674   0.19701   0.00000  Uiso   1.00
C569   C     0.46640   0.80931   0.27947   0.00000  Uiso   1.00
C570   C     0.53360   0.85735   0.22053   0.00000  Uiso   1.00
H571   H     0.44066   0.79004   0.30304   0.00000  Uiso   1.00
H572   H     0.55934   0.87662   0.19696   0.00000  Uiso   1.00
N573   N     0.45069   0.83334   0.24999   0.00000  Uiso   1.00
N574   N     0.54931   0.83332   0.25001   0.00000  Uiso   1.00
N575   N     0.59522   0.89885   0.04297   0.00000  Uiso   1.00
O576   O     0.60668   0.93611   0.02830   0.00000  Uiso   1.00
O577   O     0.59780   0.88907   0.08299   0.00000  Uiso   1.00
N578   N     0.40463   0.76802   0.45696   0.00000  Uiso   1.00
O579   O     0.40205   0.77784   0.41695   0.00000  Uiso   1.00
O580   O     0.39314   0.73075   0.47160   0.00000  Uiso   1.00
N581   N     0.33953   0.88221   0.47500   0.00000  Uiso   1.00
H582   H     0.36815   0.86151   0.47141   0.00000  Uiso   1.00
H583   H     0.35392   0.90933   0.45828   0.00000  Uiso   1.00
N584   N     0.66035   0.78464   0.02499   0.00000  Uiso   1.00
H585   H     0.64596   0.75751   0.04167   0.00000  Uiso   1.00
H586   H     0.63175   0.80535   0.02862   0.00000  Uiso   1.00
N587   N     0.60137   0.70774   0.20991   0.00000  Uiso   1.00
H588   H     0.60877   0.69769   0.17672   0.00000  Uiso   1.00
H589   H     0.56585   0.69871   0.22641   0.00000  Uiso   1.00
N590   N     0.39860   0.95893   0.29012   0.00000  Uiso   1.00
H591   H     0.39110   0.96889   0.32334   0.00000  Uiso   1.00
H592   H     0.43412   0.96804   0.27371   0.00000  Uiso   1.00
O593   O     0.70625   0.77322   0.25000   0.00000  Uiso   1.00
O594   O     0.96042   0.89345   0.25000   0.00000  Uiso   1.00
O595   O     0.96039   0.77321   0.25000   0.00000  Uiso   1.00
O596   O     0.70628   0.89346   0.24999   0.00000  Uiso   1.00
C597   C     0.99997   0.75407   0.24939   0.00000  Uiso   1.00
C598   C     0.66669   0.91259   0.25061   0.00000  Uiso   1.00
O599   O     0.68519   0.83334   0.31491   0.00000  Uiso   1.00
O600   O     0.98148   0.83332   0.18508   0.00000  Uiso   1.00
O601   O     0.93933   0.83333   0.31492   0.00000  Uiso   1.00
O602   O     0.72733   0.83333   0.18508   0.00000  Uiso   1.00
C603   C     0.97274   0.83409   0.33604   0.00000  Uiso   1.00
C604   C     0.69393   0.83258   0.16396   0.00000  Uiso   1.00
Cu605  Cu    0.71355   0.83334   0.25000   0.00000  Uiso   1.00
Cu606  Cu    0.95311   0.83333   0.25000   0.00000  Uiso   1.00
C607   C     0.95768   0.83857   0.38488   0.00000  Uiso   1.00
C608   C     0.70897   0.82812   0.11511   0.00000  Uiso   1.00
C609   C     0.97224   0.86527   0.45308   0.00000  Uiso   1.00
C610   C     0.69435   0.80152   0.04690   0.00000  Uiso   1.00
C611   C     0.98926   0.85477   0.40786   0.00000  Uiso   1.00
C612   C     0.67736   0.81198   0.09214   0.00000  Uiso   1.00
C613   C     0.90971   0.82975   0.40788   0.00000  Uiso   1.00
C614   C     0.75694   0.83692   0.09210   0.00000  Uiso   1.00
C615   C     0.89149   0.83783   0.45390   0.00000  Uiso   1.00
C616   C     0.77511   0.82891   0.04607   0.00000  Uiso   1.00
C617   C     0.92238   0.85875   0.47617   0.00000  Uiso   1.00
C618   C     0.74420   0.80803   0.02379   0.00000  Uiso   1.00
C619   C     0.84274   0.82702   0.47751   0.00000  Uiso   1.00
C620   C     0.82385   0.83974   0.02245   0.00000  Uiso   1.00
C621   C     0.85384   0.86385   0.04221   0.00000  Uiso   1.00
C622   C     0.81272   0.80295   0.45774   0.00000  Uiso   1.00
C623   C     0.90214   0.87277   0.02035   0.00000  Uiso   1.00
C624   C     0.76441   0.79405   0.47959   0.00000  Uiso   1.00
H625   H     0.78004   0.84835   0.11171   0.00000  Uiso   1.00
H626   H     0.88666   0.81823   0.38827   0.00000  Uiso   1.00
H627   H     0.97308   0.80565   0.10972   0.00000  Uiso   1.00
H628   H     0.69353   0.86112   0.39028   0.00000  Uiso   1.00
H629   H     0.84040   0.87807   0.07449   0.00000  Uiso   1.00
H630   H     0.82613   0.78876   0.42543   0.00000  Uiso   1.00
C631   C     0.96721   0.68722   0.23081   0.00000  Uiso   1.00
C632   C     0.69944   0.97945   0.26921   0.00000  Uiso   1.00
C633   C     0.96769   0.97783   0.23199   0.00000  Uiso   1.00
C634   C     0.69896   0.68884   0.26803   0.00000  Uiso   1.00
H635   H     0.94300   0.96079   0.21738   0.00000  Uiso   1.00
H636   H     0.72364   0.70588   0.28265   0.00000  Uiso   1.00
C637   C     0.66698   0.95720   0.25085   0.00000  Uiso   1.00
C638   C     0.99968   0.70946   0.24916   0.00000  Uiso   1.00
C639   C     0.84934   0.80927   0.27945   0.00000  Uiso   1.00
C640   C     0.81732   0.85740   0.22055   0.00000  Uiso   1.00
H641   H     0.86099   0.78992   0.30299   0.00000  Uiso   1.00
H642   H     0.80568   0.87674   0.19701   0.00000  Uiso   1.00
C643   C     0.79973   0.80931   0.27947   0.00000  Uiso   1.00
C644   C     0.86694   0.85735   0.22053   0.00000  Uiso   1.00
H645   H     0.77400   0.79004   0.30304   0.00000  Uiso   1.00
H646   H     0.89267   0.87662   0.19696   0.00000  Uiso   1.00
N647   N     0.78403   0.83334   0.24999   0.00000  Uiso   1.00
N648   N     0.88264   0.83332   0.25001   0.00000  Uiso   1.00
N649   N     0.92856   0.89885   0.04297   0.00000  Uiso   1.00
O650   O     0.94001   0.93611   0.02830   0.00000  Uiso   1.00
O651   O     0.93114   0.88907   0.08299   0.00000  Uiso   1.00
N652   N     0.73796   0.76802   0.45696   0.00000  Uiso   1.00
O653   O     0.73538   0.77784   0.41695   0.00000  Uiso   1.00
O654   O     0.72648   0.73075   0.47160   0.00000  Uiso   1.00
N655   N     0.67287   0.88221   0.47500   0.00000  Uiso   1.00
H656   H     0.70148   0.86151   0.47141   0.00000  Uiso   1.00
H657   H     0.68725   0.90933   0.45828   0.00000  Uiso   1.00
N658   N     0.99369   0.78464   0.02499   0.00000  Uiso   1.00
H659   H     0.97929   0.75751   0.04167   0.00000  Uiso   1.00
H660   H     0.96508   0.80535   0.02862   0.00000  Uiso   1.00
N661   N     0.93471   0.70774   0.20991   0.00000  Uiso   1.00
H662   H     0.94210   0.69769   0.17672   0.00000  Uiso   1.00
H663   H     0.89918   0.69871   0.22641   0.00000  Uiso   1.00
N664   N     0.73193   0.95893   0.29012   0.00000  Uiso   1.00
H665   H     0.72443   0.96889   0.32334   0.00000  Uiso   1.00
H666   H     0.76746   0.96804   0.27371   0.00000  Uiso   1.00
O667   O     0.03958   0.10655   0.75000   0.00000  Uiso   1.00
O668   O     0.29375   0.22678   0.75000   0.00000  Uiso   1.00
O669   O     0.29372   0.10654   0.75000   0.00000  Uiso   1.00
O670   O     0.03961   0.22679   0.74999   0.00000  Uiso   1.00
C671   C     0.33331   0.08741   0.74939   0.00000  Uiso   1.00
C672   C     0.00002   0.24593   0.75061   0.00000  Uiso   1.00
O673   O     0.01852   0.16668   0.81491   0.00000  Uiso   1.00
O674   O     0.31481   0.16666   0.68508   0.00000  Uiso   1.00
O675   O     0.27267   0.16667   0.81492   0.00000  Uiso   1.00
O676   O     0.06067   0.16667   0.68508   0.00000  Uiso   1.00
C677   C     0.30607   0.16742   0.83604   0.00000  Uiso   1.00
C678   C     0.02726   0.16591   0.66396   0.00000  Uiso   1.00
Cu679  Cu    0.04689   0.16667   0.75000   0.00000  Uiso   1.00
Cu680  Cu    0.28645   0.16666   0.75000   0.00000  Uiso   1.00
C681   C     0.29101   0.17190   0.88488   0.00000  Uiso   1.00
C682   C     0.04231   0.16145   0.61511   0.00000  Uiso   1.00
C683   C     0.30557   0.19860   0.95308   0.00000  Uiso   1.00
C684   C     0.02768   0.13485   0.54690   0.00000  Uiso   1.00
C685   C     0.32259   0.18811   0.90786   0.00000  Uiso   1.00
C686   C     0.01069   0.14531   0.59214   0.00000  Uiso   1.00
C687   C     0.24305   0.16308   0.90788   0.00000  Uiso   1.00
C688   C     0.09027   0.17025   0.59210   0.00000  Uiso   1.00
C689   C     0.22482   0.17116   0.95390   0.00000  Uiso   1.00
C690   C     0.10845   0.16224   0.54607   0.00000  Uiso   1.00
C691   C     0.25572   0.19208   0.97617   0.00000  Uiso   1.00
C692   C     0.07753   0.14136   0.52379   0.00000  Uiso   1.00
C693   C     0.17607   0.16035   0.97751   0.00000  Uiso   1.00
C694   C     0.15719   0.17307   0.52245   0.00000  Uiso   1.00
C695   C     0.18718   0.19718   0.54221   0.00000  Uiso   1.00
C696   C     0.14605   0.13628   0.95774   0.00000  Uiso   1.00
C697   C     0.23548   0.20610   0.52035   0.00000  Uiso   1.00
C698   C     0.09774   0.12738   0.97959   0.00000  Uiso   1.00
H699   H     0.11338   0.18169   0.61171   0.00000  Uiso   1.00
H700   H     0.21999   0.15157   0.88827   0.00000  Uiso   1.00
H701   H     0.30642   0.13898   0.60972   0.00000  Uiso   1.00
H702   H     0.02687   0.19445   0.89028   0.00000  Uiso   1.00
H703   H     0.17373   0.21140   0.57449   0.00000  Uiso   1.00
H704   H     0.15946   0.12209   0.92543   0.00000  Uiso   1.00
C705   C     0.30054   0.02055   0.73081   0.00000  Uiso   1.00
C706   C     0.03278   0.31278   0.76921   0.00000  Uiso   1.00
C707   C     0.30103   0.31116   0.73199   0.00000  Uiso   1.00
C708   C     0.03229   0.02217   0.76803   0.00000  Uiso   1.00
H709   H     0.27634   0.29413   0.71738   0.00000  Uiso   1.00
H710   H     0.05697   0.03921   0.78265   0.00000  Uiso   1.00
C711   C     0.00031   0.29054   0.75085   0.00000  Uiso   1.00
C712   C     0.33301   0.04280   0.74916   0.00000  Uiso   1.00
C713   C     0.18268   0.14260   0.77945   0.00000  Uiso   1.00
C714   C     0.15066   0.19073   0.72055   0.00000  Uiso   1.00
H715   H     0.19432   0.12326   0.80299   0.00000  Uiso   1.00
H716   H     0.13901   0.21008   0.69701   0.00000  Uiso   1.00
C717   C     0.13306   0.14265   0.77947   0.00000  Uiso   1.00
C718   C     0.20027   0.19069   0.72053   0.00000  Uiso   1.00
H719   H     0.10733   0.12338   0.80304   0.00000  Uiso   1.00
H720   H     0.22600   0.20996   0.69696   0.00000  Uiso   1.00
N721   N     0.11736   0.16668   0.74999   0.00000  Uiso   1.00
N722   N     0.21597   0.16666   0.75001   0.00000  Uiso   1.00
N723   N     0.26189   0.23219   0.54297   0.00000  Uiso   1.00
O724   O     0.27335   0.26944   0.52830   0.00000  Uiso   1.00
O725   O     0.26447   0.22240   0.58299   0.00000  Uiso   1.00
N726   N     0.07130   0.10135   0.95696   0.00000  Uiso   1.00
O727   O     0.06872   0.11118   0.91695   0.00000  Uiso   1.00
O728   O     0.05981   0.06408   0.97160   0.00000  Uiso   1.00
N729   N     0.00620   0.21554   0.97500   0.00000  Uiso   1.00
H730   H     0.03482   0.19485   0.97141   0.00000  Uiso   1.00
H731   H     0.02059   0.24266   0.95828   0.00000  Uiso   1.00
N732   N     0.32702   0.11797   0.52499   0.00000  Uiso   1.00
H733   H     0.31263   0.09084   0.54167   0.00000  Uiso   1.00
H734   H     0.29841   0.13868   0.52862   0.00000  Uiso   1.00
N735   N     0.26804   0.04107   0.70991   0.00000  Uiso   1.00
H736   H     0.27543   0.03102   0.67672   0.00000  Uiso   1.00
H737   H     0.23251   0.03205   0.72641   0.00000  Uiso   1.00
N738   N     0.06527   0.29226   0.79012   0.00000  Uiso   1.00
H739   H     0.05776   0.30222   0.82334   0.00000  Uiso   1.00
H740   H     0.10079   0.30137   0.77371   0.00000  Uiso   1.00
O741   O     0.37291   0.10655   0.75000   0.00000  Uiso   1.00
O742   O     0.62709   0.22678   0.75000   0.00000  Uiso   1.00
O743   O     0.62706   0.10654   0.75000   0.00000  Uiso   1.00
O744   O     0.37294   0.22679   0.74999   0.00000  Uiso   1.00
C745   C     0.66664   0.08741   0.74939   0.00000  Uiso   1.00
C746   C     0.33336   0.24593   0.75061   0.00000  Uiso   1.00
O747   O     0.35186   0.16668   0.81491   0.00000  Uiso   1.00
O748   O     0.64814   0.16666   0.68508   0.00000  Uiso   1.00
O749   O     0.60600   0.16667   0.81492   0.00000  Uiso   1.00
O750   O     0.39400   0.16667   0.68508   0.00000  Uiso   1.00
C751   C     0.63940   0.16742   0.83604   0.00000  Uiso   1.00
C752   C     0.36059   0.16591   0.66396   0.00000  Uiso   1.00
Cu753  Cu    0.38022   0.16667   0.75000   0.00000  Uiso   1.00
Cu754  Cu    0.61978   0.16666   0.75000   0.00000  Uiso   1.00
C755   C     0.62434   0.17190   0.88488   0.00000  Uiso   1.00
C756   C     0.37564   0.16145   0.61511   0.00000  Uiso   1.00
C757   C     0.63891   0.19860   0.95308   0.00000  Uiso   1.00
C758   C     0.36101   0.13485   0.54690   0.00000  Uiso   1.00
C759   C     0.65593   0.18811   0.90786   0.00000  Uiso   1.00
C760   C     0.34402   0.14531   0.59214   0.00000  Uiso   1.00
C761   C     0.57638   0.16308   0.90788   0.00000  Uiso   1.00
C762   C     0.42360   0.17025   0.59210   0.00000  Uiso   1.00
C763   C     0.55816   0.17116   0.95390   0.00000  Uiso   1.00
C764   C     0.44178   0.16224   0.54607   0.00000  Uiso   1.00
C765   C     0.58905   0.19208   0.97617   0.00000  Uiso   1.00
C766   C     0.41086   0.14136   0.52379   0.00000  Uiso   1.00
C767   C     0.50940   0.16035   0.97751   0.00000  Uiso   1.00
C768   C     0.49052   0.17307   0.52245   0.00000  Uiso   1.00
C769   C     0.52051   0.19718   0.54221   0.00000  Uiso   1.00
C770   C     0.47938   0.13628   0.95774   0.00000  Uiso   1.00
C771   C     0.56881   0.20610   0.52035   0.00000  Uiso   1.00
C772   C     0.43108   0.12738   0.97959   0.00000  Uiso   1.00
H773   H     0.44671   0.18169   0.61171   0.00000  Uiso   1.00
H774   H     0.55332   0.15157   0.88827   0.00000  Uiso   1.00
H775   H     0.63975   0.13898   0.60972   0.00000  Uiso   1.00
H776   H     0.36020   0.19445   0.89028   0.00000  Uiso   1.00
H777   H     0.50706   0.21140   0.57449   0.00000  Uiso   1.00
H778   H     0.49279   0.12209   0.92543   0.00000  Uiso   1.00
C779   C     0.63388   0.02055   0.73081   0.00000  Uiso   1.00
C780   C     0.36611   0.31278   0.76921   0.00000  Uiso   1.00
C781   C     0.63436   0.31116   0.73199   0.00000  Uiso   1.00
C782   C     0.36563   0.02217   0.76803   0.00000  Uiso   1.00
H783   H     0.60967   0.29413   0.71738   0.00000  Uiso   1.00
H784   H     0.39030   0.03921   0.78265   0.00000  Uiso   1.00
C785   C     0.33365   0.29054   0.75085   0.00000  Uiso   1.00
C786   C     0.66635   0.04280   0.74916   0.00000  Uiso   1.00
C787   C     0.51601   0.14260   0.77945   0.00000  Uiso   1.00
C788   C     0.48399   0.19073   0.72055   0.00000  Uiso   1.00
H789   H     0.52765   0.12326   0.80299   0.00000  Uiso   1.00
H790   H     0.47235   0.21008   0.69701   0.00000  Uiso   1.00
C791   C     0.46640   0.14265   0.77947   0.00000  Uiso   1.00
C792   C     0.53360   0.19069   0.72053   0.00000  Uiso   1.00
H793   H     0.44066   0.12338   0.80304   0.00000  Uiso   1.00
H794   H     0.55934   0.20996   0.69696   0.00000  Uiso   1.00
N795   N     0.45069   0.16668   0.74999   0.00000  Uiso   1.00
N796   N     0.54931   0.16666   0.75001   0.00000  Uiso   1.00
N797   N     0.59522   0.23219   0.54297   0.00000  Uiso   1.00
O798   O     0.60668   0.26944   0.52830   0.00000  Uiso   1.00
O799   O     0.59780   0.22240   0.58299   0.00000  Uiso   1.00
N800   N     0.40463   0.10135   0.95696   0.00000  Uiso   1.00
O801   O     0.40205   0.11118   0.91695   0.00000  Uiso   1.00
O802   O     0.39314   0.06408   0.97160   0.00000  Uiso   1.00
N803   N     0.33953   0.21554   0.97500   0.00000  Uiso   1.00
H804   H     0.36815   0.19485   0.97141   0.00000  Uiso   1.00
H805   H     0.35392   0.24266   0.95828   0.00000  Uiso   1.00
N806   N     0.66035   0.11797   0.52499   0.00000  Uiso   1.00
H807   H     0.64596   0.09084   0.54167   0.00000  Uiso   1.00
H808   H     0.63175   0.13868   0.52862   0.00000  Uiso   1.00
N809   N     0.60137   0.04107   0.70991   0.00000  Uiso   1.00
H810   H     0.60877   0.03102   0.67672   0.00000  Uiso   1.00
H811   H     0.56585   0.03205   0.72641   0.00000  Uiso   1.00
N812   N     0.39860   0.29226   0.79012   0.00000  Uiso   1.00
H813   H     0.39110   0.30222   0.82334   0.00000  Uiso   1.00
H814   H     0.43412   0.30137   0.77371   0.00000  Uiso   1.00
O815   O     0.70625   0.10655   0.75000   0.00000  Uiso   1.00
O816   O     0.96042   0.22678   0.75000   0.00000  Uiso   1.00
O817   O     0.96039   0.10654   0.75000   0.00000  Uiso   1.00
O818   O     0.70628   0.22679   0.74999   0.00000  Uiso   1.00
C819   C     0.99997   0.08741   0.74939   0.00000  Uiso   1.00
C820   C     0.66669   0.24593   0.75061   0.00000  Uiso   1.00
O821   O     0.68519   0.16668   0.81491   0.00000  Uiso   1.00
O822   O     0.98148   0.16666   0.68508   0.00000  Uiso   1.00
O823   O     0.93933   0.16667   0.81492   0.00000  Uiso   1.00
O824   O     0.72733   0.16667   0.68508   0.00000  Uiso   1.00
C825   C     0.97274   0.16742   0.83604   0.00000  Uiso   1.00
C826   C     0.69393   0.16591   0.66396   0.00000  Uiso   1.00
Cu827  Cu    0.71355   0.16667   0.75000   0.00000  Uiso   1.00
Cu828  Cu    0.95311   0.16666   0.75000   0.00000  Uiso   1.00
C829   C     0.95768   0.17190   0.88488   0.00000  Uiso   1.00
C830   C     0.70897   0.16145   0.61511   0.00000  Uiso   1.00
C831   C     0.97224   0.19860   0.95308   0.00000  Uiso   1.00
C832   C     0.69435   0.13485   0.54690   0.00000  Uiso   1.00
C833   C     0.98926   0.18811   0.90786   0.00000  Uiso   1.00
C834   C     0.67736   0.14531   0.59214   0.00000  Uiso   1.00
C835   C     0.90971   0.16308   0.90788   0.00000  Uiso   1.00
C836   C     0.75694   0.17025   0.59210   0.00000  Uiso   1.00
C837   C     0.89149   0.17116   0.95390   0.00000  Uiso   1.00
C838   C     0.77511   0.16224   0.54607   0.00000  Uiso   1.00
C839   C     0.92238   0.19208   0.97617   0.00000  Uiso   1.00
C840   C     0.74420   0.14136   0.52379   0.00000  Uiso   1.00
C841   C     0.84274   0.16035   0.97751   0.00000  Uiso   1.00
C842   C     0.82385   0.17307   0.52245   0.00000  Uiso   1.00
C843   C     0.85384   0.19718   0.54221   0.00000  Uiso   1.00
C844   C     0.81272   0.13628   0.95774   0.00000  Uiso   1.00
C845   C     0.90214   0.20610   0.52035   0.00000  Uiso   1.00
C846   C     0.76441   0.12738   0.97959   0.00000  Uiso   1.00
H847   H     0.78004   0.18169   0.61171   0.00000  Uiso   1.00
H848   H     0.88666   0.15157   0.88827   0.00000  Uiso   1.00
H849   H     0.97308   0.13898   0.60972   0.00000  Uiso   1.00
H850   H     0.69353   0.19445   0.89028   0.00000  Uiso   1.00
H851   H     0.84040   0.21140   0.57449   0.00000  Uiso   1.00
H852   H     0.82613   0.12209   0.92543   0.00000  Uiso   1.00
C853   C     0.96721   0.02055   0.73081   0.00000  Uiso   1.00
C854   C     0.69944   0.31278   0.76921   0.00000  Uiso   1.00
C855   C     0.96769   0.31116   0.73199   0.00000  Uiso   1.00
C856   C     0.69896   0.02217   0.76803   0.00000  Uiso   1.00
H857   H     0.94300   0.29413   0.71738   0.00000  Uiso   1.00
H858   H     0.72364   0.03921   0.78265   0.00000  Uiso   1.00
C859   C     0.66698   0.29054   0.75085   0.00000  Uiso   1.00
C860   C     0.99968   0.04280   0.74916   0.00000  Uiso   1.00
C861   C     0.84934   0.14260   0.77945   0.00000  Uiso   1.00
C862   C     0.81732   0.19073   0.72055   0.00000  Uiso   1.00
H863   H     0.86099   0.12326   0.80299   0.00000  Uiso   1.00
H864   H     0.80568   0.21008   0.69701   0.00000  Uiso   1.00
C865   C     0.79973   0.14265   0.77947   0.00000  Uiso   1.00
C866   C     0.86694   0.19069   0.72053   0.00000  Uiso   1.00
H867   H     0.77400   0.12338   0.80304   0.00000  Uiso   1.00
H868   H     0.89267   0.20996   0.69696   0.00000  Uiso   1.00
N869   N     0.78403   0.16668   0.74999   0.00000  Uiso   1.00
N870   N     0.88264   0.16666   0.75001   0.00000  Uiso   1.00
N871   N     0.92856   0.23219   0.54297   0.00000  Uiso   1.00
O872   O     0.94001   0.26944   0.52830   0.00000  Uiso   1.00
O873   O     0.93114   0.22240   0.58299   0.00000  Uiso   1.00
N874   N     0.73796   0.10135   0.95696   0.00000  Uiso   1.00
O875   O     0.73538   0.11118   0.91695   0.00000  Uiso   1.00
O876   O     0.72648   0.06408   0.97160   0.00000  Uiso   1.00
N877   N     0.67287   0.21554   0.97500   0.00000  Uiso   1.00
H878   H     0.70148   0.19485   0.97141   0.00000  Uiso   1.00
H879   H     0.68725   0.24266   0.95828   0.00000  Uiso   1.00
N880   N     0.99369   0.11797   0.52499   0.00000  Uiso   1.00
H881   H     0.97929   0.09084   0.54167   0.00000  Uiso   1.00
H882   H     0.96508   0.13868   0.52862   0.00000  Uiso   1.00
N883   N     0.93471   0.04107   0.70991   0.00000  Uiso   1.00
H884   H     0.94210   0.03102   0.67672   0.00000  Uiso   1.00
H885   H     0.89918   0.03205   0.72641   0.00000  Uiso   1.00
N886   N     0.73193   0.29226   0.79012   0.00000  Uiso   1.00
H887   H     0.72443   0.30222   0.82334   0.00000  Uiso   1.00
H888   H     0.76746   0.30137   0.77371   0.00000  Uiso   1.00
O889   O     0.03958   0.43989   0.75000   0.00000  Uiso   1.00
O890   O     0.29375   0.56011   0.75000   0.00000  Uiso   1.00
O891   O     0.29372   0.43988   0.75000   0.00000  Uiso   1.00
O892   O     0.03961   0.56012   0.74999   0.00000  Uiso   1.00
C893   C     0.33331   0.42074   0.74939   0.00000  Uiso   1.00
C894   C     0.00002   0.57926   0.75061   0.00000  Uiso   1.00
O895   O     0.01852   0.50001   0.81491   0.00000  Uiso   1.00
O896   O     0.31481   0.49999   0.68508   0.00000  Uiso   1.00
O897   O     0.27267   0.50000   0.81492   0.00000  Uiso   1.00
O898   O     0.06067   0.50000   0.68508   0.00000  Uiso   1.00
C899   C     0.30607   0.50075   0.83604   0.00000  Uiso   1.00
C900   C     0.02726   0.49925   0.66396   0.00000  Uiso   1.00
Cu901  Cu    0.04689   0.50001   0.75000   0.00000  Uiso   1.00
Cu902  Cu    0.28645   0.49999   0.75000   0.00000  Uiso   1.00
C903   C     0.29101   0.50524   0.88488   0.00000  Uiso   1.00
C904   C     0.04231   0.49478   0.61511   0.00000  Uiso   1.00
C905   C     0.30557   0.53194   0.95308   0.00000  Uiso   1.00
C906   C     0.02768   0.46819   0.54690   0.00000  Uiso   1.00
C907   C     0.32259   0.52144   0.90786   0.00000  Uiso   1.00
C908   C     0.01069   0.47864   0.59214   0.00000  Uiso   1.00
C909   C     0.24305   0.49641   0.90788   0.00000  Uiso   1.00
C910   C     0.09027   0.50358   0.59210   0.00000  Uiso   1.00
C911   C     0.22482   0.50449   0.95390   0.00000  Uiso   1.00
C912   C     0.10845   0.49558   0.54607   0.00000  Uiso   1.00
C913   C     0.25572   0.52542   0.97617   0.00000  Uiso   1.00
C914   C     0.07753   0.47470   0.52379   0.00000  Uiso   1.00
C915   C     0.17607   0.49369   0.97751   0.00000  Uiso   1.00
C916   C     0.15719   0.50641   0.52245   0.00000  Uiso   1.00
C917   C     0.18718   0.53052   0.54221   0.00000  Uiso   1.00
C918   C     0.14605   0.46961   0.95774   0.00000  Uiso   1.00
C919   C     0.23548   0.53944   0.52035   0.00000  Uiso   1.00
C920   C     0.09774   0.46071   0.97959   0.00000  Uiso   1.00
H921   H     0.11338   0.51502   0.61171   0.00000  Uiso   1.00
H922   H     0.21999   0.48490   0.88827   0.00000  Uiso   1.00
H923   H     0.30642   0.47232   0.60972   0.00000  Uiso   1.00
H924   H     0.02687   0.52779   0.89028   0.00000  Uiso   1.00
H925   H     0.17373   0.54473   0.57449   0.00000  Uiso   1.00
H926   H     0.15946   0.45543   0.92543   0.00000  Uiso   1.00
C927   C     0.30054   0.35388   0.73081   0.00000  Uiso   1.00
C928   C     0.03278   0.64612   0.76921   0.00000  Uiso   1.00
C929   C     0.30103   0.64449   0.73199   0.00000  Uiso   1.00
C930   C     0.03229   0.35551   0.76803   0.00000  Uiso   1.00
H931   H     0.27634   0.62746   0.71738   0.00000  Uiso   1.00
H932   H     0.05697   0.37254   0.78265   0.00000  Uiso   1.00
C933   C     0.00031   0.62387   0.75085   0.00000  Uiso   1.00
C934   C     0.33301   0.37613   0.74916   0.00000  Uiso   1.00
C935   C     0.18268   0.47594   0.77945   0.00000  Uiso   1.00
C936   C     0.15066   0.52406   0.72055   0.00000  Uiso   1.00
H937   H     0.19432   0.45659   0.80299   0.00000  Uiso   1.00
H938   H     0.13901   0.54341   0.69701   0.00000  Uiso   1.00
C939   C     0.13306   0.47598   0.77947   0.00000  Uiso   1.00
C940   C     0.20027   0.52402   0.72053   0.00000  Uiso   1.00
H941   H     0.10733   0.45671   0.80304   0.00000  Uiso   1.00
H942   H     0.22600   0.54329   0.69696   0.00000  Uiso   1.00
N943   N     0.11736   0.50001   0.74999   0.00000  Uiso   1.00
N944   N     0.21597   0.49999   0.75001   0.00000  Uiso   1.00
N945   N     0.26189   0.56552   0.54297   0.00000  Uiso   1.00
O946   O     0.27335   0.60278   0.52830   0.00000  Uiso   1.00
O947   O     0.26447   0.55573   0.58299   0.00000  Uiso   1.00
N948   N     0.07130   0.43468   0.95696   0.00000  Uiso   1.00
O949   O     0.06872   0.44451   0.91695   0.00000  Uiso   1.00
O950   O     0.05981   0.39742   0.97160   0.00000  Uiso   1.00
N951   N     0.00620   0.54887   0.97500   0.00000  Uiso   1.00
H952   H     0.03482   0.52818   0.97141   0.00000  Uiso   1.00
H953   H     0.02059   0.57599   0.95828   0.00000  Uiso   1.00
N954   N     0.32702   0.45130   0.52499   0.00000  Uiso   1.00
H955   H     0.31263   0.42417   0.54167   0.00000  Uiso   1.00
H956   H     0.29841   0.47201   0.52862   0.00000  Uiso   1.00
N957   N     0.26804   0.37440   0.70991   0.00000  Uiso   1.00
H958   H     0.27543   0.36436   0.67672   0.00000  Uiso   1.00
H959   H     0.23251   0.36538   0.72641   0.00000  Uiso   1.00
N960   N     0.06527   0.62560   0.79012   0.00000  Uiso   1.00
H961   H     0.05776   0.63556   0.82334   0.00000  Uiso   1.00
H962   H     0.10079   0.63470   0.77371   0.00000  Uiso   1.00
O963   O     0.37291   0.43989   0.75000   0.00000  Uiso   1.00
O964   O     0.62709   0.56011   0.75000   0.00000  Uiso   1.00
O965   O     0.62706   0.43988   0.75000   0.00000  Uiso   1.00
O966   O     0.37294   0.56012   0.74999   0.00000  Uiso   1.00
C967   C     0.66664   0.42074   0.74939   0.00000  Uiso   1.00
C968   C     0.33336   0.57926   0.75061   0.00000  Uiso   1.00
O969   O     0.35186   0.50001   0.81491   0.00000  Uiso   1.00
O970   O     0.64814   0.49999   0.68508   0.00000  Uiso   1.00
O971   O     0.60600   0.50000   0.81492   0.00000  Uiso   1.00
O972   O     0.39400   0.50000   0.68508   0.00000  Uiso   1.00
C973   C     0.63940   0.50075   0.83604   0.00000  Uiso   1.00
C974   C     0.36059   0.49925   0.66396   0.00000  Uiso   1.00
Cu975  Cu    0.38022   0.50001   0.75000   0.00000  Uiso   1.00
Cu976  Cu    0.61978   0.49999   0.75000   0.00000  Uiso   1.00
C977   C     0.62434   0.50524   0.88488   0.00000  Uiso   1.00
C978   C     0.37564   0.49478   0.61511   0.00000  Uiso   1.00
C979   C     0.63891   0.53194   0.95308   0.00000  Uiso   1.00
C980   C     0.36101   0.46819   0.54690   0.00000  Uiso   1.00
C981   C     0.65593   0.52144   0.90786   0.00000  Uiso   1.00
C982   C     0.34402   0.47864   0.59214   0.00000  Uiso   1.00
C983   C     0.57638   0.49641   0.90788   0.00000  Uiso   1.00
C984   C     0.42360   0.50358   0.59210   0.00000  Uiso   1.00
C985   C     0.55816   0.50449   0.95390   0.00000  Uiso   1.00
C986   C     0.44178   0.49558   0.54607   0.00000  Uiso   1.00
C987   C     0.58905   0.52542   0.97617   0.00000  Uiso   1.00
C988   C     0.41086   0.47470   0.52379   0.00000  Uiso   1.00
C989   C     0.50940   0.49369   0.97751   0.00000  Uiso   1.00
C990   C     0.49052   0.50641   0.52245   0.00000  Uiso   1.00
C991   C     0.52051   0.53052   0.54221   0.00000  Uiso   1.00
C992   C     0.47938   0.46961   0.95774   0.00000  Uiso   1.00
C993   C     0.56881   0.53944   0.52035   0.00000  Uiso   1.00
C994   C     0.43108   0.46071   0.97959   0.00000  Uiso   1.00
H995   H     0.44671   0.51502   0.61171   0.00000  Uiso   1.00
H996   H     0.55332   0.48490   0.88827   0.00000  Uiso   1.00
H997   H     0.63975   0.47232   0.60972   0.00000  Uiso   1.00
H998   H     0.36020   0.52779   0.89028   0.00000  Uiso   1.00
H999   H     0.50706   0.54473   0.57449   0.00000  Uiso   1.00
H1000  H     0.49279   0.45543   0.92543   0.00000  Uiso   1.00
C1001  C     0.63388   0.35388   0.73081   0.00000  Uiso   1.00
C1002  C     0.36611   0.64612   0.76921   0.00000  Uiso   1.00
C1003  C     0.63436   0.64449   0.73199   0.00000  Uiso   1.00
C1004  C     0.36563   0.35551   0.76803   0.00000  Uiso   1.00
H1005  H     0.60967   0.62746   0.71738   0.00000  Uiso   1.00
H1006  H     0.39030   0.37254   0.78265   0.00000  Uiso   1.00
C1007  C     0.33365   0.62387   0.75085   0.00000  Uiso   1.00
C1008  C     0.66635   0.37613   0.74916   0.00000  Uiso   1.00
C1009  C     0.51601   0.47594   0.77945   0.00000  Uiso   1.00
C1010  C     0.48399   0.52406   0.72055   0.00000  Uiso   1.00
H1011  H     0.52765   0.45659   0.80299   0.00000  Uiso   1.00
H1012  H     0.47235   0.54341   0.69701   0.00000  Uiso   1.00
C1013  C     0.46640   0.47598   0.77947   0.00000  Uiso   1.00
C1014  C     0.53360   0.52402   0.72053   0.00000  Uiso   1.00
H1015  H     0.44066   0.45671   0.80304   0.00000  Uiso   1.00
H1016  H     0.55934   0.54329   0.69696   0.00000  Uiso   1.00
N1017  N     0.45069   0.50001   0.74999   0.00000  Uiso   1.00
N1018  N     0.54931   0.49999   0.75001   0.00000  Uiso   1.00
N1019  N     0.59522   0.56552   0.54297   0.00000  Uiso   1.00
O1020  O     0.60668   0.60278   0.52830   0.00000  Uiso   1.00
O1021  O     0.59780   0.55573   0.58299   0.00000  Uiso   1.00
N1022  N     0.40463   0.43468   0.95696   0.00000  Uiso   1.00
O1023  O     0.40205   0.44451   0.91695   0.00000  Uiso   1.00
O1024  O     0.39314   0.39742   0.97160   0.00000  Uiso   1.00
N1025  N     0.33953   0.54887   0.97500   0.00000  Uiso   1.00
H1026  H     0.36815   0.52818   0.97141   0.00000  Uiso   1.00
H1027  H     0.35392   0.57599   0.95828   0.00000  Uiso   1.00
N1028  N     0.66035   0.45130   0.52499   0.00000  Uiso   1.00
H1029  H     0.64596   0.42417   0.54167   0.00000  Uiso   1.00
H1030  H     0.63175   0.47201   0.52862   0.00000  Uiso   1.00
N1031  N     0.60137   0.37440   0.70991   0.00000  Uiso   1.00
H1032  H     0.60877   0.36436   0.67672   0.00000  Uiso   1.00
H1033  H     0.56585   0.36538   0.72641   0.00000  Uiso   1.00
N1034  N     0.39860   0.62560   0.79012   0.00000  Uiso   1.00
H1035  H     0.39110   0.63556   0.82334   0.00000  Uiso   1.00
H1036  H     0.43412   0.63470   0.77371   0.00000  Uiso   1.00
O1037  O     0.70625   0.43989   0.75000   0.00000  Uiso   1.00
O1038  O     0.96042   0.56011   0.75000   0.00000  Uiso   1.00
O1039  O     0.96039   0.43988   0.75000   0.00000  Uiso   1.00
O1040  O     0.70628   0.56012   0.74999   0.00000  Uiso   1.00
C1041  C     0.99997   0.42074   0.74939   0.00000  Uiso   1.00
C1042  C     0.66669   0.57926   0.75061   0.00000  Uiso   1.00
O1043  O     0.68519   0.50001   0.81491   0.00000  Uiso   1.00
O1044  O     0.98148   0.49999   0.68508   0.00000  Uiso   1.00
O1045  O     0.93933   0.50000   0.81492   0.00000  Uiso   1.00
O1046  O     0.72733   0.50000   0.68508   0.00000  Uiso   1.00
C1047  C     0.97274   0.50075   0.83604   0.00000  Uiso   1.00
C1048  C     0.69393   0.49925   0.66396   0.00000  Uiso   1.00
Cu1049 Cu    0.71355   0.50001   0.75000   0.00000  Uiso   1.00
Cu1050 Cu    0.95311   0.49999   0.75000   0.00000  Uiso   1.00
C1051  C     0.95768   0.50524   0.88488   0.00000  Uiso   1.00
C1052  C     0.70897   0.49478   0.61511   0.00000  Uiso   1.00
C1053  C     0.97224   0.53194   0.95308   0.00000  Uiso   1.00
C1054  C     0.69435   0.46819   0.54690   0.00000  Uiso   1.00
C1055  C     0.98926   0.52144   0.90786   0.00000  Uiso   1.00
C1056  C     0.67736   0.47864   0.59214   0.00000  Uiso   1.00
C1057  C     0.90971   0.49641   0.90788   0.00000  Uiso   1.00
C1058  C     0.75694   0.50358   0.59210   0.00000  Uiso   1.00
C1059  C     0.89149   0.50449   0.95390   0.00000  Uiso   1.00
C1060  C     0.77511   0.49558   0.54607   0.00000  Uiso   1.00
C1061  C     0.92238   0.52542   0.97617   0.00000  Uiso   1.00
C1062  C     0.74420   0.47470   0.52379   0.00000  Uiso   1.00
C1063  C     0.84274   0.49369   0.97751   0.00000  Uiso   1.00
C1064  C     0.82385   0.50641   0.52245   0.00000  Uiso   1.00
C1065  C     0.85384   0.53052   0.54221   0.00000  Uiso   1.00
C1066  C     0.81272   0.46961   0.95774   0.00000  Uiso   1.00
C1067  C     0.90214   0.53944   0.52035   0.00000  Uiso   1.00
C1068  C     0.76441   0.46071   0.97959   0.00000  Uiso   1.00
H1069  H     0.78004   0.51502   0.61171   0.00000  Uiso   1.00
H1070  H     0.88666   0.48490   0.88827   0.00000  Uiso   1.00
H1071  H     0.97308   0.47232   0.60972   0.00000  Uiso   1.00
H1072  H     0.69353   0.52779   0.89028   0.00000  Uiso   1.00
H1073  H     0.84040   0.54473   0.57449   0.00000  Uiso   1.00
H1074  H     0.82613   0.45543   0.92543   0.00000  Uiso   1.00
C1075  C     0.96721   0.35388   0.73081   0.00000  Uiso   1.00
C1076  C     0.69944   0.64612   0.76921   0.00000  Uiso   1.00
C1077  C     0.96769   0.64449   0.73199   0.00000  Uiso   1.00
C1078  C     0.69896   0.35551   0.76803   0.00000  Uiso   1.00
H1079  H     0.94300   0.62746   0.71738   0.00000  Uiso   1.00
H1080  H     0.72364   0.37254   0.78265   0.00000  Uiso   1.00
C1081  C     0.66698   0.62387   0.75085   0.00000  Uiso   1.00
C1082  C     0.99968   0.37613   0.74916   0.00000  Uiso   1.00
C1083  C     0.84934   0.47594   0.77945   0.00000  Uiso   1.00
C1084  C     0.81732   0.52406   0.72055   0.00000  Uiso   1.00
H1085  H     0.86099   0.45659   0.80299   0.00000  Uiso   1.00
H1086  H     0.80568   0.54341   0.69701   0.00000  Uiso   1.00
C1087  C     0.79973   0.47598   0.77947   0.00000  Uiso   1.00
C1088  C     0.86694   0.52402   0.72053   0.00000  Uiso   1.00
H1089  H     0.77400   0.45671   0.80304   0.00000  Uiso   1.00
H1090  H     0.89267   0.54329   0.69696   0.00000  Uiso   1.00
N1091  N     0.78403   0.50001   0.74999   0.00000  Uiso   1.00
N1092  N     0.88264   0.49999   0.75001   0.00000  Uiso   1.00
N1093  N     0.92856   0.56552   0.54297   0.00000  Uiso   1.00
O1094  O     0.94001   0.60278   0.52830   0.00000  Uiso   1.00
O1095  O     0.93114   0.55573   0.58299   0.00000  Uiso   1.00
N1096  N     0.73796   0.43468   0.95696   0.00000  Uiso   1.00
O1097  O     0.73538   0.44451   0.91695   0.00000  Uiso   1.00
O1098  O     0.72648   0.39742   0.97160   0.00000  Uiso   1.00
N1099  N     0.67287   0.54887   0.97500   0.00000  Uiso   1.00
H1100  H     0.70148   0.52818   0.97141   0.00000  Uiso   1.00
H1101  H     0.68725   0.57599   0.95828   0.00000  Uiso   1.00
N1102  N     0.99369   0.45130   0.52499   0.00000  Uiso   1.00
H1103  H     0.97929   0.42417   0.54167   0.00000  Uiso   1.00
H1104  H     0.96508   0.47201   0.52862   0.00000  Uiso   1.00
N1105  N     0.93471   0.37440   0.70991   0.00000  Uiso   1.00
H1106  H     0.94210   0.36436   0.67672   0.00000  Uiso   1.00
H1107  H     0.89918   0.36538   0.72641   0.00000  Uiso   1.00
N1108  N     0.73193   0.62560   0.79012   0.00000  Uiso   1.00
H1109  H     0.72443   0.63556   0.82334   0.00000  Uiso   1.00
H1110  H     0.76746   0.63470   0.77371   0.00000  Uiso   1.00
O1111  O     0.03958   0.77322   0.75000   0.00000  Uiso   1.00
O1112  O     0.29375   0.89345   0.75000   0.00000  Uiso   1.00
O1113  O     0.29372   0.77321   0.75000   0.00000  Uiso   1.00
O1114  O     0.03961   0.89346   0.74999   0.00000  Uiso   1.00
C1115  C     0.33331   0.75407   0.74939   0.00000  Uiso   1.00
C1116  C     0.00002   0.91259   0.75061   0.00000  Uiso   1.00
O1117  O     0.01852   0.83334   0.81491   0.00000  Uiso   1.00
O1118  O     0.31481   0.83332   0.68508   0.00000  Uiso   1.00
O1119  O     0.27267   0.83333   0.81492   0.00000  Uiso   1.00
O1120  O     0.06067   0.83333   0.68508   0.00000  Uiso   1.00
C1121  C     0.30607   0.83409   0.83604   0.00000  Uiso   1.00
C1122  C     0.02726   0.83258   0.66396   0.00000  Uiso   1.00
Cu1123 Cu    0.04689   0.83334   0.75000   0.00000  Uiso   1.00
Cu1124 Cu    0.28645   0.83333   0.75000   0.00000  Uiso   1.00
C1125  C     0.29101   0.83857   0.88488   0.00000  Uiso   1.00
C1126  C     0.04231   0.82812   0.61511   0.00000  Uiso   1.00
C1127  C     0.30557   0.86527   0.95308   0.00000  Uiso   1.00
C1128  C     0.02768   0.80152   0.54690   0.00000  Uiso   1.00
C1129  C     0.32259   0.85477   0.90786   0.00000  Uiso   1.00
C1130  C     0.01069   0.81198   0.59214   0.00000  Uiso   1.00
C1131  C     0.24305   0.82975   0.90788   0.00000  Uiso   1.00
C1132  C     0.09027   0.83692   0.59210   0.00000  Uiso   1.00
C1133  C     0.22482   0.83783   0.95390   0.00000  Uiso   1.00
C1134  C     0.10845   0.82891   0.54607   0.00000  Uiso   1.00
C1135  C     0.25572   0.85875   0.97617   0.00000  Uiso   1.00
C1136  C     0.07753   0.80803   0.52379   0.00000  Uiso   1.00
C1137  C     0.17607   0.82702   0.97751   0.00000  Uiso   1.00
C1138  C     0.15719   0.83974   0.52245   0.00000  Uiso   1.00
C1139  C     0.18718   0.86385   0.54221   0.00000  Uiso   1.00
C1140  C     0.14605   0.80295   0.95774   0.00000  Uiso   1.00
C1141  C     0.23548   0.87277   0.52035   0.00000  Uiso   1.00
C1142  C     0.09774   0.79405   0.97959   0.00000  Uiso   1.00
H1143  H     0.11338   0.84835   0.61171   0.00000  Uiso   1.00
H1144  H     0.21999   0.81823   0.88827   0.00000  Uiso   1.00
H1145  H     0.30642   0.80565   0.60972   0.00000  Uiso   1.00
H1146  H     0.02687   0.86112   0.89028   0.00000  Uiso   1.00
H1147  H     0.17373   0.87807   0.57449   0.00000  Uiso   1.00
H1148  H     0.15946   0.78876   0.92543   0.00000  Uiso   1.00
C1149  C     0.30054   0.68722   0.73081   0.00000  Uiso   1.00
C1150  C     0.03278   0.97945   0.76921   0.00000  Uiso   1.00
C1151  C     0.30103   0.97783   0.73199   0.00000  Uiso   1.00
C1152  C     0.03229   0.68884   0.76803   0.00000  Uiso   1.00
H1153  H     0.27634   0.96079   0.71738   0.00000  Uiso   1.00
H1154  H     0.05697   0.70588   0.78265   0.00000  Uiso   1.00
C1155  C     0.00031   0.95720   0.75085   0.00000  Uiso   1.00
C1156  C     0.33301   0.70946   0.74916   0.00000  Uiso   1.00
C1157  C     0.18268   0.80927   0.77945   0.00000  Uiso   1.00
C1158  C     0.15066   0.85740   0.72055   0.00000  Uiso   1.00
H1159  H     0.19432   0.78992   0.80299   0.00000  Uiso   1.00
H1160  H     0.13901   0.87674   0.69701   0.00000  Uiso   1.00
C1161  C     0.13306   0.80931   0.77947   0.00000  Uiso   1.00
C1162  C     0.20027   0.85735   0.72053   0.00000  Uiso   1.00
H1163  H     0.10733   0.79004   0.80304   0.00000  Uiso   1.00
H1164  H     0.22600   0.87662   0.69696   0.00000  Uiso   1.00
N1165  N     0.11736   0.83334   0.74999   0.00000  Uiso   1.00
N1166  N     0.21597   0.83332   0.75001   0.00000  Uiso   1.00
N1167  N     0.26189   0.89885   0.54297   0.00000  Uiso   1.00
O1168  O     0.27335   0.93611   0.52830   0.00000  Uiso   1.00
O1169  O     0.26447   0.88907   0.58299   0.00000  Uiso   1.00
N1170  N     0.07130   0.76802   0.95696   0.00000  Uiso   1.00
O1171  O     0.06872   0.77784   0.91695   0.00000  Uiso   1.00
O1172  O     0.05981   0.73075   0.97160   0.00000  Uiso   1.00
N1173  N     0.00620   0.88221   0.97500   0.00000  Uiso   1.00
H1174  H     0.03482   0.86151   0.97141   0.00000  Uiso   1.00
H1175  H     0.02059   0.90933   0.95828   0.00000  Uiso   1.00
N1176  N     0.32702   0.78464   0.52499   0.00000  Uiso   1.00
H1177  H     0.31263   0.75751   0.54167   0.00000  Uiso   1.00
H1178  H     0.29841   0.80535   0.52862   0.00000  Uiso   1.00
N1179  N     0.26804   0.70774   0.70991   0.00000  Uiso   1.00
H1180  H     0.27543   0.69769   0.67672   0.00000  Uiso   1.00
H1181  H     0.23251   0.69871   0.72641   0.00000  Uiso   1.00
N1182  N     0.06527   0.95893   0.79012   0.00000  Uiso   1.00
H1183  H     0.05776   0.96889   0.82334   0.00000  Uiso   1.00
H1184  H     0.10079   0.96804   0.77371   0.00000  Uiso   1.00
O1185  O     0.37291   0.77322   0.75000   0.00000  Uiso   1.00
O1186  O     0.62709   0.89345   0.75000   0.00000  Uiso   1.00
O1187  O     0.62706   0.77321   0.75000   0.00000  Uiso   1.00
O1188  O     0.37294   0.89346   0.74999   0.00000  Uiso   1.00
C1189  C     0.66664   0.75407   0.74939   0.00000  Uiso   1.00
C1190  C     0.33336   0.91259   0.75061   0.00000  Uiso   1.00
O1191  O     0.35186   0.83334   0.81491   0.00000  Uiso   1.00
O1192  O     0.64814   0.83332   0.68508   0.00000  Uiso   1.00
O1193  O     0.60600   0.83333   0.81492   0.00000  Uiso   1.00
O1194  O     0.39400   0.83333   0.68508   0.00000  Uiso   1.00
C1195  C     0.63940   0.83409   0.83604   0.00000  Uiso   1.00
C1196  C     0.36059   0.83258   0.66396   0.00000  Uiso   1.00
Cu1197 Cu    0.38022   0.83334   0.75000   0.00000  Uiso   1.00
Cu1198 Cu    0.61978   0.83333   0.75000   0.00000  Uiso   1.00
C1199  C     0.62434   0.83857   0.88488   0.00000  Uiso   1.00
C1200  C     0.37564   0.82812   0.61511   0.00000  Uiso   1.00
C1201  C     0.63891   0.86527   0.95308   0.00000  Uiso   1.00
C1202  C     0.36101   0.80152   0.54690   0.00000  Uiso   1.00
C1203  C     0.65593   0.85477   0.90786   0.00000  Uiso   1.00
C1204  C     0.34402   0.81198   0.59214   0.00000  Uiso   1.00
C1205  C     0.57638   0.82975   0.90788   0.00000  Uiso   1.00
C1206  C     0.42360   0.83692   0.59210   0.00000  Uiso   1.00
C1207  C     0.55816   0.83783   0.95390   0.00000  Uiso   1.00
C1208  C     0.44178   0.82891   0.54607   0.00000  Uiso   1.00
C1209  C     0.58905   0.85875   0.97617   0.00000  Uiso   1.00
C1210  C     0.41086   0.80803   0.52379   0.00000  Uiso   1.00
C1211  C     0.50940   0.82702   0.97751   0.00000  Uiso   1.00
C1212  C     0.49052   0.83974   0.52245   0.00000  Uiso   1.00
C1213  C     0.52051   0.86385   0.54221   0.00000  Uiso   1.00
C1214  C     0.47938   0.80295   0.95774   0.00000  Uiso   1.00
C1215  C     0.56881   0.87277   0.52035   0.00000  Uiso   1.00
C1216  C     0.43108   0.79405   0.97959   0.00000  Uiso   1.00
H1217  H     0.44671   0.84835   0.61171   0.00000  Uiso   1.00
H1218  H     0.55332   0.81823   0.88827   0.00000  Uiso   1.00
H1219  H     0.63975   0.80565   0.60972   0.00000  Uiso   1.00
H1220  H     0.36020   0.86112   0.89028   0.00000  Uiso   1.00
H1221  H     0.50706   0.87807   0.57449   0.00000  Uiso   1.00
H1222  H     0.49279   0.78876   0.92543   0.00000  Uiso   1.00
C1223  C     0.63388   0.68722   0.73081   0.00000  Uiso   1.00
C1224  C     0.36611   0.97945   0.76921   0.00000  Uiso   1.00
C1225  C     0.63436   0.97783   0.73199   0.00000  Uiso   1.00
C1226  C     0.36563   0.68884   0.76803   0.00000  Uiso   1.00
H1227  H     0.60967   0.96079   0.71738   0.00000  Uiso   1.00
H1228  H     0.39030   0.70588   0.78265   0.00000  Uiso   1.00
C1229  C     0.33365   0.95720   0.75085   0.00000  Uiso   1.00
C1230  C     0.66635   0.70946   0.74916   0.00000  Uiso   1.00
C1231  C     0.51601   0.80927   0.77945   0.00000  Uiso   1.00
C1232  C     0.48399   0.85740   0.72055   0.00000  Uiso   1.00
H1233  H     0.52765   0.78992   0.80299   0.00000  Uiso   1.00
H1234  H     0.47235   0.87674   0.69701   0.00000  Uiso   1.00
C1235  C     0.46640   0.80931   0.77947   0.00000  Uiso   1.00
C1236  C     0.53360   0.85735   0.72053   0.00000  Uiso   1.00
H1237  H     0.44066   0.79004   0.80304   0.00000  Uiso   1.00
H1238  H     0.55934   0.87662   0.69696   0.00000  Uiso   1.00
N1239  N     0.45069   0.83334   0.74999   0.00000  Uiso   1.00
N1240  N     0.54931   0.83332   0.75001   0.00000  Uiso   1.00
N1241  N     0.59522   0.89885   0.54297   0.00000  Uiso   1.00
O1242  O     0.60668   0.93611   0.52830   0.00000  Uiso   1.00
O1243  O     0.59780   0.88907   0.58299   0.00000  Uiso   1.00
N1244  N     0.40463   0.76802   0.95696   0.00000  Uiso   1.00
O1245  O     0.40205   0.77784   0.91695   0.00000  Uiso   1.00
O1246  O     0.39314   0.73075   0.97160   0.00000  Uiso   1.00
N1247  N     0.33953   0.88221   0.97500   0.00000  Uiso   1.00
H1248  H     0.36815   0.86151   0.97141   0.00000  Uiso   1.00
H1249  H     0.35392   0.90933   0.95828   0.00000  Uiso   1.00
N1250  N     0.66035   0.78464   0.52499   0.00000  Uiso   1.00
H1251  H     0.64596   0.75751   0.54167   0.00000  Uiso   1.00
H1252  H     0.63175   0.80535   0.52862   0.00000  Uiso   1.00
N1253  N     0.60137   0.70774   0.70991   0.00000  Uiso   1.00
H1254  H     0.60877   0.69769   0.67672   0.00000  Uiso   1.00
H1255  H     0.56585   0.69871   0.72641   0.00000  Uiso   1.00
N1256  N     0.39860   0.95893   0.79012   0.00000  Uiso   1.00
H1257  H     0.39110   0.96889   0.82334   0.00000  Uiso   1.00
H1258  H     0.43412   0.96804   0.77371   0.00000  Uiso   1.00
O1259  O     0.70625   0.77322   0.75000   0.00000  Uiso   1.00
O1260  O     0.96042   0.89345   0.75000   0.00000  Uiso   1.00
O1261  O     0.96039   0.77321   0.75000   0.00000  Uiso   1.00
O1262  O     0.70628   0.89346   0.74999   0.00000  Uiso   1.00
C1263  C     0.99997   0.75407   0.74939   0.00000  Uiso   1.00
C1264  C     0.66669   0.91259   0.75061   0.00000  Uiso   1.00
O1265  O     0.68519   0.83334   0.81491   0.00000  Uiso   1.00
O1266  O     0.98148   0.83332   0.68508   0.00000  Uiso   1.00
O1267  O     0.93933   0.83333   0.81492   0.00000  Uiso   1.00
O1268  O     0.72733   0.83333   0.68508   0.00000  Uiso   1.00
C1269  C     0.97274   0.83409   0.83604   0.00000  Uiso   1.00
C1270  C     0.69393   0.83258   0.66396   0.00000  Uiso   1.00
Cu1271 Cu    0.71355   0.83334   0.75000   0.00000  Uiso   1.00
Cu1272 Cu    0.95311   0.83333   0.75000   0.00000  Uiso   1.00
C1273  C     0.95768   0.83857   0.88488   0.00000  Uiso   1.00
C1274  C     0.70897   0.82812   0.61511   0.00000  Uiso   1.00
C1275  C     0.97224   0.86527   0.95308   0.00000  Uiso   1.00
C1276  C     0.69435   0.80152   0.54690   0.00000  Uiso   1.00
C1277  C     0.98926   0.85477   0.90786   0.00000  Uiso   1.00
C1278  C     0.67736   0.81198   0.59214   0.00000  Uiso   1.00
C1279  C     0.90971   0.82975   0.90788   0.00000  Uiso   1.00
C1280  C     0.75694   0.83692   0.59210   0.00000  Uiso   1.00
C1281  C     0.89149   0.83783   0.95390   0.00000  Uiso   1.00
C1282  C     0.77511   0.82891   0.54607   0.00000  Uiso   1.00
C1283  C     0.92238   0.85875   0.97617   0.00000  Uiso   1.00
C1284  C     0.74420   0.80803   0.52379   0.00000  Uiso   1.00
C1285  C     0.84274   0.82702   0.97751   0.00000  Uiso   1.00
C1286  C     0.82385   0.83974   0.52245   0.00000  Uiso   1.00
C1287  C     0.85384   0.86385   0.54221   0.00000  Uiso   1.00
C1288  C     0.81272   0.80295   0.95774   0.00000  Uiso   1.00
C1289  C     0.90214   0.87277   0.52035   0.00000  Uiso   1.00
C1290  C     0.76441   0.79405   0.97959   0.00000  Uiso   1.00
H1291  H     0.78004   0.84835   0.61171   0.00000  Uiso   1.00
H1292  H     0.88666   0.81823   0.88827   0.00000  Uiso   1.00
H1293  H     0.97308   0.80565   0.60972   0.00000  Uiso   1.00
H1294  H     0.69353   0.86112   0.89028   0.00000  Uiso   1.00
H1295  H     0.84040   0.87807   0.57449   0.00000  Uiso   1.00
H1296  H     0.82613   0.78876   0.92543   0.00000  Uiso   1.00
C1297  C     0.96721   0.68722   0.73081   0.00000  Uiso   1.00
C1298  C     0.69944   0.97945   0.76921   0.00000  Uiso   1.00
C1299  C     0.96769   0.97783   0.73199   0.00000  Uiso   1.00
C1300  C     0.69896   0.68884   0.76803   0.00000  Uiso   1.00
H1301  H     0.94300   0.96079   0.71738   0.00000  Uiso   1.00
H1302  H     0.72364   0.70588   0.78265   0.00000  Uiso   1.00
C1303  C     0.66698   0.95720   0.75085   0.00000  Uiso   1.00
C1304  C     0.99968   0.70946   0.74916   0.00000  Uiso   1.00
C1305  C     0.84934   0.80927   0.77945   0.00000  Uiso   1.00
C1306  C     0.81732   0.85740   0.72055   0.00000  Uiso   1.00
H1307  H     0.86099   0.78992   0.80299   0.00000  Uiso   1.00
H1308  H     0.80568   0.87674   0.69701   0.00000  Uiso   1.00
C1309  C     0.79973   0.80931   0.77947   0.00000  Uiso   1.00
C1310  C     0.86694   0.85735   0.72053   0.00000  Uiso   1.00
H1311  H     0.77400   0.79004   0.80304   0.00000  Uiso   1.00
H1312  H     0.89267   0.87662   0.69696   0.00000  Uiso   1.00
N1313  N     0.78403   0.83334   0.74999   0.00000  Uiso   1.00
N1314  N     0.88264   0.83332   0.75001   0.00000  Uiso   1.00
N1315  N     0.92856   0.89885   0.54297   0.00000  Uiso   1.00
O1316  O     0.94001   0.93611   0.52830   0.00000  Uiso   1.00
O1317  O     0.93114   0.88907   0.58299   0.00000  Uiso   1.00
N1318  N     0.73796   0.76802   0.95696   0.00000  Uiso   1.00
O1319  O     0.73538   0.77784   0.91695   0.00000  Uiso   1.00
O1320  O     0.72648   0.73075   0.97160   0.00000  Uiso   1.00
N1321  N     0.67287   0.88221   0.97500   0.00000  Uiso   1.00
H1322  H     0.70148   0.86151   0.97141   0.00000  Uiso   1.00
H1323  H     0.68725   0.90933   0.95828   0.00000  Uiso   1.00
N1324  N     0.99369   0.78464   0.52499   0.00000  Uiso   1.00
H1325  H     0.97929   0.75751   0.54167   0.00000  Uiso   1.00
H1326  H     0.96508   0.80535   0.52862   0.00000  Uiso   1.00
N1327  N     0.93471   0.70774   0.70991   0.00000  Uiso   1.00
H1328  H     0.94210   0.69769   0.67672   0.00000  Uiso   1.00
H1329  H     0.89918   0.69871   0.72641   0.00000  Uiso   1.00
N1330  N     0.73193   0.95893   0.79012   0.00000  Uiso   1.00
H1331  H     0.72443   0.96889   0.82334   0.00000  Uiso   1.00
H1332  H     0.76746   0.96804   0.77371   0.00000  Uiso   1.00
loop_
_geom_bond_atom_site_label_1
_geom_bond_atom_site_label_2
_geom_bond_distance
_geom_bond_site_symmetry_2
_ccdc_geom_bond_type
O1     Cu13    1.963   .     S
O1     C153    1.292   1_455 S
O2     Cu14    1.963   .     S
O2     C80     1.292   .     S
O3     Cu14    1.966   .     S
O3     C5      1.289   .     A
O4     Cu13    1.966   .     S
O4     C6      1.289   .     A
C5     C46     1.449   .     S
C5     O75     1.292   .     S
C6     C45     1.449   .     S
C6     O150    1.292   1_455 S
O7     Cu13    1.956   .     S
O7     C159    1.296   1_455 S
O8     Cu14    1.956   .     S
O8     C86     1.296   .     S
O9     Cu14    1.943   .     S
O9     C11     1.294   .     A
O10    C12     1.294   .     A
O10    Cu13    1.943   .     S
C11    C15     1.466   .     S
C11    O81     1.296   .     S
C12    C16     1.466   .     S
C12    O156    1.296   1_455 S
Cu13   N55     2.012   .     S
Cu13   Cu162   2.678   1_455 S
Cu14   N56     2.012   .     S
Cu14   Cu87    2.678   .     S
C15    C19     1.392   .     A
C15    C21     1.391   .     A
C16    C20     1.392   .     A
C16    C22     1.391   .     A
C17    C25     1.425   .     A
C17    C19     1.398   .     A
C17    N137    1.433   .     S
C18    C26     1.425   .     A
C18    C20     1.398   .     A
C18    N214    1.433   1_455 S
C19    H110    1.084   .     S
C20    H183    1.084   1_455 S
C21    H34     1.075   .     S
C21    C23     1.406   .     A
C22    C24     1.406   .     A
C22    H33     1.075   .     S
C23    C27     1.429   .     A
C23    C25     1.428   .     A
C24    C26     1.428   .     A
C24    C28     1.429   .     A
C25    C697    1.413   .     S
C26    C698    1.413   1_554 S
C27    C30     1.413   .     A
C27    C694    1.415   .     S
C28    C29     1.413   .     A
C28    C693    1.415   1_554 S
C29    C31     1.392   .     A
C29    H37     1.076   .     S
C30    H38     1.076   .     S
C30    C32     1.392   .     A
C31    N57     1.434   .     S
C31    C691    1.413   1_554 S
C32    N60     1.434   .     S
C32    C692    1.413   .     S
H35    C94     1.084   .     S
H36    C167    1.084   1_455 S
C39    N69     1.434   .     S
C39    C46     1.408   .     A
C39    C485    1.389   1_545 S
C40    C45     1.408   .     A
C40    N72     1.434   .     S
C40    C264    1.389   .     S
C41    H43     1.084   .     S
C41    C261    1.389   .     S
C41    C119    1.399   .     S
C42    H44     1.084   .     S
C42    C484    1.389   1_545 S
C42    C194    1.399   1_455 S
C45    C189    1.399   1_455 S
C46    C116    1.399   .     S
C47    H49     1.082   .     S
C47    C51     1.417   .     A
C47    N56     1.367   .     A
C48    N55     1.367   .     A
C48    C52     1.417   .     A
C48    H50     1.082   .     S
C51    H53     1.082   .     S
C51    N55     1.367   .     A
C52    H54     1.082   .     S
C52    N56     1.367   .     A
N57    O59     1.301   .     A
N57    O58     1.301   .     A
N60    O62     1.301   .     A
N60    O61     1.301   .     A
N63    H65     1.046   .     S
N63    H64     1.044   .     S
N63    C165    1.433   1_455 S
N66    H68     1.044   .     S
N66    H67     1.046   .     S
N66    C92     1.433   .     S
N69    H71     1.046   .     S
N69    H70     1.046   .     S
N72    H74     1.046   .     S
N72    H73     1.046   .     S
O75    Cu87    1.963   .     S
O76    Cu88    1.963   .     S
O76    C154    1.292   .     S
O77    Cu88    1.966   .     S
O77    C79     1.289   .     A
O78    Cu87    1.966   .     S
O78    C80     1.289   .     A
C79    C120    1.449   .     S
C79    O149    1.292   .     S
C80    C119    1.449   .     S
O81    Cu87    1.956   .     S
O82    Cu88    1.956   .     S
O82    C160    1.296   .     S
O83    Cu88    1.943   .     S
O83    C85     1.294   .     A
O84    C86     1.294   .     A
O84    Cu87    1.943   .     S
C85    C89     1.466   .     S
C85    O155    1.296   .     S
C86    C90     1.466   .     S
Cu87   N129    2.012   .     S
Cu88   N130    2.012   .     S
Cu88   Cu161   2.678   .     S
C89    C93     1.392   .     A
C89    C95     1.391   .     A
C90    C94     1.392   .     A
C90    C96     1.391   .     A
C91    C99     1.425   .     A
C91    C93     1.398   .     A
C91    N211    1.433   .     S
C92    C100    1.425   .     A
C92    C94     1.398   .     A
C93    H184    1.084   .     S
C95    H108    1.075   .     S
C95    C97     1.406   .     A
C96    C98     1.406   .     A
C96    H107    1.075   .     S
C97    C101    1.429   .     A
C97    C99     1.428   .     A
C98    C100    1.428   .     A
C98    C102    1.429   .     A
C99    C771    1.413   .     S
C100   C772    1.413   1_554 S
C101   C104    1.413   .     A
C101   C768    1.415   .     S
C102   C103    1.413   .     A
C102   C767    1.415   1_554 S
C103   C105    1.392   .     A
C103   H111    1.076   .     S
C104   H112    1.076   .     S
C104   C106    1.392   .     A
C105   N131    1.434   .     S
C105   C765    1.413   1_554 S
C106   N134    1.434   .     S
C106   C766    1.413   .     S
H109   C168    1.084   .     S
C113   N143    1.434   .     S
C113   C120    1.408   .     A
C113   C559    1.389   1_545 S
C114   C119    1.408   .     A
C114   N146    1.434   .     S
C114   C338    1.389   .     S
C115   H117    1.084   .     S
C115   C335    1.389   .     S
C115   C193    1.399   .     S
C116   H118    1.084   .     S
C116   C558    1.389   1_545 S
C120   C190    1.399   .     S
C121   H123    1.082   .     S
C121   C125    1.417   .     A
C121   N130    1.367   .     A
C122   N129    1.367   .     A
C122   C126    1.417   .     A
C122   H124    1.082   .     S
C125   H127    1.082   .     S
C125   N129    1.367   .     A
C126   H128    1.082   .     S
C126   N130    1.367   .     A
N131   O133    1.301   .     A
N131   O132    1.301   .     A
N134   O136    1.301   .     A
N134   O135    1.301   .     A
N137   H139    1.046   .     S
N137   H138    1.044   .     S
N140   H142    1.044   .     S
N140   H141    1.046   .     S
N140   C166    1.433   .     S
N143   H145    1.046   .     S
N143   H144    1.046   .     S
N146   H148    1.046   .     S
N146   H147    1.046   .     S
O149   Cu161   1.963   .     S
O150   Cu162   1.963   .     S
O150   C6      1.292   1_655 S
O151   Cu162   1.966   .     S
O151   C153    1.289   .     A
O152   Cu161   1.966   .     S
O152   C154    1.289   .     A
C153   C194    1.449   .     S
C153   O1      1.292   1_655 S
C154   C193    1.449   .     S
O155   Cu161   1.956   .     S
O156   Cu162   1.956   .     S
O156   C12     1.296   1_655 S
O157   Cu162   1.943   .     S
O157   C159    1.294   .     A
O158   C160    1.294   .     A
O158   Cu161   1.943   .     S
C159   C163    1.466   .     S
C159   O7      1.296   1_655 S
C160   C164    1.466   .     S
Cu161  N203    2.012   .     S
Cu162  N204    2.012   .     S
Cu162  Cu13    2.678   1_655 S
C163   C167    1.392   .     A
C163   C169    1.391   .     A
C164   C168    1.392   .     A
C164   C170    1.391   .     A
C165   C173    1.425   .     A
C165   C167    1.398   .     A
C165   N63     1.433   1_655 S
C166   C174    1.425   .     A
C166   C168    1.398   .     A
C167   H36     1.084   1_655 S
C169   H182    1.075   .     S
C169   C171    1.406   .     A
C170   C172    1.406   .     A
C170   H181    1.075   .     S
C171   C175    1.429   .     A
C171   C173    1.428   .     A
C172   C174    1.428   .     A
C172   C176    1.429   .     A
C173   C845    1.413   .     S
C174   C846    1.413   1_554 S
C175   C178    1.413   .     A
C175   C842    1.415   .     S
C176   C177    1.413   .     A
C176   C841    1.415   1_554 S
C177   C179    1.392   .     A
C177   H185    1.076   .     S
C178   H186    1.076   .     S
C178   C180    1.392   .     A
C179   N205    1.434   .     S
C179   C839    1.413   1_554 S
C180   N208    1.434   .     S
C180   C840    1.413   .     S
H183   C20     1.084   1_655 S
C187   N217    1.434   .     S
C187   C194    1.408   .     A
C187   C633    1.389   1_545 S
C188   C193    1.408   .     A
C188   N220    1.434   .     S
C188   C412    1.389   .     S
C189   H191    1.084   .     S
C189   C409    1.389   .     S
C189   C45     1.399   1_655 S
C190   H192    1.084   .     S
C190   C632    1.389   1_545 S
C194   C42     1.399   1_655 S
C195   H197    1.082   .     S
C195   C199    1.417   .     A
C195   N204    1.367   .     A
C196   N203    1.367   .     A
C196   C200    1.417   .     A
C196   H198    1.082   .     S
C199   H201    1.082   .     S
C199   N203    1.367   .     A
C200   H202    1.082   .     S
C200   N204    1.367   .     A
N205   O207    1.301   .     A
N205   O206    1.301   .     A
N208   O210    1.301   .     A
N208   O209    1.301   .     A
N211   H213    1.046   .     S
N211   H212    1.044   .     S
N214   H216    1.044   .     S
N214   H215    1.046   .     S
N214   C18     1.433   1_655 S
N217   H219    1.046   .     S
N217   H218    1.046   .     S
N220   H222    1.046   .     S
N220   H221    1.046   .     S
O223   Cu235   1.963   .     S
O223   C375    1.292   1_455 S
O224   Cu236   1.963   .     S
O224   C302    1.292   .     S
O225   Cu236   1.966   .     S
O225   C227    1.289   .     A
O226   Cu235   1.966   .     S
O226   C228    1.289   .     A
C227   C268    1.449   .     S
C227   O297    1.292   .     S
C228   C267    1.449   .     S
C228   O372    1.292   1_455 S
O229   Cu235   1.956   .     S
O229   C381    1.296   1_455 S
O230   Cu236   1.956   .     S
O230   C308    1.296   .     S
O231   Cu236   1.943   .     S
O231   C233    1.294   .     A
O232   C234    1.294   .     A
O232   Cu235   1.943   .     S
C233   C237    1.466   .     S
C233   O303    1.296   .     S
C234   C238    1.466   .     S
C234   O378    1.296   1_455 S
Cu235  N277    2.012   .     S
Cu235  Cu384   2.678   1_455 S
Cu236  N278    2.012   .     S
Cu236  Cu309   2.678   .     S
C237   C241    1.392   .     A
C237   C243    1.391   .     A
C238   C242    1.392   .     A
C238   C244    1.391   .     A
C239   C247    1.425   .     A
C239   C241    1.398   .     A
C239   N359    1.433   .     S
C240   C248    1.425   .     A
C240   C242    1.398   .     A
C240   N436    1.433   1_455 S
C241   H332    1.084   .     S
C242   H405    1.084   1_455 S
C243   H256    1.075   .     S
C243   C245    1.406   .     A
C244   C246    1.406   .     A
C244   H255    1.075   .     S
C245   C249    1.429   .     A
C245   C247    1.428   .     A
C246   C248    1.428   .     A
C246   C250    1.429   .     A
C247   C919    1.413   .     S
C248   C920    1.413   1_554 S
C249   C252    1.413   .     A
C249   C916    1.415   .     S
C250   C251    1.413   .     A
C250   C915    1.415   1_554 S
C251   C253    1.392   .     A
C251   H259    1.076   .     S
C252   H260    1.076   .     S
C252   C254    1.392   .     A
C253   N279    1.434   .     S
C253   C913    1.413   1_554 S
C254   N282    1.434   .     S
C254   C914    1.413   .     S
H257   C316    1.084   .     S
H258   C389    1.084   1_455 S
C261   N291    1.434   .     S
C261   C268    1.408   .     A
C262   C267    1.408   .     A
C262   N294    1.434   .     S
C262   C486    1.389   .     S
C263   H265    1.084   .     S
C263   C483    1.389   .     S
C263   C341    1.399   .     S
C264   H266    1.084   .     S
C264   C416    1.399   1_455 S
C267   C411    1.399   1_455 S
C268   C338    1.399   .     S
C269   H271    1.082   .     S
C269   C273    1.417   .     A
C269   N278    1.367   .     A
C270   N277    1.367   .     A
C270   C274    1.417   .     A
C270   H272    1.082   .     S
C273   H275    1.082   .     S
C273   N277    1.367   .     A
C274   H276    1.082   .     S
C274   N278    1.367   .     A
N279   O281    1.301   .     A
N279   O280    1.301   .     A
N282   O284    1.301   .     A
N282   O283    1.301   .     A
N285   H287    1.046   .     S
N285   H286    1.044   .     S
N285   C387    1.433   1_455 S
N288   H290    1.044   .     S
N288   H289    1.046   .     S
N288   C314    1.433   .     S
N291   H293    1.046   .     S
N291   H292    1.046   .     S
N294   H296    1.046   .     S
N294   H295    1.046   .     S
O297   Cu309   1.963   .     S
O298   Cu310   1.963   .     S
O298   C376    1.292   .     S
O299   Cu310   1.966   .     S
O299   C301    1.289   .     A
O300   Cu309   1.966   .     S
O300   C302    1.289   .     A
C301   C342    1.449   .     S
C301   O371    1.292   .     S
C302   C341    1.449   .     S
O303   Cu309   1.956   .     S
O304   Cu310   1.956   .     S
O304   C382    1.296   .     S
O305   Cu310   1.943   .     S
O305   C307    1.294   .     A
O306   C308    1.294   .     A
O306   Cu309   1.943   .     S
C307   C311    1.466   .     S
C307   O377    1.296   .     S
C308   C312    1.466   .     S
Cu309  N351    2.012   .     S
Cu310  N352    2.012   .     S
Cu310  Cu383   2.678   .     S
C311   C315    1.392   .     A
C311   C317    1.391   .     A
C312   C316    1.392   .     A
C312   C318    1.391   .     A
C313   C321    1.425   .     A
C313   C315    1.398   .     A
C313   N433    1.433   .     S
C314   C322    1.425   .     A
C314   C316    1.398   .     A
C315   H406    1.084   .     S
C317   H330    1.075   .     S
C317   C319    1.406   .     A
C318   C320    1.406   .     A
C318   H329    1.075   .     S
C319   C323    1.429   .     A
C319   C321    1.428   .     A
C320   C322    1.428   .     A
C320   C324    1.429   .     A
C321   C993    1.413   .     S
C322   C994    1.413   1_554 S
C323   C326    1.413   .     A
C323   C990    1.415   .     S
C324   C325    1.413   .     A
C324   C989    1.415   1_554 S
C325   C327    1.392   .     A
C325   H333    1.076   .     S
C326   H334    1.076   .     S
C326   C328    1.392   .     A
C327   N353    1.434   .     S
C327   C987    1.413   1_554 S
C328   N356    1.434   .     S
C328   C988    1.413   .     S
H331   C390    1.084   .     S
C335   N365    1.434   .     S
C335   C342    1.408   .     A
C336   C341    1.408   .     A
C336   N368    1.434   .     S
C336   C560    1.389   .     S
C337   H339    1.084   .     S
C337   C557    1.389   .     S
C337   C415    1.399   .     S
C338   H340    1.084   .     S
C342   C412    1.399   .     S
C343   H345    1.082   .     S
C343   C347    1.417   .     A
C343   N352    1.367   .     A
C344   N351    1.367   .     A
C344   C348    1.417   .     A
C344   H346    1.082   .     S
C347   H349    1.082   .     S
C347   N351    1.367   .     A
C348   H350    1.082   .     S
C348   N352    1.367   .     A
N353   O355    1.301   .     A
N353   O354    1.301   .     A
N356   O358    1.301   .     A
N356   O357    1.301   .     A
N359   H361    1.046   .     S
N359   H360    1.044   .     S
N362   H364    1.044   .     S
N362   H363    1.046   .     S
N362   C388    1.433   .     S
N365   H367    1.046   .     S
N365   H366    1.046   .     S
N368   H370    1.046   .     S
N368   H369    1.046   .     S
O371   Cu383   1.963   .     S
O372   Cu384   1.963   .     S
O372   C228    1.292   1_655 S
O373   Cu384   1.966   .     S
O373   C375    1.289   .     A
O374   Cu383   1.966   .     S
O374   C376    1.289   .     A
C375   C416    1.449   .     S
C375   O223    1.292   1_655 S
C376   C415    1.449   .     S
O377   Cu383   1.956   .     S
O378   Cu384   1.956   .     S
O378   C234    1.296   1_655 S
O379   Cu384   1.943   .     S
O379   C381    1.294   .     A
O380   C382    1.294   .     A
O380   Cu383   1.943   .     S
C381   C385    1.466   .     S
C381   O229    1.296   1_655 S
C382   C386    1.466   .     S
Cu383  N425    2.012   .     S
Cu384  N426    2.012   .     S
Cu384  Cu235   2.678   1_655 S
C385   C389    1.392   .     A
C385   C391    1.391   .     A
C386   C390    1.392   .     A
C386   C392    1.391   .     A
C387   C395    1.425   .     A
C387   C389    1.398   .     A
C387   N285    1.433   1_655 S
C388   C396    1.425   .     A
C388   C390    1.398   .     A
C389   H258    1.084   1_655 S
C391   H404    1.075   .     S
C391   C393    1.406   .     A
C392   C394    1.406   .     A
C392   H403    1.075   .     S
C393   C397    1.429   .     A
C393   C395    1.428   .     A
C394   C396    1.428   .     A
C394   C398    1.429   .     A
C395   C1067   1.413   .     S
C396   C1068   1.413   1_554 S
C397   C400    1.413   .     A
C397   C1064   1.415   .     S
C398   C399    1.413   .     A
C398   C1063   1.415   1_554 S
C399   C401    1.392   .     A
C399   H407    1.076   .     S
C400   H408    1.076   .     S
C400   C402    1.392   .     A
C401   N427    1.434   .     S
C401   C1061   1.413   1_554 S
C402   N430    1.434   .     S
C402   C1062   1.413   .     S
H405   C242    1.084   1_655 S
C409   N439    1.434   .     S
C409   C416    1.408   .     A
C410   C415    1.408   .     A
C410   N442    1.434   .     S
C410   C634    1.389   .     S
C411   H413    1.084   .     S
C411   C631    1.389   .     S
C411   C267    1.399   1_655 S
C412   H414    1.084   .     S
C416   C264    1.399   1_655 S
C417   H419    1.082   .     S
C417   C421    1.417   .     A
C417   N426    1.367   .     A
C418   N425    1.367   .     A
C418   C422    1.417   .     A
C418   H420    1.082   .     S
C421   H423    1.082   .     S
C421   N425    1.367   .     A
C422   H424    1.082   .     S
C422   N426    1.367   .     A
N427   O429    1.301   .     A
N427   O428    1.301   .     A
N430   O432    1.301   .     A
N430   O431    1.301   .     A
N433   H435    1.046   .     S
N433   H434    1.044   .     S
N436   H438    1.044   .     S
N436   H437    1.046   .     S
N436   C240    1.433   1_655 S
N439   H441    1.046   .     S
N439   H440    1.046   .     S
N442   H444    1.046   .     S
N442   H443    1.046   .     S
O445   Cu457   1.963   .     S
O445   C597    1.292   1_455 S
O446   Cu458   1.963   .     S
O446   C524    1.292   .     S
O447   Cu458   1.966   .     S
O447   C449    1.289   .     A
O448   Cu457   1.966   .     S
O448   C450    1.289   .     A
C449   C490    1.449   .     S
C449   O519    1.292   .     S
C450   C489    1.449   .     S
C450   O594    1.292   1_455 S
O451   Cu457   1.956   .     S
O451   C603    1.296   1_455 S
O452   Cu458   1.956   .     S
O452   C530    1.296   .     S
O453   Cu458   1.943   .     S
O453   C455    1.294   .     A
O454   C456    1.294   .     A
O454   Cu457   1.943   .     S
C455   C459    1.466   .     S
C455   O525    1.296   .     S
C456   C460    1.466   .     S
C456   O600    1.296   1_455 S
Cu457  N499    2.012   .     S
Cu457  Cu606   2.678   1_455 S
Cu458  N500    2.012   .     S
Cu458  Cu531   2.678   .     S
C459   C463    1.392   .     A
C459   C465    1.391   .     A
C460   C464    1.392   .     A
C460   C466    1.391   .     A
C461   C469    1.425   .     A
C461   C463    1.398   .     A
C461   N581    1.433   .     S
C462   C470    1.425   .     A
C462   C464    1.398   .     A
C462   N658    1.433   1_455 S
C463   H554    1.084   .     S
C464   H627    1.084   1_455 S
C465   H478    1.075   .     S
C465   C467    1.406   .     A
C466   C468    1.406   .     A
C466   H477    1.075   .     S
C467   C471    1.429   .     A
C467   C469    1.428   .     A
C468   C470    1.428   .     A
C468   C472    1.429   .     A
C469   C1141   1.413   .     S
C470   C1142   1.413   1_554 S
C471   C474    1.413   .     A
C471   C1138   1.415   .     S
C472   C473    1.413   .     A
C472   C1137   1.415   1_554 S
C473   C475    1.392   .     A
C473   H481    1.076   .     S
C474   H482    1.076   .     S
C474   C476    1.392   .     A
C475   N501    1.434   .     S
C475   C1135   1.413   1_554 S
C476   N504    1.434   .     S
C476   C1136   1.413   .     S
H479   C538    1.084   .     S
H480   C611    1.084   1_455 S
C483   N513    1.434   .     S
C483   C490    1.408   .     A
C484   C489    1.408   .     A
C484   N516    1.434   .     S
C484   C42     1.389   1_565 S
C485   H487    1.084   .     S
C485   C39     1.389   1_565 S
C485   C563    1.399   .     S
C486   H488    1.084   .     S
C486   C638    1.399   1_455 S
C489   C633    1.399   1_455 S
C490   C560    1.399   .     S
C491   H493    1.082   .     S
C491   C495    1.417   .     A
C491   N500    1.367   .     A
C492   N499    1.367   .     A
C492   C496    1.417   .     A
C492   H494    1.082   .     S
C495   H497    1.082   .     S
C495   N499    1.367   .     A
C496   H498    1.082   .     S
C496   N500    1.367   .     A
N501   O503    1.301   .     A
N501   O502    1.301   .     A
N504   O506    1.301   .     A
N504   O505    1.301   .     A
N507   H509    1.046   .     S
N507   H508    1.044   .     S
N507   C609    1.433   1_455 S
N510   H512    1.044   .     S
N510   H511    1.046   .     S
N510   C536    1.433   .     S
N513   H515    1.046   .     S
N513   H514    1.046   .     S
N516   H518    1.046   .     S
N516   H517    1.046   .     S
O519   Cu531   1.963   .     S
O520   Cu532   1.963   .     S
O520   C598    1.292   .     S
O521   Cu532   1.966   .     S
O521   C523    1.289   .     A
O522   Cu531   1.966   .     S
O522   C524    1.289   .     A
C523   C564    1.449   .     S
C523   O593    1.292   .     S
C524   C563    1.449   .     S
O525   Cu531   1.956   .     S
O526   Cu532   1.956   .     S
O526   C604    1.296   .     S
O527   Cu532   1.943   .     S
O527   C529    1.294   .     A
O528   C530    1.294   .     A
O528   Cu531   1.943   .     S
C529   C533    1.466   .     S
C529   O599    1.296   .     S
C530   C534    1.466   .     S
Cu531  N573    2.012   .     S
Cu532  N574    2.012   .     S
Cu532  Cu605   2.678   .     S
C533   C537    1.392   .     A
C533   C539    1.391   .     A
C534   C538    1.392   .     A
C534   C540    1.391   .     A
C535   C543    1.425   .     A
C535   C537    1.398   .     A
C535   N655    1.433   .     S
C536   C544    1.425   .     A
C536   C538    1.398   .     A
C537   H628    1.084   .     S
C539   H552    1.075   .     S
C539   C541    1.406   .     A
C540   C542    1.406   .     A
C540   H551    1.075   .     S
C541   C545    1.429   .     A
C541   C543    1.428   .     A
C542   C544    1.428   .     A
C542   C546    1.429   .     A
C543   C1215   1.413   .     S
C544   C1216   1.413   1_554 S
C545   C548    1.413   .     A
C545   C1212   1.415   .     S
C546   C547    1.413   .     A
C546   C1211   1.415   1_554 S
C547   C549    1.392   .     A
C547   H555    1.076   .     S
C548   H556    1.076   .     S
C548   C550    1.392   .     A
C549   N575    1.434   .     S
C549   C1209   1.413   1_554 S
C550   N578    1.434   .     S
C550   C1210   1.413   .     S
H553   C612    1.084   .     S
C557   N587    1.434   .     S
C557   C564    1.408   .     A
C558   C563    1.408   .     A
C558   N590    1.434   .     S
C558   C116    1.389   1_565 S
C559   H561    1.084   .     S
C559   C113    1.389   1_565 S
C559   C637    1.399   .     S
C560   H562    1.084   .     S
C564   C634    1.399   .     S
C565   H567    1.082   .     S
C565   C569    1.417   .     A
C565   N574    1.367   .     A
C566   N573    1.367   .     A
C566   C570    1.417   .     A
C566   H568    1.082   .     S
C569   H571    1.082   .     S
C569   N573    1.367   .     A
C570   H572    1.082   .     S
C570   N574    1.367   .     A
N575   O577    1.301   .     A
N575   O576    1.301   .     A
N578   O580    1.301   .     A
N578   O579    1.301   .     A
N581   H583    1.046   .     S
N581   H582    1.044   .     S
N584   H586    1.044   .     S
N584   H585    1.046   .     S
N584   C610    1.433   .     S
N587   H589    1.046   .     S
N587   H588    1.046   .     S
N590   H592    1.046   .     S
N590   H591    1.046   .     S
O593   Cu605   1.963   .     S
O594   Cu606   1.963   .     S
O594   C450    1.292   1_655 S
O595   Cu606   1.966   .     S
O595   C597    1.289   .     A
O596   Cu605   1.966   .     S
O596   C598    1.289   .     A
C597   C638    1.449   .     S
C597   O445    1.292   1_655 S
C598   C637    1.449   .     S
O599   Cu605   1.956   .     S
O600   Cu606   1.956   .     S
O600   C456    1.296   1_655 S
O601   Cu606   1.943   .     S
O601   C603    1.294   .     A
O602   C604    1.294   .     A
O602   Cu605   1.943   .     S
C603   C607    1.466   .     S
C603   O451    1.296   1_655 S
C604   C608    1.466   .     S
Cu605  N647    2.012   .     S
Cu606  N648    2.012   .     S
Cu606  Cu457   2.678   1_655 S
C607   C611    1.392   .     A
C607   C613    1.391   .     A
C608   C612    1.392   .     A
C608   C614    1.391   .     A
C609   C617    1.425   .     A
C609   C611    1.398   .     A
C609   N507    1.433   1_655 S
C610   C618    1.425   .     A
C610   C612    1.398   .     A
C611   H480    1.084   1_655 S
C613   H626    1.075   .     S
C613   C615    1.406   .     A
C614   C616    1.406   .     A
C614   H625    1.075   .     S
C615   C619    1.429   .     A
C615   C617    1.428   .     A
C616   C618    1.428   .     A
C616   C620    1.429   .     A
C617   C1289   1.413   .     S
C618   C1290   1.413   1_554 S
C619   C622    1.413   .     A
C619   C1286   1.415   .     S
C620   C621    1.413   .     A
C620   C1285   1.415   1_554 S
C621   C623    1.392   .     A
C621   H629    1.076   .     S
C622   H630    1.076   .     S
C622   C624    1.392   .     A
C623   N649    1.434   .     S
C623   C1283   1.413   1_554 S
C624   N652    1.434   .     S
C624   C1284   1.413   .     S
H627   C464    1.084   1_655 S
C631   N661    1.434   .     S
C631   C638    1.408   .     A
C632   C637    1.408   .     A
C632   N664    1.434   .     S
C632   C190    1.389   1_565 S
C633   H635    1.084   .     S
C633   C187    1.389   1_565 S
C633   C489    1.399   1_655 S
C634   H636    1.084   .     S
C638   C486    1.399   1_655 S
C639   H641    1.082   .     S
C639   C643    1.417   .     A
C639   N648    1.367   .     A
C640   N647    1.367   .     A
C640   C644    1.417   .     A
C640   H642    1.082   .     S
C643   H645    1.082   .     S
C643   N647    1.367   .     A
C644   H646    1.082   .     S
C644   N648    1.367   .     A
N649   O651    1.301   .     A
N649   O650    1.301   .     A
N652   O654    1.301   .     A
N652   O653    1.301   .     A
N655   H657    1.046   .     S
N655   H656    1.044   .     S
N658   H660    1.044   .     S
N658   H659    1.046   .     S
N658   C462    1.433   1_655 S
N661   H663    1.046   .     S
N661   H662    1.046   .     S
N664   H666    1.046   .     S
N664   H665    1.046   .     S
O667   Cu679   1.963   .     S
O667   C819    1.292   1_455 S
O668   Cu680   1.963   .     S
O668   C746    1.292   .     S
O669   Cu680   1.966   .     S
O669   C671    1.289   .     A
O670   Cu679   1.966   .     S
O670   C672    1.289   .     A
C671   C712    1.449   .     S
C671   O741    1.292   .     S
C672   C711    1.449   .     S
C672   O816    1.292   1_455 S
O673   Cu679   1.956   .     S
O673   C825    1.296   1_455 S
O674   Cu680   1.956   .     S
O674   C752    1.296   .     S
O675   Cu680   1.943   .     S
O675   C677    1.294   .     A
O676   C678    1.294   .     A
O676   Cu679   1.943   .     S
C677   C681    1.466   .     S
C677   O747    1.296   .     S
C678   C682    1.466   .     S
C678   O822    1.296   1_455 S
Cu679  N721    2.012   .     S
Cu679  Cu828   2.678   1_455 S
Cu680  N722    2.012   .     S
Cu680  Cu753   2.678   .     S
C681   C685    1.392   .     A
C681   C687    1.391   .     A
C682   C686    1.392   .     A
C682   C688    1.391   .     A
C683   C691    1.425   .     A
C683   C685    1.398   .     A
C683   N803    1.433   .     S
C684   C692    1.425   .     A
C684   C686    1.398   .     A
C684   N880    1.433   1_455 S
C685   H776    1.084   .     S
C686   H849    1.084   1_455 S
C687   H700    1.075   .     S
C687   C689    1.406   .     A
C688   C690    1.406   .     A
C688   H699    1.075   .     S
C689   C693    1.429   .     A
C689   C691    1.428   .     A
C690   C692    1.428   .     A
C690   C694    1.429   .     A
C691   C31     1.413   1_556 S
C693   C696    1.413   .     A
C693   C28     1.415   1_556 S
C694   C695    1.413   .     A
C695   C697    1.392   .     A
C695   H703    1.076   .     S
C696   H704    1.076   .     S
C696   C698    1.392   .     A
C697   N723    1.434   .     S
C698   N726    1.434   .     S
C698   C26     1.413   1_556 S
H701   C760    1.084   .     S
H702   C833    1.084   1_455 S
C705   N735    1.434   .     S
C705   C712    1.408   .     A
C705   C1151   1.389   1_545 S
C706   C711    1.408   .     A
C706   N738    1.434   .     S
C706   C930    1.389   .     S
C707   H709    1.084   .     S
C707   C927    1.389   .     S
C707   C785    1.399   .     S
C708   H710    1.084   .     S
C708   C1150   1.389   1_545 S
C708   C860    1.399   1_455 S
C711   C855    1.399   1_455 S
C712   C782    1.399   .     S
C713   H715    1.082   .     S
C713   C717    1.417   .     A
C713   N722    1.367   .     A
C714   N721    1.367   .     A
C714   C718    1.417   .     A
C714   H716    1.082   .     S
C717   H719    1.082   .     S
C717   N721    1.367   .     A
C718   H720    1.082   .     S
C718   N722    1.367   .     A
N723   O725    1.301   .     A
N723   O724    1.301   .     A
N726   O728    1.301   .     A
N726   O727    1.301   .     A
N729   H731    1.046   .     S
N729   H730    1.044   .     S
N729   C831    1.433   1_455 S
N732   H734    1.044   .     S
N732   H733    1.046   .     S
N732   C758    1.433   .     S
N735   H737    1.046   .     S
N735   H736    1.046   .     S
N738   H740    1.046   .     S
N738   H739    1.046   .     S
O741   Cu753   1.963   .     S
O742   Cu754   1.963   .     S
O742   C820    1.292   .     S
O743   Cu754   1.966   .     S
O743   C745    1.289   .     A
O744   Cu753   1.966   .     S
O744   C746    1.289   .     A
C745   C786    1.449   .     S
C745   O815    1.292   .     S
C746   C785    1.449   .     S
O747   Cu753   1.956   .     S
O748   Cu754   1.956   .     S
O748   C826    1.296   .     S
O749   Cu754   1.943   .     S
O749   C751    1.294   .     A
O750   C752    1.294   .     A
O750   Cu753   1.943   .     S
C751   C755    1.466   .     S
C751   O821    1.296   .     S
C752   C756    1.466   .     S
Cu753  N795    2.012   .     S
Cu754  N796    2.012   .     S
Cu754  Cu827   2.678   .     S
C755   C759    1.392   .     A
C755   C761    1.391   .     A
C756   C760    1.392   .     A
C756   C762    1.391   .     A
C757   C765    1.425   .     A
C757   C759    1.398   .     A
C757   N877    1.433   .     S
C758   C766    1.425   .     A
C758   C760    1.398   .     A
C759   H850    1.084   .     S
C761   H774    1.075   .     S
C761   C763    1.406   .     A
C762   C764    1.406   .     A
C762   H773    1.075   .     S
C763   C767    1.429   .     A
C763   C765    1.428   .     A
C764   C766    1.428   .     A
C764   C768    1.429   .     A
C765   C105    1.413   1_556 S
C767   C770    1.413   .     A
C767   C102    1.415   1_556 S
C768   C769    1.413   .     A
C769   C771    1.392   .     A
C769   H777    1.076   .     S
C770   H778    1.076   .     S
C770   C772    1.392   .     A
C771   N797    1.434   .     S
C772   N800    1.434   .     S
C772   C100    1.413   1_556 S
H775   C834    1.084   .     S
C779   N809    1.434   .     S
C779   C786    1.408   .     A
C779   C1225   1.389   1_545 S
C780   C785    1.408   .     A
C780   N812    1.434   .     S
C780   C1004   1.389   .     S
C781   H783    1.084   .     S
C781   C1001   1.389   .     S
C781   C859    1.399   .     S
C782   H784    1.084   .     S
C782   C1224   1.389   1_545 S
C786   C856    1.399   .     S
C787   H789    1.082   .     S
C787   C791    1.417   .     A
C787   N796    1.367   .     A
C788   N795    1.367   .     A
C788   C792    1.417   .     A
C788   H790    1.082   .     S
C791   H793    1.082   .     S
C791   N795    1.367   .     A
C792   H794    1.082   .     S
C792   N796    1.367   .     A
N797   O799    1.301   .     A
N797   O798    1.301   .     A
N800   O802    1.301   .     A
N800   O801    1.301   .     A
N803   H805    1.046   .     S
N803   H804    1.044   .     S
N806   H808    1.044   .     S
N806   H807    1.046   .     S
N806   C832    1.433   .     S
N809   H811    1.046   .     S
N809   H810    1.046   .     S
N812   H814    1.046   .     S
N812   H813    1.046   .     S
O815   Cu827   1.963   .     S
O816   Cu828   1.963   .     S
O816   C672    1.292   1_655 S
O817   Cu828   1.966   .     S
O817   C819    1.289   .     A
O818   Cu827   1.966   .     S
O818   C820    1.289   .     A
C819   C860    1.449   .     S
C819   O667    1.292   1_655 S
C820   C859    1.449   .     S
O821   Cu827   1.956   .     S
O822   Cu828   1.956   .     S
O822   C678    1.296   1_655 S
O823   Cu828   1.943   .     S
O823   C825    1.294   .     A
O824   C826    1.294   .     A
O824   Cu827   1.943   .     S
C825   C829    1.466   .     S
C825   O673    1.296   1_655 S
C826   C830    1.466   .     S
Cu827  N869    2.012   .     S
Cu828  N870    2.012   .     S
Cu828  Cu679   2.678   1_655 S
C829   C833    1.392   .     A
C829   C835    1.391   .     A
C830   C834    1.392   .     A
C830   C836    1.391   .     A
C831   C839    1.425   .     A
C831   C833    1.398   .     A
C831   N729    1.433   1_655 S
C832   C840    1.425   .     A
C832   C834    1.398   .     A
C833   H702    1.084   1_655 S
C835   H848    1.075   .     S
C835   C837    1.406   .     A
C836   C838    1.406   .     A
C836   H847    1.075   .     S
C837   C841    1.429   .     A
C837   C839    1.428   .     A
C838   C840    1.428   .     A
C838   C842    1.429   .     A
C839   C179    1.413   1_556 S
C841   C844    1.413   .     A
C841   C176    1.415   1_556 S
C842   C843    1.413   .     A
C843   C845    1.392   .     A
C843   H851    1.076   .     S
C844   H852    1.076   .     S
C844   C846    1.392   .     A
C845   N871    1.434   .     S
C846   N874    1.434   .     S
C846   C174    1.413   1_556 S
H849   C686    1.084   1_655 S
C853   N883    1.434   .     S
C853   C860    1.408   .     A
C853   C1299   1.389   1_545 S
C854   C859    1.408   .     A
C854   N886    1.434   .     S
C854   C1078   1.389   .     S
C855   H857    1.084   .     S
C855   C1075   1.389   .     S
C855   C711    1.399   1_655 S
C856   H858    1.084   .     S
C856   C1298   1.389   1_545 S
C860   C708    1.399   1_655 S
C861   H863    1.082   .     S
C861   C865    1.417   .     A
C861   N870    1.367   .     A
C862   N869    1.367   .     A
C862   C866    1.417   .     A
C862   H864    1.082   .     S
C865   H867    1.082   .     S
C865   N869    1.367   .     A
C866   H868    1.082   .     S
C866   N870    1.367   .     A
N871   O873    1.301   .     A
N871   O872    1.301   .     A
N874   O876    1.301   .     A
N874   O875    1.301   .     A
N877   H879    1.046   .     S
N877   H878    1.044   .     S
N880   H882    1.044   .     S
N880   H881    1.046   .     S
N880   C684    1.433   1_655 S
N883   H885    1.046   .     S
N883   H884    1.046   .     S
N886   H888    1.046   .     S
N886   H887    1.046   .     S
O889   Cu901   1.963   .     S
O889   C1041   1.292   1_455 S
O890   Cu902   1.963   .     S
O890   C968    1.292   .     S
O891   Cu902   1.966   .     S
O891   C893    1.289   .     A
O892   Cu901   1.966   .     S
O892   C894    1.289   .     A
C893   C934    1.449   .     S
C893   O963    1.292   .     S
C894   C933    1.449   .     S
C894   O1038   1.292   1_455 S
O895   Cu901   1.956   .     S
O895   C1047   1.296   1_455 S
O896   Cu902   1.956   .     S
O896   C974    1.296   .     S
O897   Cu902   1.943   .     S
O897   C899    1.294   .     A
O898   C900    1.294   .     A
O898   Cu901   1.943   .     S
C899   C903    1.466   .     S
C899   O969    1.296   .     S
C900   C904    1.466   .     S
C900   O1044   1.296   1_455 S
Cu901  N943    2.012   .     S
Cu901  Cu1050  2.678   1_455 S
Cu902  N944    2.012   .     S
Cu902  Cu975   2.678   .     S
C903   C907    1.392   .     A
C903   C909    1.391   .     A
C904   C908    1.392   .     A
C904   C910    1.391   .     A
C905   C913    1.425   .     A
C905   C907    1.398   .     A
C905   N1025   1.433   .     S
C906   C914    1.425   .     A
C906   C908    1.398   .     A
C906   N1102   1.433   1_455 S
C907   H998    1.084   .     S
C908   H1071   1.084   1_455 S
C909   H922    1.075   .     S
C909   C911    1.406   .     A
C910   C912    1.406   .     A
C910   H921    1.075   .     S
C911   C915    1.429   .     A
C911   C913    1.428   .     A
C912   C914    1.428   .     A
C912   C916    1.429   .     A
C913   C253    1.413   1_556 S
C915   C918    1.413   .     A
C915   C250    1.415   1_556 S
C916   C917    1.413   .     A
C917   C919    1.392   .     A
C917   H925    1.076   .     S
C918   H926    1.076   .     S
C918   C920    1.392   .     A
C919   N945    1.434   .     S
C920   N948    1.434   .     S
C920   C248    1.413   1_556 S
H923   C982    1.084   .     S
H924   C1055   1.084   1_455 S
C927   N957    1.434   .     S
C927   C934    1.408   .     A
C928   C933    1.408   .     A
C928   N960    1.434   .     S
C928   C1152   1.389   .     S
C929   H931    1.084   .     S
C929   C1149   1.389   .     S
C929   C1007   1.399   .     S
C930   H932    1.084   .     S
C930   C1082   1.399   1_455 S
C933   C1077   1.399   1_455 S
C934   C1004   1.399   .     S
C935   H937    1.082   .     S
C935   C939    1.417   .     A
C935   N944    1.367   .     A
C936   N943    1.367   .     A
C936   C940    1.417   .     A
C936   H938    1.082   .     S
C939   H941    1.082   .     S
C939   N943    1.367   .     A
C940   H942    1.082   .     S
C940   N944    1.367   .     A
N945   O947    1.301   .     A
N945   O946    1.301   .     A
N948   O950    1.301   .     A
N948   O949    1.301   .     A
N951   H953    1.046   .     S
N951   H952    1.044   .     S
N951   C1053   1.433   1_455 S
N954   H956    1.044   .     S
N954   H955    1.046   .     S
N954   C980    1.433   .     S
N957   H959    1.046   .     S
N957   H958    1.046   .     S
N960   H962    1.046   .     S
N960   H961    1.046   .     S
O963   Cu975   1.963   .     S
O964   Cu976   1.963   .     S
O964   C1042   1.292   .     S
O965   Cu976   1.966   .     S
O965   C967    1.289   .     A
O966   Cu975   1.966   .     S
O966   C968    1.289   .     A
C967   C1008   1.449   .     S
C967   O1037   1.292   .     S
C968   C1007   1.449   .     S
O969   Cu975   1.956   .     S
O970   Cu976   1.956   .     S
O970   C1048   1.296   .     S
O971   Cu976   1.943   .     S
O971   C973    1.294   .     A
O972   C974    1.294   .     A
O972   Cu975   1.943   .     S
C973   C977    1.466   .     S
C973   O1043   1.296   .     S
C974   C978    1.466   .     S
Cu975  N1017   2.012   .     S
Cu976  N1018   2.012   .     S
Cu976  Cu1049  2.678   .     S
C977   C981    1.392   .     A
C977   C983    1.391   .     A
C978   C982    1.392   .     A
C978   C984    1.391   .     A
C979   C987    1.425   .     A
C979   C981    1.398   .     A
C979   N1099   1.433   .     S
C980   C988    1.425   .     A
C980   C982    1.398   .     A
C981   H1072   1.084   .     S
C983   H996    1.075   .     S
C983   C985    1.406   .     A
C984   C986    1.406   .     A
C984   H995    1.075   .     S
C985   C989    1.429   .     A
C985   C987    1.428   .     A
C986   C988    1.428   .     A
C986   C990    1.429   .     A
C987   C327    1.413   1_556 S
C989   C992    1.413   .     A
C989   C324    1.415   1_556 S
C990   C991    1.413   .     A
C991   C993    1.392   .     A
C991   H999    1.076   .     S
C992   H1000   1.076   .     S
C992   C994    1.392   .     A
C993   N1019   1.434   .     S
C994   N1022   1.434   .     S
C994   C322    1.413   1_556 S
H997   C1056   1.084   .     S
C1001  N1031   1.434   .     S
C1001  C1008   1.408   .     A
C1002  C1007   1.408   .     A
C1002  N1034   1.434   .     S
C1002  C1226   1.389   .     S
C1003  H1005   1.084   .     S
C1003  C1223   1.389   .     S
C1003  C1081   1.399   .     S
C1004  H1006   1.084   .     S
C1008  C1078   1.399   .     S
C1009  H1011   1.082   .     S
C1009  C1013   1.417   .     A
C1009  N1018   1.367   .     A
C1010  N1017   1.367   .     A
C1010  C1014   1.417   .     A
C1010  H1012   1.082   .     S
C1013  H1015   1.082   .     S
C1013  N1017   1.367   .     A
C1014  H1016   1.082   .     S
C1014  N1018   1.367   .     A
N1019  O1021   1.301   .     A
N1019  O1020   1.301   .     A
N1022  O1024   1.301   .     A
N1022  O1023   1.301   .     A
N1025  H1027   1.046   .     S
N1025  H1026   1.044   .     S
N1028  H1030   1.044   .     S
N1028  H1029   1.046   .     S
N1028  C1054   1.433   .     S
N1031  H1033   1.046   .     S
N1031  H1032   1.046   .     S
N1034  H1036   1.046   .     S
N1034  H1035   1.046   .     S
O1037  Cu1049  1.963   .     S
O1038  Cu1050  1.963   .     S
O1038  C894    1.292   1_655 S
O1039  Cu1050  1.966   .     S
O1039  C1041   1.289   .     A
O1040  Cu1049  1.966   .     S
O1040  C1042   1.289   .     A
C1041  C1082   1.449   .     S
C1041  O889    1.292   1_655 S
C1042  C1081   1.449   .     S
O1043  Cu1049  1.956   .     S
O1044  Cu1050  1.956   .     S
O1044  C900    1.296   1_655 S
O1045  Cu1050  1.943   .     S
O1045  C1047   1.294   .     A
O1046  C1048   1.294   .     A
O1046  Cu1049  1.943   .     S
C1047  C1051   1.466   .     S
C1047  O895    1.296   1_655 S
C1048  C1052   1.466   .     S
Cu1049 N1091   2.012   .     S
Cu1050 N1092   2.012   .     S
Cu1050 Cu901   2.678   1_655 S
C1051  C1055   1.392   .     A
C1051  C1057   1.391   .     A
C1052  C1056   1.392   .     A
C1052  C1058   1.391   .     A
C1053  C1061   1.425   .     A
C1053  C1055   1.398   .     A
C1053  N951    1.433   1_655 S
C1054  C1062   1.425   .     A
C1054  C1056   1.398   .     A
C1055  H924    1.084   1_655 S
C1057  H1070   1.075   .     S
C1057  C1059   1.406   .     A
C1058  C1060   1.406   .     A
C1058  H1069   1.075   .     S
C1059  C1063   1.429   .     A
C1059  C1061   1.428   .     A
C1060  C1062   1.428   .     A
C1060  C1064   1.429   .     A
C1061  C401    1.413   1_556 S
C1063  C1066   1.413   .     A
C1063  C398    1.415   1_556 S
C1064  C1065   1.413   .     A
C1065  C1067   1.392   .     A
C1065  H1073   1.076   .     S
C1066  H1074   1.076   .     S
C1066  C1068   1.392   .     A
C1067  N1093   1.434   .     S
C1068  N1096   1.434   .     S
C1068  C396    1.413   1_556 S
H1071  C908    1.084   1_655 S
C1075  N1105   1.434   .     S
C1075  C1082   1.408   .     A
C1076  C1081   1.408   .     A
C1076  N1108   1.434   .     S
C1076  C1300   1.389   .     S
C1077  H1079   1.084   .     S
C1077  C1297   1.389   .     S
C1077  C933    1.399   1_655 S
C1078  H1080   1.084   .     S
C1082  C930    1.399   1_655 S
C1083  H1085   1.082   .     S
C1083  C1087   1.417   .     A
C1083  N1092   1.367   .     A
C1084  N1091   1.367   .     A
C1084  C1088   1.417   .     A
C1084  H1086   1.082   .     S
C1087  H1089   1.082   .     S
C1087  N1091   1.367   .     A
C1088  H1090   1.082   .     S
C1088  N1092   1.367   .     A
N1093  O1095   1.301   .     A
N1093  O1094   1.301   .     A
N1096  O1098   1.301   .     A
N1096  O1097   1.301   .     A
N1099  H1101   1.046   .     S
N1099  H1100   1.044   .     S
N1102  H1104   1.044   .     S
N1102  H1103   1.046   .     S
N1102  C906    1.433   1_655 S
N1105  H1107   1.046   .     S
N1105  H1106   1.046   .     S
N1108  H1110   1.046   .     S
N1108  H1109   1.046   .     S
O1111  Cu1123  1.963   .     S
O1111  C1263   1.292   1_455 S
O1112  Cu1124  1.963   .     S
O1112  C1190   1.292   .     S
O1113  Cu1124  1.966   .     S
O1113  C1115   1.289   .     A
O1114  Cu1123  1.966   .     S
O1114  C1116   1.289   .     A
C1115  C1156   1.449   .     S
C1115  O1185   1.292   .     S
C1116  C1155   1.449   .     S
C1116  O1260   1.292   1_455 S
O1117  Cu1123  1.956   .     S
O1117  C1269   1.296   1_455 S
O1118  Cu1124  1.956   .     S
O1118  C1196   1.296   .     S
O1119  Cu1124  1.943   .     S
O1119  C1121   1.294   .     A
O1120  C1122   1.294   .     A
O1120  Cu1123  1.943   .     S
C1121  C1125   1.466   .     S
C1121  O1191   1.296   .     S
C1122  C1126   1.466   .     S
C1122  O1266   1.296   1_455 S
Cu1123 N1165   2.012   .     S
Cu1123 Cu1272  2.678   1_455 S
Cu1124 N1166   2.012   .     S
Cu1124 Cu1197  2.678   .     S
C1125  C1129   1.392   .     A
C1125  C1131   1.391   .     A
C1126  C1130   1.392   .     A
C1126  C1132   1.391   .     A
C1127  C1135   1.425   .     A
C1127  C1129   1.398   .     A
C1127  N1247   1.433   .     S
C1128  C1136   1.425   .     A
C1128  C1130   1.398   .     A
C1128  N1324   1.433   1_455 S
C1129  H1220   1.084   .     S
C1130  H1293   1.084   1_455 S
C1131  H1144   1.075   .     S
C1131  C1133   1.406   .     A
C1132  C1134   1.406   .     A
C1132  H1143   1.075   .     S
C1133  C1137   1.429   .     A
C1133  C1135   1.428   .     A
C1134  C1136   1.428   .     A
C1134  C1138   1.429   .     A
C1135  C475    1.413   1_556 S
C1137  C1140   1.413   .     A
C1137  C472    1.415   1_556 S
C1138  C1139   1.413   .     A
C1139  C1141   1.392   .     A
C1139  H1147   1.076   .     S
C1140  H1148   1.076   .     S
C1140  C1142   1.392   .     A
C1141  N1167   1.434   .     S
C1142  N1170   1.434   .     S
C1142  C470    1.413   1_556 S
H1145  C1204   1.084   .     S
H1146  C1277   1.084   1_455 S
C1149  N1179   1.434   .     S
C1149  C1156   1.408   .     A
C1150  C1155   1.408   .     A
C1150  N1182   1.434   .     S
C1150  C708    1.389   1_565 S
C1151  H1153   1.084   .     S
C1151  C705    1.389   1_565 S
C1151  C1229   1.399   .     S
C1152  H1154   1.084   .     S
C1152  C1304   1.399   1_455 S
C1155  C1299   1.399   1_455 S
C1156  C1226   1.399   .     S
C1157  H1159   1.082   .     S
C1157  C1161   1.417   .     A
C1157  N1166   1.367   .     A
C1158  N1165   1.367   .     A
C1158  C1162   1.417   .     A
C1158  H1160   1.082   .     S
C1161  H1163   1.082   .     S
C1161  N1165   1.367   .     A
C1162  H1164   1.082   .     S
C1162  N1166   1.367   .     A
N1167  O1169   1.301   .     A
N1167  O1168   1.301   .     A
N1170  O1172   1.301   .     A
N1170  O1171   1.301   .     A
N1173  H1175   1.046   .     S
N1173  H1174   1.044   .     S
N1173  C1275   1.433   1_455 S
N1176  H1178   1.044   .     S
N1176  H1177   1.046   .     S
N1176  C1202   1.433   .     S
N1179  H1181   1.046   .     S
N1179  H1180   1.046   .     S
N1182  H1184   1.046   .     S
N1182  H1183   1.046   .     S
O1185  Cu1197  1.963   .     S
O1186  Cu1198  1.963   .     S
O1186  C1264   1.292   .     S
O1187  Cu1198  1.966   .     S
O1187  C1189   1.289   .     A
O1188  Cu1197  1.966   .     S
O1188  C1190   1.289   .     A
C1189  C1230   1.449   .     S
C1189  O1259   1.292   .     S
C1190  C1229   1.449   .     S
O1191  Cu1197  1.956   .     S
O1192  Cu1198  1.956   .     S
O1192  C1270   1.296   .     S
O1193  Cu1198  1.943   .     S
O1193  C1195   1.294   .     A
O1194  C1196   1.294   .     A
O1194  Cu1197  1.943   .     S
C1195  C1199   1.466   .     S
C1195  O1265   1.296   .     S
C1196  C1200   1.466   .     S
Cu1197 N1239   2.012   .     S
Cu1198 N1240   2.012   .     S
Cu1198 Cu1271  2.678   .     S
C1199  C1203   1.392   .     A
C1199  C1205   1.391   .     A
C1200  C1204   1.392   .     A
C1200  C1206   1.391   .     A
C1201  C1209   1.425   .     A
C1201  C1203   1.398   .     A
C1201  N1321   1.433   .     S
C1202  C1210   1.425   .     A
C1202  C1204   1.398   .     A
C1203  H1294   1.084   .     S
C1205  H1218   1.075   .     S
C1205  C1207   1.406   .     A
C1206  C1208   1.406   .     A
C1206  H1217   1.075   .     S
C1207  C1211   1.429   .     A
C1207  C1209   1.428   .     A
C1208  C1210   1.428   .     A
C1208  C1212   1.429   .     A
C1209  C549    1.413   1_556 S
C1211  C1214   1.413   .     A
C1211  C546    1.415   1_556 S
C1212  C1213   1.413   .     A
C1213  C1215   1.392   .     A
C1213  H1221   1.076   .     S
C1214  H1222   1.076   .     S
C1214  C1216   1.392   .     A
C1215  N1241   1.434   .     S
C1216  N1244   1.434   .     S
C1216  C544    1.413   1_556 S
H1219  C1278   1.084   .     S
C1223  N1253   1.434   .     S
C1223  C1230   1.408   .     A
C1224  C1229   1.408   .     A
C1224  N1256   1.434   .     S
C1224  C782    1.389   1_565 S
C1225  H1227   1.084   .     S
C1225  C779    1.389   1_565 S
C1225  C1303   1.399   .     S
C1226  H1228   1.084   .     S
C1230  C1300   1.399   .     S
C1231  H1233   1.082   .     S
C1231  C1235   1.417   .     A
C1231  N1240   1.367   .     A
C1232  N1239   1.367   .     A
C1232  C1236   1.417   .     A
C1232  H1234   1.082   .     S
C1235  H1237   1.082   .     S
C1235  N1239   1.367   .     A
C1236  H1238   1.082   .     S
C1236  N1240   1.367   .     A
N1241  O1243   1.301   .     A
N1241  O1242   1.301   .     A
N1244  O1246   1.301   .     A
N1244  O1245   1.301   .     A
N1247  H1249   1.046   .     S
N1247  H1248   1.044   .     S
N1250  H1252   1.044   .     S
N1250  H1251   1.046   .     S
N1250  C1276   1.433   .     S
N1253  H1255   1.046   .     S
N1253  H1254   1.046   .     S
N1256  H1258   1.046   .     S
N1256  H1257   1.046   .     S
O1259  Cu1271  1.963   .     S
O1260  Cu1272  1.963   .     S
O1260  C1116   1.292   1_655 S
O1261  Cu1272  1.966   .     S
O1261  C1263   1.289   .     A
O1262  Cu1271  1.966   .     S
O1262  C1264   1.289   .     A
C1263  C1304   1.449   .     S
C1263  O1111   1.292   1_655 S
C1264  C1303   1.449   .     S
O1265  Cu1271  1.956   .     S
O1266  Cu1272  1.956   .     S
O1266  C1122   1.296   1_655 S
O1267  Cu1272  1.943   .     S
O1267  C1269   1.294   .     A
O1268  C1270   1.294   .     A
O1268  Cu1271  1.943   .     S
C1269  C1273   1.466   .     S
C1269  O1117   1.296   1_655 S
C1270  C1274   1.466   .     S
Cu1271 N1313   2.012   .     S
Cu1272 N1314   2.012   .     S
Cu1272 Cu1123  2.678   1_655 S
C1273  C1277   1.392   .     A
C1273  C1279   1.391   .     A
C1274  C1278   1.392   .     A
C1274  C1280   1.391   .     A
C1275  C1283   1.425   .     A
C1275  C1277   1.398   .     A
C1275  N1173   1.433   1_655 S
C1276  C1284   1.425   .     A
C1276  C1278   1.398   .     A
C1277  H1146   1.084   1_655 S
C1279  H1292   1.075   .     S
C1279  C1281   1.406   .     A
C1280  C1282   1.406   .     A
C1280  H1291   1.075   .     S
C1281  C1285   1.429   .     A
C1281  C1283   1.428   .     A
C1282  C1284   1.428   .     A
C1282  C1286   1.429   .     A
C1283  C623    1.413   1_556 S
C1285  C1288   1.413   .     A
C1285  C620    1.415   1_556 S
C1286  C1287   1.413   .     A
C1287  C1289   1.392   .     A
C1287  H1295   1.076   .     S
C1288  H1296   1.076   .     S
C1288  C1290   1.392   .     A
C1289  N1315   1.434   .     S
C1290  N1318   1.434   .     S
C1290  C618    1.413   1_556 S
H1293  C1130   1.084   1_655 S
C1297  N1327   1.434   .     S
C1297  C1304   1.408   .     A
C1298  C1303   1.408   .     A
C1298  N1330   1.434   .     S
C1298  C856    1.389   1_565 S
C1299  H1301   1.084   .     S
C1299  C853    1.389   1_565 S
C1299  C1155   1.399   1_655 S
C1300  H1302   1.084   .     S
C1304  C1152   1.399   1_655 S
C1305  H1307   1.082   .     S
C1305  C1309   1.417   .     A
C1305  N1314   1.367   .     A
C1306  N1313   1.367   .     A
C1306  C1310   1.417   .     A
C1306  H1308   1.082   .     S
C1309  H1311   1.082   .     S
C1309  N1313   1.367   .     A
C1310  H1312   1.082   .     S
C1310  N1314   1.367   .     A
N1315  O1317   1.301   .     A
N1315  O1316   1.301   .     A
N1318  O1320   1.301   .     A
N1318  O1319   1.301   .     A
N1321  H1323   1.046   .     S
N1321  H1322   1.044   .     S
N1324  H1326   1.044   .     S
N1324  H1325   1.046   .     S
N1324  C1128   1.433   1_655 S
N1327  H1329   1.046   .     S
N1327  H1328   1.046   .     S
N1330  H1332   1.046   .     S
N1330  H1331   1.046   .     S
