data_str_m2_o2_o10_pcu_sym.40
_audit_creation_date              2020-01-03
_audit_creation_method            'Materials Studio'
_symmetry_space_group_name_H-M    'P1'
_symmetry_Int_Tables_number       1
_symmetry_cell_setting            triclinic
loop_
_symmetry_equiv_pos_as_xyz
  x,y,z
_cell_length_a                    26.1315
_cell_length_b                    30.2048
_cell_length_c                    27.8375
_cell_angle_alpha                 89.7866
_cell_angle_beta                  97.4734
_cell_angle_gamma                 91.3414
loop_
_atom_site_label
_atom_site_type_symbol
_atom_site_fract_x
_atom_site_fract_y
_atom_site_fract_z
_atom_site_U_iso_or_equiv
_atom_site_adp_type
_atom_site_occupancy
C1     C     0.16686   0.16519   0.25004   0.00000  Uiso   1.00
C2     C     0.18839   0.28676   0.44825   0.00000  Uiso   1.00
C3     C     0.16587   0.25043   0.02710   0.00000  Uiso   1.00
C4     C     0.16688   0.25102   0.47276   0.00000  Uiso   1.00
C5     C     0.06800   0.25010   0.23769   0.00000  Uiso   1.00
C6     C     0.26536   0.25011   0.26234   0.00000  Uiso   1.00
C7     C     0.01284   0.25047   0.23089   0.00000  Uiso   1.00
C8     C     0.32059   0.25013   0.26923   0.00000  Uiso   1.00
C9     C     0.12826   0.04706   0.26494   0.00000  Uiso   1.00
C10    C     0.17893   0.45389   0.21241   0.00000  Uiso   1.00
C11    C     0.12725   0.09292   0.26452   0.00000  Uiso   1.00
C12    C     0.16550   0.33512   0.24996   0.00000  Uiso   1.00
C13    C     0.17670   0.40795   0.21081   0.00000  Uiso   1.00
C14    C     0.16863   0.11730   0.25021   0.00000  Uiso   1.00
C15    C     0.16409   0.38367   0.25074   0.00000  Uiso   1.00
C16    C     0.21155   0.09600   0.23621   0.00000  Uiso   1.00
C17    C     0.15168   0.40623   0.29206   0.00000  Uiso   1.00
C18    C     0.21498   0.04985   0.24091   0.00000  Uiso   1.00
C19    C     0.15812   0.45222   0.29533   0.00000  Uiso   1.00
C20    C     0.17206   0.02509   0.25406   0.00000  Uiso   1.00
C21    C     0.17080   0.47639   0.25462   0.00000  Uiso   1.00
C22    C     0.25112   0.11815   0.17179   0.00000  Uiso   1.00
C23    C     0.20886   0.26565   0.05841   0.00000  Uiso   1.00
C24    C     0.28814   0.15280   0.15509   0.00000  Uiso   1.00
C25    C     0.08167   0.37662   0.32185   0.00000  Uiso   1.00
C26    C     0.06376   0.34816   0.36197   0.00000  Uiso   1.00
C27    C     0.04552   0.25747   0.01047   0.00000  Uiso   1.00
C28    C     0.33024   0.24288   0.47773   0.00000  Uiso   1.00
C29    C     0.17372   0.35736   0.46923   0.00000  Uiso   1.00
C30    C     0.19382   0.39505   0.00307   0.00000  Uiso   1.00
C31    C     0.14580   0.21526   0.44447   0.00000  Uiso   1.00
C32    C     0.20772   0.26775   0.10856   0.00000  Uiso   1.00
C33    C     0.14381   0.21586   0.39391   0.00000  Uiso   1.00
C34    C     0.12484   0.23339   0.09979   0.00000  Uiso   1.00
C35    C     0.18930   0.28462   0.39752   0.00000  Uiso   1.00
C36    C     0.12243   0.23500   0.04869   0.00000  Uiso   1.00
Cu37   Cu    0.16667   0.24999   0.29822   0.00000  Uiso   1.00
Cu38   Cu    0.16667   0.25000   0.20179   0.00000  Uiso   1.00
H39    H     0.32659   0.25104   0.19402   0.00000  Uiso   1.00
H40    H     0.20748   0.31143   0.37965   0.00000  Uiso   1.00
H41    H     0.21183   0.12448   0.15242   0.00000  Uiso   1.00
H42    H     0.26350   0.08494   0.16136   0.00000  Uiso   1.00
H43    H     0.32755   0.14866   0.17473   0.00000  Uiso   1.00
H44    H     0.28955   0.14925   0.11559   0.00000  Uiso   1.00
H45    H     0.27464   0.18641   0.16208   0.00000  Uiso   1.00
H46    H     0.07007   0.35906   0.28682   0.00000  Uiso   1.00
H47    H     0.06170   0.40884   0.32113   0.00000  Uiso   1.00
H48    H     0.02139   0.34208   0.35460   0.00000  Uiso   1.00
H49    H     0.08322   0.31581   0.36373   0.00000  Uiso   1.00
H50    H     0.00695   0.24974   0.30613   0.00000  Uiso   1.00
H51    H     0.07281   0.36528   0.39738   0.00000  Uiso   1.00
H52    H     0.26277   0.00093   0.24847   0.00000  Uiso   1.00
H53    H     0.16970   0.00122   0.34103   0.00000  Uiso   1.00
H54    H     0.23401   0.30708   0.15984   0.00000  Uiso   1.00
H55    H     0.09922   0.19323   0.33915   0.00000  Uiso   1.00
H56    H     0.06523   0.28406   0.49134   0.00000  Uiso   1.00
H57    H     0.03389   0.27108   0.04449   0.00000  Uiso   1.00
H58    H     0.30869   0.21720   0.49617   0.00000  Uiso   1.00
H59    H     0.30504   0.27169   0.46911   0.00000  Uiso   1.00
H60    H     0.00726   0.22913   0.44340   0.00000  Uiso   1.00
H61    H     0.09496   0.02855   0.27436   0.00000  Uiso   1.00
H62    H     0.13580   0.34564   0.47948   0.00000  Uiso   1.00
H63    H     0.16819   0.37037   0.43150   0.00000  Uiso   1.00
H64    H     0.23130   0.40805   0.49349   0.00000  Uiso   1.00
H65    H     0.16568   0.42223   0.49981   0.00000  Uiso   1.00
H66    H     0.19931   0.38308   0.04114   0.00000  Uiso   1.00
H67    H     0.18766   0.47206   0.18072   0.00000  Uiso   1.00
H68    H     0.09374   0.10943   0.27437   0.00000  Uiso   1.00
H69    H     0.18525   0.39143   0.17841   0.00000  Uiso   1.00
H70    H     0.24328   0.27745   0.04410   0.00000  Uiso   1.00
H71    H     0.12959   0.18678   0.46136   0.00000  Uiso   1.00
H72    H     0.09215   0.21987   0.11553   0.00000  Uiso   1.00
N73    N     0.16667   0.25001   0.12935   0.00000  Uiso   1.00
N74    N     0.16667   0.24999   0.37066   0.00000  Uiso   1.00
O75    O     0.16667   0.18572   0.29072   0.00000  Uiso   1.00
O76    O     0.13577   0.38340   0.33092   0.00000  Uiso   1.00
O77    O     0.26086   0.03072   0.23354   0.00000  Uiso   1.00
O78    O     0.15174   0.47195   0.33880   0.00000  Uiso   1.00
O79    O     0.24846   0.28940   0.13532   0.00000  Uiso   1.00
O80    O     0.11787   0.18115   0.36917   0.00000  Uiso   1.00
O81    O     0.07765   0.22075   0.02054   0.00000  Uiso   1.00
O82    O     0.20999   0.32325   0.47365   0.00000  Uiso   1.00
O83    O     0.16666   0.31427   0.20929   0.00000  Uiso   1.00
O84    O     0.16667   0.18573   0.20928   0.00000  Uiso   1.00
O85    O     0.16666   0.31427   0.29072   0.00000  Uiso   1.00
O86    O     0.09161   0.24999   0.28132   0.00000  Uiso   1.00
O87    O     0.24172   0.25000   0.21868   0.00000  Uiso   1.00
O88    O     0.09161   0.25000   0.19989   0.00000  Uiso   1.00
O89    O     0.24172   0.25000   0.30012   0.00000  Uiso   1.00
O90    O     0.25237   0.12101   0.22261   0.00000  Uiso   1.00
C91    C     0.50020   0.16519   0.25004   0.00000  Uiso   1.00
C92    C     0.52172   0.28676   0.44825   0.00000  Uiso   1.00
C93    C     0.49920   0.25043   0.02710   0.00000  Uiso   1.00
C94    C     0.50021   0.25102   0.47276   0.00000  Uiso   1.00
C95    C     0.40134   0.25010   0.23769   0.00000  Uiso   1.00
C96    C     0.59869   0.25011   0.26234   0.00000  Uiso   1.00
C97    C     0.34618   0.25047   0.23089   0.00000  Uiso   1.00
C98    C     0.65393   0.25013   0.26923   0.00000  Uiso   1.00
C99    C     0.46160   0.04706   0.26494   0.00000  Uiso   1.00
C100   C     0.51226   0.45389   0.21241   0.00000  Uiso   1.00
C101   C     0.46059   0.09292   0.26452   0.00000  Uiso   1.00
C102   C     0.49883   0.33512   0.24996   0.00000  Uiso   1.00
C103   C     0.51003   0.40795   0.21081   0.00000  Uiso   1.00
C104   C     0.50196   0.11730   0.25021   0.00000  Uiso   1.00
C105   C     0.49743   0.38367   0.25074   0.00000  Uiso   1.00
C106   C     0.54489   0.09600   0.23621   0.00000  Uiso   1.00
C107   C     0.48501   0.40623   0.29206   0.00000  Uiso   1.00
C108   C     0.54831   0.04985   0.24091   0.00000  Uiso   1.00
C109   C     0.49145   0.45222   0.29533   0.00000  Uiso   1.00
C110   C     0.50539   0.02509   0.25406   0.00000  Uiso   1.00
C111   C     0.50413   0.47639   0.25462   0.00000  Uiso   1.00
C112   C     0.58446   0.11815   0.17179   0.00000  Uiso   1.00
C113   C     0.54220   0.26565   0.05841   0.00000  Uiso   1.00
C114   C     0.62147   0.15280   0.15509   0.00000  Uiso   1.00
C115   C     0.41501   0.37662   0.32185   0.00000  Uiso   1.00
C116   C     0.39709   0.34816   0.36197   0.00000  Uiso   1.00
C117   C     0.37885   0.25747   0.01047   0.00000  Uiso   1.00
C118   C     0.66357   0.24288   0.47773   0.00000  Uiso   1.00
C119   C     0.50705   0.35736   0.46923   0.00000  Uiso   1.00
C120   C     0.52715   0.39505   0.00307   0.00000  Uiso   1.00
C121   C     0.47913   0.21526   0.44447   0.00000  Uiso   1.00
C122   C     0.54105   0.26775   0.10856   0.00000  Uiso   1.00
C123   C     0.47714   0.21586   0.39391   0.00000  Uiso   1.00
C124   C     0.45817   0.23339   0.09979   0.00000  Uiso   1.00
C125   C     0.52264   0.28462   0.39752   0.00000  Uiso   1.00
C126   C     0.45576   0.23500   0.04869   0.00000  Uiso   1.00
Cu127  Cu    0.50000   0.24999   0.29822   0.00000  Uiso   1.00
Cu128  Cu    0.50000   0.25000   0.20179   0.00000  Uiso   1.00
H129   H     0.65993   0.25104   0.19402   0.00000  Uiso   1.00
H130   H     0.54081   0.31143   0.37965   0.00000  Uiso   1.00
H131   H     0.54517   0.12448   0.15242   0.00000  Uiso   1.00
H132   H     0.59683   0.08494   0.16136   0.00000  Uiso   1.00
H133   H     0.66088   0.14866   0.17473   0.00000  Uiso   1.00
H134   H     0.62289   0.14925   0.11559   0.00000  Uiso   1.00
H135   H     0.60797   0.18641   0.16208   0.00000  Uiso   1.00
H136   H     0.40340   0.35906   0.28682   0.00000  Uiso   1.00
H137   H     0.39504   0.40884   0.32113   0.00000  Uiso   1.00
H138   H     0.35472   0.34208   0.35460   0.00000  Uiso   1.00
H139   H     0.41656   0.31581   0.36373   0.00000  Uiso   1.00
H140   H     0.34029   0.24974   0.30613   0.00000  Uiso   1.00
H141   H     0.40615   0.36528   0.39738   0.00000  Uiso   1.00
H142   H     0.59610   0.00093   0.24847   0.00000  Uiso   1.00
H143   H     0.50304   0.00122   0.34103   0.00000  Uiso   1.00
H144   H     0.56735   0.30708   0.15984   0.00000  Uiso   1.00
H145   H     0.43256   0.19323   0.33915   0.00000  Uiso   1.00
H146   H     0.39856   0.28406   0.49134   0.00000  Uiso   1.00
H147   H     0.36722   0.27108   0.04449   0.00000  Uiso   1.00
H148   H     0.64203   0.21720   0.49617   0.00000  Uiso   1.00
H149   H     0.63837   0.27169   0.46911   0.00000  Uiso   1.00
H150   H     0.34060   0.22913   0.44340   0.00000  Uiso   1.00
H151   H     0.42829   0.02855   0.27436   0.00000  Uiso   1.00
H152   H     0.46913   0.34564   0.47948   0.00000  Uiso   1.00
H153   H     0.50153   0.37037   0.43150   0.00000  Uiso   1.00
H154   H     0.56463   0.40805   0.49349   0.00000  Uiso   1.00
H155   H     0.49901   0.42223   0.49981   0.00000  Uiso   1.00
H156   H     0.53264   0.38308   0.04114   0.00000  Uiso   1.00
H157   H     0.52099   0.47206   0.18072   0.00000  Uiso   1.00
H158   H     0.42707   0.10943   0.27437   0.00000  Uiso   1.00
H159   H     0.51858   0.39143   0.17841   0.00000  Uiso   1.00
H160   H     0.57661   0.27745   0.04410   0.00000  Uiso   1.00
H161   H     0.46292   0.18678   0.46136   0.00000  Uiso   1.00
H162   H     0.42548   0.21987   0.11553   0.00000  Uiso   1.00
N163   N     0.50000   0.25001   0.12935   0.00000  Uiso   1.00
N164   N     0.50000   0.24999   0.37066   0.00000  Uiso   1.00
O165   O     0.50000   0.18572   0.29072   0.00000  Uiso   1.00
O166   O     0.46910   0.38340   0.33092   0.00000  Uiso   1.00
O167   O     0.59419   0.03072   0.23354   0.00000  Uiso   1.00
O168   O     0.48507   0.47195   0.33880   0.00000  Uiso   1.00
O169   O     0.58179   0.28940   0.13532   0.00000  Uiso   1.00
O170   O     0.45120   0.18115   0.36917   0.00000  Uiso   1.00
O171   O     0.41099   0.22075   0.02054   0.00000  Uiso   1.00
O172   O     0.54333   0.32325   0.47365   0.00000  Uiso   1.00
O173   O     0.50000   0.31427   0.20929   0.00000  Uiso   1.00
O174   O     0.50000   0.18573   0.20928   0.00000  Uiso   1.00
O175   O     0.50000   0.31427   0.29072   0.00000  Uiso   1.00
O176   O     0.42495   0.24999   0.28132   0.00000  Uiso   1.00
O177   O     0.57505   0.25000   0.21868   0.00000  Uiso   1.00
O178   O     0.42495   0.25000   0.19989   0.00000  Uiso   1.00
O179   O     0.57505   0.25000   0.30012   0.00000  Uiso   1.00
O180   O     0.58571   0.12101   0.22261   0.00000  Uiso   1.00
C181   C     0.83353   0.16519   0.25004   0.00000  Uiso   1.00
C182   C     0.85505   0.28676   0.44825   0.00000  Uiso   1.00
C183   C     0.83253   0.25043   0.02710   0.00000  Uiso   1.00
C184   C     0.83355   0.25102   0.47276   0.00000  Uiso   1.00
C185   C     0.73467   0.25010   0.23769   0.00000  Uiso   1.00
C186   C     0.93203   0.25011   0.26234   0.00000  Uiso   1.00
C187   C     0.67951   0.25047   0.23089   0.00000  Uiso   1.00
C188   C     0.98726   0.25013   0.26923   0.00000  Uiso   1.00
C189   C     0.79493   0.04706   0.26494   0.00000  Uiso   1.00
C190   C     0.84560   0.45389   0.21241   0.00000  Uiso   1.00
C191   C     0.79392   0.09292   0.26452   0.00000  Uiso   1.00
C192   C     0.83216   0.33512   0.24996   0.00000  Uiso   1.00
C193   C     0.84337   0.40795   0.21081   0.00000  Uiso   1.00
C194   C     0.83529   0.11730   0.25021   0.00000  Uiso   1.00
C195   C     0.83076   0.38367   0.25074   0.00000  Uiso   1.00
C196   C     0.87822   0.09600   0.23621   0.00000  Uiso   1.00
C197   C     0.81835   0.40623   0.29206   0.00000  Uiso   1.00
C198   C     0.88164   0.04985   0.24091   0.00000  Uiso   1.00
C199   C     0.82479   0.45222   0.29533   0.00000  Uiso   1.00
C200   C     0.83873   0.02509   0.25406   0.00000  Uiso   1.00
C201   C     0.83746   0.47639   0.25462   0.00000  Uiso   1.00
C202   C     0.91779   0.11815   0.17179   0.00000  Uiso   1.00
C203   C     0.87553   0.26565   0.05841   0.00000  Uiso   1.00
C204   C     0.95481   0.15280   0.15509   0.00000  Uiso   1.00
C205   C     0.74834   0.37662   0.32185   0.00000  Uiso   1.00
C206   C     0.73042   0.34816   0.36197   0.00000  Uiso   1.00
C207   C     0.71218   0.25747   0.01047   0.00000  Uiso   1.00
C208   C     0.99691   0.24288   0.47773   0.00000  Uiso   1.00
C209   C     0.84039   0.35736   0.46923   0.00000  Uiso   1.00
C210   C     0.86049   0.39505   0.00307   0.00000  Uiso   1.00
C211   C     0.81246   0.21526   0.44447   0.00000  Uiso   1.00
C212   C     0.87439   0.26775   0.10856   0.00000  Uiso   1.00
C213   C     0.81048   0.21586   0.39391   0.00000  Uiso   1.00
C214   C     0.79151   0.23339   0.09979   0.00000  Uiso   1.00
C215   C     0.85597   0.28462   0.39752   0.00000  Uiso   1.00
C216   C     0.78910   0.23500   0.04869   0.00000  Uiso   1.00
Cu217  Cu    0.83333   0.24999   0.29822   0.00000  Uiso   1.00
Cu218  Cu    0.83333   0.25000   0.20179   0.00000  Uiso   1.00
H219   H     0.99326   0.25104   0.19402   0.00000  Uiso   1.00
H220   H     0.87415   0.31143   0.37965   0.00000  Uiso   1.00
H221   H     0.87850   0.12448   0.15242   0.00000  Uiso   1.00
H222   H     0.93016   0.08494   0.16136   0.00000  Uiso   1.00
H223   H     0.99422   0.14866   0.17473   0.00000  Uiso   1.00
H224   H     0.95622   0.14925   0.11559   0.00000  Uiso   1.00
H225   H     0.94130   0.18641   0.16208   0.00000  Uiso   1.00
H226   H     0.73673   0.35906   0.28682   0.00000  Uiso   1.00
H227   H     0.72837   0.40884   0.32113   0.00000  Uiso   1.00
H228   H     0.68805   0.34208   0.35460   0.00000  Uiso   1.00
H229   H     0.74989   0.31581   0.36373   0.00000  Uiso   1.00
H230   H     0.67362   0.24974   0.30613   0.00000  Uiso   1.00
H231   H     0.73948   0.36528   0.39738   0.00000  Uiso   1.00
H232   H     0.92944   0.00093   0.24847   0.00000  Uiso   1.00
H233   H     0.83637   0.00122   0.34103   0.00000  Uiso   1.00
H234   H     0.90068   0.30708   0.15984   0.00000  Uiso   1.00
H235   H     0.76589   0.19323   0.33915   0.00000  Uiso   1.00
H236   H     0.73190   0.28406   0.49134   0.00000  Uiso   1.00
H237   H     0.70055   0.27108   0.04449   0.00000  Uiso   1.00
H238   H     0.97536   0.21720   0.49617   0.00000  Uiso   1.00
H239   H     0.97170   0.27169   0.46911   0.00000  Uiso   1.00
H240   H     0.67393   0.22913   0.44340   0.00000  Uiso   1.00
H241   H     0.76162   0.02855   0.27436   0.00000  Uiso   1.00
H242   H     0.80247   0.34564   0.47948   0.00000  Uiso   1.00
H243   H     0.83486   0.37037   0.43150   0.00000  Uiso   1.00
H244   H     0.89797   0.40805   0.49349   0.00000  Uiso   1.00
H245   H     0.83235   0.42223   0.49981   0.00000  Uiso   1.00
H246   H     0.86597   0.38308   0.04114   0.00000  Uiso   1.00
H247   H     0.85433   0.47206   0.18072   0.00000  Uiso   1.00
H248   H     0.76041   0.10943   0.27437   0.00000  Uiso   1.00
H249   H     0.85191   0.39143   0.17841   0.00000  Uiso   1.00
H250   H     0.90995   0.27745   0.04410   0.00000  Uiso   1.00
H251   H     0.79625   0.18678   0.46136   0.00000  Uiso   1.00
H252   H     0.75882   0.21987   0.11553   0.00000  Uiso   1.00
N253   N     0.83333   0.25001   0.12935   0.00000  Uiso   1.00
N254   N     0.83333   0.24999   0.37066   0.00000  Uiso   1.00
O255   O     0.83334   0.18572   0.29072   0.00000  Uiso   1.00
O256   O     0.80244   0.38340   0.33092   0.00000  Uiso   1.00
O257   O     0.92753   0.03072   0.23354   0.00000  Uiso   1.00
O258   O     0.81841   0.47195   0.33880   0.00000  Uiso   1.00
O259   O     0.91512   0.28940   0.13532   0.00000  Uiso   1.00
O260   O     0.78453   0.18115   0.36917   0.00000  Uiso   1.00
O261   O     0.74432   0.22075   0.02054   0.00000  Uiso   1.00
O262   O     0.87666   0.32325   0.47365   0.00000  Uiso   1.00
O263   O     0.83333   0.31427   0.20929   0.00000  Uiso   1.00
O264   O     0.83334   0.18573   0.20928   0.00000  Uiso   1.00
O265   O     0.83333   0.31427   0.29072   0.00000  Uiso   1.00
O266   O     0.75828   0.24999   0.28132   0.00000  Uiso   1.00
O267   O     0.90839   0.25000   0.21868   0.00000  Uiso   1.00
O268   O     0.75828   0.25000   0.19989   0.00000  Uiso   1.00
O269   O     0.90839   0.25000   0.30012   0.00000  Uiso   1.00
O270   O     0.91904   0.12101   0.22261   0.00000  Uiso   1.00
C271   C     0.16686   0.66519   0.25004   0.00000  Uiso   1.00
C272   C     0.18839   0.78676   0.44825   0.00000  Uiso   1.00
C273   C     0.16587   0.75043   0.02710   0.00000  Uiso   1.00
C274   C     0.16688   0.75102   0.47276   0.00000  Uiso   1.00
C275   C     0.06800   0.75010   0.23769   0.00000  Uiso   1.00
C276   C     0.26536   0.75011   0.26234   0.00000  Uiso   1.00
C277   C     0.01284   0.75047   0.23089   0.00000  Uiso   1.00
C278   C     0.32059   0.75013   0.26923   0.00000  Uiso   1.00
C279   C     0.12826   0.54706   0.26494   0.00000  Uiso   1.00
C280   C     0.17893   0.95389   0.21241   0.00000  Uiso   1.00
C281   C     0.12725   0.59292   0.26452   0.00000  Uiso   1.00
C282   C     0.16550   0.83512   0.24996   0.00000  Uiso   1.00
C283   C     0.17670   0.90795   0.21081   0.00000  Uiso   1.00
C284   C     0.16863   0.61730   0.25021   0.00000  Uiso   1.00
C285   C     0.16409   0.88367   0.25074   0.00000  Uiso   1.00
C286   C     0.21155   0.59600   0.23621   0.00000  Uiso   1.00
C287   C     0.15168   0.90623   0.29206   0.00000  Uiso   1.00
C288   C     0.21498   0.54985   0.24091   0.00000  Uiso   1.00
C289   C     0.15812   0.95222   0.29533   0.00000  Uiso   1.00
C290   C     0.17206   0.52509   0.25406   0.00000  Uiso   1.00
C291   C     0.17080   0.97639   0.25462   0.00000  Uiso   1.00
C292   C     0.25112   0.61815   0.17179   0.00000  Uiso   1.00
C293   C     0.20886   0.76565   0.05841   0.00000  Uiso   1.00
C294   C     0.28814   0.65280   0.15509   0.00000  Uiso   1.00
C295   C     0.08167   0.87662   0.32185   0.00000  Uiso   1.00
C296   C     0.06376   0.84816   0.36197   0.00000  Uiso   1.00
C297   C     0.04552   0.75747   0.01047   0.00000  Uiso   1.00
C298   C     0.33024   0.74288   0.47773   0.00000  Uiso   1.00
C299   C     0.17372   0.85736   0.46923   0.00000  Uiso   1.00
C300   C     0.19382   0.89505   0.00307   0.00000  Uiso   1.00
C301   C     0.14580   0.71526   0.44447   0.00000  Uiso   1.00
C302   C     0.20772   0.76775   0.10856   0.00000  Uiso   1.00
C303   C     0.14381   0.71586   0.39391   0.00000  Uiso   1.00
C304   C     0.12484   0.73339   0.09979   0.00000  Uiso   1.00
C305   C     0.18930   0.78462   0.39752   0.00000  Uiso   1.00
C306   C     0.12243   0.73500   0.04869   0.00000  Uiso   1.00
Cu307  Cu    0.16667   0.74999   0.29822   0.00000  Uiso   1.00
Cu308  Cu    0.16667   0.75000   0.20179   0.00000  Uiso   1.00
H309   H     0.32659   0.75104   0.19402   0.00000  Uiso   1.00
H310   H     0.20748   0.81143   0.37965   0.00000  Uiso   1.00
H311   H     0.21183   0.62448   0.15242   0.00000  Uiso   1.00
H312   H     0.26350   0.58494   0.16136   0.00000  Uiso   1.00
H313   H     0.32755   0.64866   0.17473   0.00000  Uiso   1.00
H314   H     0.28955   0.64925   0.11559   0.00000  Uiso   1.00
H315   H     0.27464   0.68641   0.16208   0.00000  Uiso   1.00
H316   H     0.07007   0.85906   0.28682   0.00000  Uiso   1.00
H317   H     0.06170   0.90884   0.32113   0.00000  Uiso   1.00
H318   H     0.02139   0.84208   0.35460   0.00000  Uiso   1.00
H319   H     0.08322   0.81581   0.36373   0.00000  Uiso   1.00
H320   H     0.00695   0.74974   0.30613   0.00000  Uiso   1.00
H321   H     0.07281   0.86528   0.39738   0.00000  Uiso   1.00
H322   H     0.26277   0.50093   0.24847   0.00000  Uiso   1.00
H323   H     0.16970   0.50122   0.34103   0.00000  Uiso   1.00
H324   H     0.23401   0.80708   0.15984   0.00000  Uiso   1.00
H325   H     0.09922   0.69323   0.33915   0.00000  Uiso   1.00
H326   H     0.06523   0.78406   0.49134   0.00000  Uiso   1.00
H327   H     0.03389   0.77108   0.04449   0.00000  Uiso   1.00
H328   H     0.30869   0.71720   0.49617   0.00000  Uiso   1.00
H329   H     0.30504   0.77169   0.46911   0.00000  Uiso   1.00
H330   H     0.00726   0.72913   0.44340   0.00000  Uiso   1.00
H331   H     0.09496   0.52855   0.27436   0.00000  Uiso   1.00
H332   H     0.13580   0.84564   0.47948   0.00000  Uiso   1.00
H333   H     0.16819   0.87037   0.43150   0.00000  Uiso   1.00
H334   H     0.23130   0.90805   0.49349   0.00000  Uiso   1.00
H335   H     0.16568   0.92223   0.49981   0.00000  Uiso   1.00
H336   H     0.19931   0.88308   0.04114   0.00000  Uiso   1.00
H337   H     0.18766   0.97206   0.18072   0.00000  Uiso   1.00
H338   H     0.09374   0.60943   0.27437   0.00000  Uiso   1.00
H339   H     0.18525   0.89143   0.17841   0.00000  Uiso   1.00
H340   H     0.24328   0.77745   0.04410   0.00000  Uiso   1.00
H341   H     0.12959   0.68678   0.46136   0.00000  Uiso   1.00
H342   H     0.09215   0.71987   0.11553   0.00000  Uiso   1.00
N343   N     0.16667   0.75001   0.12935   0.00000  Uiso   1.00
N344   N     0.16667   0.74999   0.37066   0.00000  Uiso   1.00
O345   O     0.16667   0.68572   0.29072   0.00000  Uiso   1.00
O346   O     0.13577   0.88340   0.33092   0.00000  Uiso   1.00
O347   O     0.26086   0.53072   0.23354   0.00000  Uiso   1.00
O348   O     0.15174   0.97195   0.33880   0.00000  Uiso   1.00
O349   O     0.24846   0.78940   0.13532   0.00000  Uiso   1.00
O350   O     0.11787   0.68115   0.36917   0.00000  Uiso   1.00
O351   O     0.07765   0.72075   0.02054   0.00000  Uiso   1.00
O352   O     0.20999   0.82325   0.47365   0.00000  Uiso   1.00
O353   O     0.16666   0.81427   0.20929   0.00000  Uiso   1.00
O354   O     0.16667   0.68573   0.20928   0.00000  Uiso   1.00
O355   O     0.16666   0.81427   0.29072   0.00000  Uiso   1.00
O356   O     0.09161   0.74999   0.28132   0.00000  Uiso   1.00
O357   O     0.24172   0.75000   0.21868   0.00000  Uiso   1.00
O358   O     0.09161   0.75000   0.19989   0.00000  Uiso   1.00
O359   O     0.24172   0.75000   0.30012   0.00000  Uiso   1.00
O360   O     0.25237   0.62101   0.22261   0.00000  Uiso   1.00
C361   C     0.50020   0.66519   0.25004   0.00000  Uiso   1.00
C362   C     0.52172   0.78676   0.44825   0.00000  Uiso   1.00
C363   C     0.49920   0.75043   0.02710   0.00000  Uiso   1.00
C364   C     0.50021   0.75102   0.47276   0.00000  Uiso   1.00
C365   C     0.40134   0.75010   0.23769   0.00000  Uiso   1.00
C366   C     0.59869   0.75011   0.26234   0.00000  Uiso   1.00
C367   C     0.34618   0.75047   0.23089   0.00000  Uiso   1.00
C368   C     0.65393   0.75013   0.26923   0.00000  Uiso   1.00
C369   C     0.46160   0.54706   0.26494   0.00000  Uiso   1.00
C370   C     0.51226   0.95389   0.21241   0.00000  Uiso   1.00
C371   C     0.46059   0.59292   0.26452   0.00000  Uiso   1.00
C372   C     0.49883   0.83512   0.24996   0.00000  Uiso   1.00
C373   C     0.51003   0.90795   0.21081   0.00000  Uiso   1.00
C374   C     0.50196   0.61730   0.25021   0.00000  Uiso   1.00
C375   C     0.49743   0.88367   0.25074   0.00000  Uiso   1.00
C376   C     0.54489   0.59600   0.23621   0.00000  Uiso   1.00
C377   C     0.48501   0.90623   0.29206   0.00000  Uiso   1.00
C378   C     0.54831   0.54985   0.24091   0.00000  Uiso   1.00
C379   C     0.49145   0.95222   0.29533   0.00000  Uiso   1.00
C380   C     0.50539   0.52509   0.25406   0.00000  Uiso   1.00
C381   C     0.50413   0.97639   0.25462   0.00000  Uiso   1.00
C382   C     0.58446   0.61815   0.17179   0.00000  Uiso   1.00
C383   C     0.54220   0.76565   0.05841   0.00000  Uiso   1.00
C384   C     0.62147   0.65280   0.15509   0.00000  Uiso   1.00
C385   C     0.41501   0.87662   0.32185   0.00000  Uiso   1.00
C386   C     0.39709   0.84816   0.36197   0.00000  Uiso   1.00
C387   C     0.37885   0.75747   0.01047   0.00000  Uiso   1.00
C388   C     0.66357   0.74288   0.47773   0.00000  Uiso   1.00
C389   C     0.50705   0.85736   0.46923   0.00000  Uiso   1.00
C390   C     0.52715   0.89505   0.00307   0.00000  Uiso   1.00
C391   C     0.47913   0.71526   0.44447   0.00000  Uiso   1.00
C392   C     0.54105   0.76775   0.10856   0.00000  Uiso   1.00
C393   C     0.47714   0.71586   0.39391   0.00000  Uiso   1.00
C394   C     0.45817   0.73339   0.09979   0.00000  Uiso   1.00
C395   C     0.52264   0.78462   0.39752   0.00000  Uiso   1.00
C396   C     0.45576   0.73500   0.04869   0.00000  Uiso   1.00
Cu397  Cu    0.50000   0.74999   0.29822   0.00000  Uiso   1.00
Cu398  Cu    0.50000   0.75000   0.20179   0.00000  Uiso   1.00
H399   H     0.65993   0.75104   0.19402   0.00000  Uiso   1.00
H400   H     0.54081   0.81143   0.37965   0.00000  Uiso   1.00
H401   H     0.54517   0.62448   0.15242   0.00000  Uiso   1.00
H402   H     0.59683   0.58494   0.16136   0.00000  Uiso   1.00
H403   H     0.66088   0.64866   0.17473   0.00000  Uiso   1.00
H404   H     0.62289   0.64925   0.11559   0.00000  Uiso   1.00
H405   H     0.60797   0.68641   0.16208   0.00000  Uiso   1.00
H406   H     0.40340   0.85906   0.28682   0.00000  Uiso   1.00
H407   H     0.39504   0.90884   0.32113   0.00000  Uiso   1.00
H408   H     0.35472   0.84208   0.35460   0.00000  Uiso   1.00
H409   H     0.41656   0.81581   0.36373   0.00000  Uiso   1.00
H410   H     0.34029   0.74974   0.30613   0.00000  Uiso   1.00
H411   H     0.40615   0.86528   0.39738   0.00000  Uiso   1.00
H412   H     0.59610   0.50093   0.24847   0.00000  Uiso   1.00
H413   H     0.50304   0.50122   0.34103   0.00000  Uiso   1.00
H414   H     0.56735   0.80708   0.15984   0.00000  Uiso   1.00
H415   H     0.43256   0.69323   0.33915   0.00000  Uiso   1.00
H416   H     0.39856   0.78406   0.49134   0.00000  Uiso   1.00
H417   H     0.36722   0.77108   0.04449   0.00000  Uiso   1.00
H418   H     0.64203   0.71720   0.49617   0.00000  Uiso   1.00
H419   H     0.63837   0.77169   0.46911   0.00000  Uiso   1.00
H420   H     0.34060   0.72913   0.44340   0.00000  Uiso   1.00
H421   H     0.42829   0.52855   0.27436   0.00000  Uiso   1.00
H422   H     0.46913   0.84564   0.47948   0.00000  Uiso   1.00
H423   H     0.50153   0.87037   0.43150   0.00000  Uiso   1.00
H424   H     0.56463   0.90805   0.49349   0.00000  Uiso   1.00
H425   H     0.49901   0.92223   0.49981   0.00000  Uiso   1.00
H426   H     0.53264   0.88308   0.04114   0.00000  Uiso   1.00
H427   H     0.52099   0.97206   0.18072   0.00000  Uiso   1.00
H428   H     0.42707   0.60943   0.27437   0.00000  Uiso   1.00
H429   H     0.51858   0.89143   0.17841   0.00000  Uiso   1.00
H430   H     0.57661   0.77745   0.04410   0.00000  Uiso   1.00
H431   H     0.46292   0.68678   0.46136   0.00000  Uiso   1.00
H432   H     0.42548   0.71987   0.11553   0.00000  Uiso   1.00
N433   N     0.50000   0.75001   0.12935   0.00000  Uiso   1.00
N434   N     0.50000   0.74999   0.37066   0.00000  Uiso   1.00
O435   O     0.50000   0.68572   0.29072   0.00000  Uiso   1.00
O436   O     0.46910   0.88340   0.33092   0.00000  Uiso   1.00
O437   O     0.59419   0.53072   0.23354   0.00000  Uiso   1.00
O438   O     0.48507   0.97195   0.33880   0.00000  Uiso   1.00
O439   O     0.58179   0.78940   0.13532   0.00000  Uiso   1.00
O440   O     0.45120   0.68115   0.36917   0.00000  Uiso   1.00
O441   O     0.41099   0.72075   0.02054   0.00000  Uiso   1.00
O442   O     0.54333   0.82325   0.47365   0.00000  Uiso   1.00
O443   O     0.50000   0.81427   0.20929   0.00000  Uiso   1.00
O444   O     0.50000   0.68573   0.20928   0.00000  Uiso   1.00
O445   O     0.50000   0.81427   0.29072   0.00000  Uiso   1.00
O446   O     0.42495   0.74999   0.28132   0.00000  Uiso   1.00
O447   O     0.57505   0.75000   0.21868   0.00000  Uiso   1.00
O448   O     0.42495   0.75000   0.19989   0.00000  Uiso   1.00
O449   O     0.57505   0.75000   0.30012   0.00000  Uiso   1.00
O450   O     0.58571   0.62101   0.22261   0.00000  Uiso   1.00
C451   C     0.83353   0.66519   0.25004   0.00000  Uiso   1.00
C452   C     0.85505   0.78676   0.44825   0.00000  Uiso   1.00
C453   C     0.83253   0.75043   0.02710   0.00000  Uiso   1.00
C454   C     0.83355   0.75102   0.47276   0.00000  Uiso   1.00
C455   C     0.73467   0.75010   0.23769   0.00000  Uiso   1.00
C456   C     0.93203   0.75011   0.26234   0.00000  Uiso   1.00
C457   C     0.67951   0.75047   0.23089   0.00000  Uiso   1.00
C458   C     0.98726   0.75013   0.26923   0.00000  Uiso   1.00
C459   C     0.79493   0.54706   0.26494   0.00000  Uiso   1.00
C460   C     0.84560   0.95389   0.21241   0.00000  Uiso   1.00
C461   C     0.79392   0.59292   0.26452   0.00000  Uiso   1.00
C462   C     0.83216   0.83512   0.24996   0.00000  Uiso   1.00
C463   C     0.84337   0.90795   0.21081   0.00000  Uiso   1.00
C464   C     0.83529   0.61730   0.25021   0.00000  Uiso   1.00
C465   C     0.83076   0.88367   0.25074   0.00000  Uiso   1.00
C466   C     0.87822   0.59600   0.23621   0.00000  Uiso   1.00
C467   C     0.81835   0.90623   0.29206   0.00000  Uiso   1.00
C468   C     0.88164   0.54985   0.24091   0.00000  Uiso   1.00
C469   C     0.82479   0.95222   0.29533   0.00000  Uiso   1.00
C470   C     0.83873   0.52509   0.25406   0.00000  Uiso   1.00
C471   C     0.83746   0.97639   0.25462   0.00000  Uiso   1.00
C472   C     0.91779   0.61815   0.17179   0.00000  Uiso   1.00
C473   C     0.87553   0.76565   0.05841   0.00000  Uiso   1.00
C474   C     0.95481   0.65280   0.15509   0.00000  Uiso   1.00
C475   C     0.74834   0.87662   0.32185   0.00000  Uiso   1.00
C476   C     0.73042   0.84816   0.36197   0.00000  Uiso   1.00
C477   C     0.71218   0.75747   0.01047   0.00000  Uiso   1.00
C478   C     0.99691   0.74288   0.47773   0.00000  Uiso   1.00
C479   C     0.84039   0.85736   0.46923   0.00000  Uiso   1.00
C480   C     0.86049   0.89505   0.00307   0.00000  Uiso   1.00
C481   C     0.81246   0.71526   0.44447   0.00000  Uiso   1.00
C482   C     0.87439   0.76775   0.10856   0.00000  Uiso   1.00
C483   C     0.81048   0.71586   0.39391   0.00000  Uiso   1.00
C484   C     0.79151   0.73339   0.09979   0.00000  Uiso   1.00
C485   C     0.85597   0.78462   0.39752   0.00000  Uiso   1.00
C486   C     0.78910   0.73500   0.04869   0.00000  Uiso   1.00
Cu487  Cu    0.83333   0.74999   0.29822   0.00000  Uiso   1.00
Cu488  Cu    0.83333   0.75000   0.20179   0.00000  Uiso   1.00
H489   H     0.99326   0.75104   0.19402   0.00000  Uiso   1.00
H490   H     0.87415   0.81143   0.37965   0.00000  Uiso   1.00
H491   H     0.87850   0.62448   0.15242   0.00000  Uiso   1.00
H492   H     0.93016   0.58494   0.16136   0.00000  Uiso   1.00
H493   H     0.99422   0.64866   0.17473   0.00000  Uiso   1.00
H494   H     0.95622   0.64925   0.11559   0.00000  Uiso   1.00
H495   H     0.94130   0.68641   0.16208   0.00000  Uiso   1.00
H496   H     0.73673   0.85906   0.28682   0.00000  Uiso   1.00
H497   H     0.72837   0.90884   0.32113   0.00000  Uiso   1.00
H498   H     0.68805   0.84208   0.35460   0.00000  Uiso   1.00
H499   H     0.74989   0.81581   0.36373   0.00000  Uiso   1.00
H500   H     0.67362   0.74974   0.30613   0.00000  Uiso   1.00
H501   H     0.73948   0.86528   0.39738   0.00000  Uiso   1.00
H502   H     0.92944   0.50093   0.24847   0.00000  Uiso   1.00
H503   H     0.83637   0.50122   0.34103   0.00000  Uiso   1.00
H504   H     0.90068   0.80708   0.15984   0.00000  Uiso   1.00
H505   H     0.76589   0.69323   0.33915   0.00000  Uiso   1.00
H506   H     0.73190   0.78406   0.49134   0.00000  Uiso   1.00
H507   H     0.70055   0.77108   0.04449   0.00000  Uiso   1.00
H508   H     0.97536   0.71720   0.49617   0.00000  Uiso   1.00
H509   H     0.97170   0.77169   0.46911   0.00000  Uiso   1.00
H510   H     0.67393   0.72913   0.44340   0.00000  Uiso   1.00
H511   H     0.76162   0.52855   0.27436   0.00000  Uiso   1.00
H512   H     0.80247   0.84564   0.47948   0.00000  Uiso   1.00
H513   H     0.83486   0.87037   0.43150   0.00000  Uiso   1.00
H514   H     0.89797   0.90805   0.49349   0.00000  Uiso   1.00
H515   H     0.83235   0.92223   0.49981   0.00000  Uiso   1.00
H516   H     0.86597   0.88308   0.04114   0.00000  Uiso   1.00
H517   H     0.85433   0.97206   0.18072   0.00000  Uiso   1.00
H518   H     0.76041   0.60943   0.27437   0.00000  Uiso   1.00
H519   H     0.85191   0.89143   0.17841   0.00000  Uiso   1.00
H520   H     0.90995   0.77745   0.04410   0.00000  Uiso   1.00
H521   H     0.79625   0.68678   0.46136   0.00000  Uiso   1.00
H522   H     0.75882   0.71987   0.11553   0.00000  Uiso   1.00
N523   N     0.83333   0.75001   0.12935   0.00000  Uiso   1.00
N524   N     0.83333   0.74999   0.37066   0.00000  Uiso   1.00
O525   O     0.83334   0.68572   0.29072   0.00000  Uiso   1.00
O526   O     0.80244   0.88340   0.33092   0.00000  Uiso   1.00
O527   O     0.92753   0.53072   0.23354   0.00000  Uiso   1.00
O528   O     0.81841   0.97195   0.33880   0.00000  Uiso   1.00
O529   O     0.91512   0.78940   0.13532   0.00000  Uiso   1.00
O530   O     0.78453   0.68115   0.36917   0.00000  Uiso   1.00
O531   O     0.74432   0.72075   0.02054   0.00000  Uiso   1.00
O532   O     0.87666   0.82325   0.47365   0.00000  Uiso   1.00
O533   O     0.83333   0.81427   0.20929   0.00000  Uiso   1.00
O534   O     0.83334   0.68573   0.20928   0.00000  Uiso   1.00
O535   O     0.83333   0.81427   0.29072   0.00000  Uiso   1.00
O536   O     0.75828   0.74999   0.28132   0.00000  Uiso   1.00
O537   O     0.90839   0.75000   0.21868   0.00000  Uiso   1.00
O538   O     0.75828   0.75000   0.19989   0.00000  Uiso   1.00
O539   O     0.90839   0.75000   0.30012   0.00000  Uiso   1.00
O540   O     0.91904   0.62101   0.22261   0.00000  Uiso   1.00
C541   C     0.16686   0.16519   0.75004   0.00000  Uiso   1.00
C542   C     0.18839   0.28676   0.94825   0.00000  Uiso   1.00
C543   C     0.16587   0.25043   0.52710   0.00000  Uiso   1.00
C544   C     0.16688   0.25102   0.97276   0.00000  Uiso   1.00
C545   C     0.06800   0.25010   0.73769   0.00000  Uiso   1.00
C546   C     0.26536   0.25011   0.76234   0.00000  Uiso   1.00
C547   C     0.01284   0.25047   0.73089   0.00000  Uiso   1.00
C548   C     0.32059   0.25013   0.76923   0.00000  Uiso   1.00
C549   C     0.12826   0.04706   0.76494   0.00000  Uiso   1.00
C550   C     0.17893   0.45389   0.71241   0.00000  Uiso   1.00
C551   C     0.12725   0.09292   0.76452   0.00000  Uiso   1.00
C552   C     0.16550   0.33512   0.74996   0.00000  Uiso   1.00
C553   C     0.17670   0.40795   0.71081   0.00000  Uiso   1.00
C554   C     0.16863   0.11730   0.75021   0.00000  Uiso   1.00
C555   C     0.16409   0.38367   0.75074   0.00000  Uiso   1.00
C556   C     0.21155   0.09600   0.73621   0.00000  Uiso   1.00
C557   C     0.15168   0.40623   0.79206   0.00000  Uiso   1.00
C558   C     0.21498   0.04985   0.74091   0.00000  Uiso   1.00
C559   C     0.15812   0.45222   0.79533   0.00000  Uiso   1.00
C560   C     0.17206   0.02509   0.75406   0.00000  Uiso   1.00
C561   C     0.17080   0.47639   0.75462   0.00000  Uiso   1.00
C562   C     0.25112   0.11815   0.67179   0.00000  Uiso   1.00
C563   C     0.20886   0.26565   0.55841   0.00000  Uiso   1.00
C564   C     0.28814   0.15280   0.65509   0.00000  Uiso   1.00
C565   C     0.08167   0.37662   0.82185   0.00000  Uiso   1.00
C566   C     0.06376   0.34816   0.86197   0.00000  Uiso   1.00
C567   C     0.04552   0.25747   0.51047   0.00000  Uiso   1.00
C568   C     0.33024   0.24288   0.97773   0.00000  Uiso   1.00
C569   C     0.17372   0.35736   0.96923   0.00000  Uiso   1.00
C570   C     0.19382   0.39505   0.50307   0.00000  Uiso   1.00
C571   C     0.14580   0.21526   0.94447   0.00000  Uiso   1.00
C572   C     0.20772   0.26775   0.60856   0.00000  Uiso   1.00
C573   C     0.14381   0.21586   0.89391   0.00000  Uiso   1.00
C574   C     0.12484   0.23339   0.59979   0.00000  Uiso   1.00
C575   C     0.18930   0.28462   0.89752   0.00000  Uiso   1.00
C576   C     0.12243   0.23500   0.54869   0.00000  Uiso   1.00
Cu577  Cu    0.16667   0.24999   0.79822   0.00000  Uiso   1.00
Cu578  Cu    0.16667   0.25000   0.70179   0.00000  Uiso   1.00
H579   H     0.32659   0.25104   0.69402   0.00000  Uiso   1.00
H580   H     0.20748   0.31143   0.87965   0.00000  Uiso   1.00
H581   H     0.21183   0.12448   0.65242   0.00000  Uiso   1.00
H582   H     0.26350   0.08494   0.66136   0.00000  Uiso   1.00
H583   H     0.32755   0.14866   0.67473   0.00000  Uiso   1.00
H584   H     0.28955   0.14925   0.61559   0.00000  Uiso   1.00
H585   H     0.27464   0.18641   0.66208   0.00000  Uiso   1.00
H586   H     0.07007   0.35906   0.78682   0.00000  Uiso   1.00
H587   H     0.06170   0.40884   0.82113   0.00000  Uiso   1.00
H588   H     0.02139   0.34208   0.85460   0.00000  Uiso   1.00
H589   H     0.08322   0.31581   0.86373   0.00000  Uiso   1.00
H590   H     0.00695   0.24974   0.80613   0.00000  Uiso   1.00
H591   H     0.07281   0.36528   0.89738   0.00000  Uiso   1.00
H592   H     0.26277   0.00093   0.74847   0.00000  Uiso   1.00
H593   H     0.16970   0.00122   0.84103   0.00000  Uiso   1.00
H594   H     0.23401   0.30708   0.65984   0.00000  Uiso   1.00
H595   H     0.09922   0.19323   0.83915   0.00000  Uiso   1.00
H596   H     0.06523   0.28406   0.99134   0.00000  Uiso   1.00
H597   H     0.03389   0.27108   0.54449   0.00000  Uiso   1.00
H598   H     0.30869   0.21720   0.99617   0.00000  Uiso   1.00
H599   H     0.30504   0.27169   0.96911   0.00000  Uiso   1.00
H600   H     0.00726   0.22913   0.94340   0.00000  Uiso   1.00
H601   H     0.09496   0.02855   0.77436   0.00000  Uiso   1.00
H602   H     0.13580   0.34564   0.97948   0.00000  Uiso   1.00
H603   H     0.16819   0.37037   0.93150   0.00000  Uiso   1.00
H604   H     0.23130   0.40805   0.99349   0.00000  Uiso   1.00
H605   H     0.16568   0.42223   0.99981   0.00000  Uiso   1.00
H606   H     0.19931   0.38308   0.54114   0.00000  Uiso   1.00
H607   H     0.18766   0.47206   0.68072   0.00000  Uiso   1.00
H608   H     0.09374   0.10943   0.77437   0.00000  Uiso   1.00
H609   H     0.18525   0.39143   0.67841   0.00000  Uiso   1.00
H610   H     0.24328   0.27745   0.54410   0.00000  Uiso   1.00
H611   H     0.12959   0.18678   0.96136   0.00000  Uiso   1.00
H612   H     0.09215   0.21987   0.61553   0.00000  Uiso   1.00
N613   N     0.16667   0.25001   0.62935   0.00000  Uiso   1.00
N614   N     0.16667   0.24999   0.87066   0.00000  Uiso   1.00
O615   O     0.16667   0.18572   0.79072   0.00000  Uiso   1.00
O616   O     0.13577   0.38340   0.83092   0.00000  Uiso   1.00
O617   O     0.26086   0.03072   0.73354   0.00000  Uiso   1.00
O618   O     0.15174   0.47195   0.83880   0.00000  Uiso   1.00
O619   O     0.24846   0.28940   0.63532   0.00000  Uiso   1.00
O620   O     0.11787   0.18115   0.86917   0.00000  Uiso   1.00
O621   O     0.07765   0.22075   0.52054   0.00000  Uiso   1.00
O622   O     0.20999   0.32325   0.97365   0.00000  Uiso   1.00
O623   O     0.16666   0.31427   0.70929   0.00000  Uiso   1.00
O624   O     0.16667   0.18573   0.70928   0.00000  Uiso   1.00
O625   O     0.16666   0.31427   0.79072   0.00000  Uiso   1.00
O626   O     0.09161   0.24999   0.78132   0.00000  Uiso   1.00
O627   O     0.24172   0.25000   0.71868   0.00000  Uiso   1.00
O628   O     0.09161   0.25000   0.69989   0.00000  Uiso   1.00
O629   O     0.24172   0.25000   0.80012   0.00000  Uiso   1.00
O630   O     0.25237   0.12101   0.72261   0.00000  Uiso   1.00
C631   C     0.50020   0.16519   0.75004   0.00000  Uiso   1.00
C632   C     0.52172   0.28676   0.94825   0.00000  Uiso   1.00
C633   C     0.49920   0.25043   0.52710   0.00000  Uiso   1.00
C634   C     0.50021   0.25102   0.97276   0.00000  Uiso   1.00
C635   C     0.40134   0.25010   0.73769   0.00000  Uiso   1.00
C636   C     0.59869   0.25011   0.76234   0.00000  Uiso   1.00
C637   C     0.34618   0.25047   0.73089   0.00000  Uiso   1.00
C638   C     0.65393   0.25013   0.76923   0.00000  Uiso   1.00
C639   C     0.46160   0.04706   0.76494   0.00000  Uiso   1.00
C640   C     0.51226   0.45389   0.71241   0.00000  Uiso   1.00
C641   C     0.46059   0.09292   0.76452   0.00000  Uiso   1.00
C642   C     0.49883   0.33512   0.74996   0.00000  Uiso   1.00
C643   C     0.51003   0.40795   0.71081   0.00000  Uiso   1.00
C644   C     0.50196   0.11730   0.75021   0.00000  Uiso   1.00
C645   C     0.49743   0.38367   0.75074   0.00000  Uiso   1.00
C646   C     0.54489   0.09600   0.73621   0.00000  Uiso   1.00
C647   C     0.48501   0.40623   0.79206   0.00000  Uiso   1.00
C648   C     0.54831   0.04985   0.74091   0.00000  Uiso   1.00
C649   C     0.49145   0.45222   0.79533   0.00000  Uiso   1.00
C650   C     0.50539   0.02509   0.75406   0.00000  Uiso   1.00
C651   C     0.50413   0.47639   0.75462   0.00000  Uiso   1.00
C652   C     0.58446   0.11815   0.67179   0.00000  Uiso   1.00
C653   C     0.54220   0.26565   0.55841   0.00000  Uiso   1.00
C654   C     0.62147   0.15280   0.65509   0.00000  Uiso   1.00
C655   C     0.41501   0.37662   0.82185   0.00000  Uiso   1.00
C656   C     0.39709   0.34816   0.86197   0.00000  Uiso   1.00
C657   C     0.37885   0.25747   0.51047   0.00000  Uiso   1.00
C658   C     0.66357   0.24288   0.97773   0.00000  Uiso   1.00
C659   C     0.50705   0.35736   0.96923   0.00000  Uiso   1.00
C660   C     0.52715   0.39505   0.50307   0.00000  Uiso   1.00
C661   C     0.47913   0.21526   0.94447   0.00000  Uiso   1.00
C662   C     0.54105   0.26775   0.60856   0.00000  Uiso   1.00
C663   C     0.47714   0.21586   0.89391   0.00000  Uiso   1.00
C664   C     0.45817   0.23339   0.59979   0.00000  Uiso   1.00
C665   C     0.52264   0.28462   0.89752   0.00000  Uiso   1.00
C666   C     0.45576   0.23500   0.54869   0.00000  Uiso   1.00
Cu667  Cu    0.50000   0.24999   0.79822   0.00000  Uiso   1.00
Cu668  Cu    0.50000   0.25000   0.70179   0.00000  Uiso   1.00
H669   H     0.65993   0.25104   0.69402   0.00000  Uiso   1.00
H670   H     0.54081   0.31143   0.87965   0.00000  Uiso   1.00
H671   H     0.54517   0.12448   0.65242   0.00000  Uiso   1.00
H672   H     0.59683   0.08494   0.66136   0.00000  Uiso   1.00
H673   H     0.66088   0.14866   0.67473   0.00000  Uiso   1.00
H674   H     0.62289   0.14925   0.61559   0.00000  Uiso   1.00
H675   H     0.60797   0.18641   0.66208   0.00000  Uiso   1.00
H676   H     0.40340   0.35906   0.78682   0.00000  Uiso   1.00
H677   H     0.39504   0.40884   0.82113   0.00000  Uiso   1.00
H678   H     0.35472   0.34208   0.85460   0.00000  Uiso   1.00
H679   H     0.41656   0.31581   0.86373   0.00000  Uiso   1.00
H680   H     0.34029   0.24974   0.80613   0.00000  Uiso   1.00
H681   H     0.40615   0.36528   0.89738   0.00000  Uiso   1.00
H682   H     0.59610   0.00093   0.74847   0.00000  Uiso   1.00
H683   H     0.50304   0.00122   0.84103   0.00000  Uiso   1.00
H684   H     0.56735   0.30708   0.65984   0.00000  Uiso   1.00
H685   H     0.43256   0.19323   0.83915   0.00000  Uiso   1.00
H686   H     0.39856   0.28406   0.99134   0.00000  Uiso   1.00
H687   H     0.36722   0.27108   0.54449   0.00000  Uiso   1.00
H688   H     0.64203   0.21720   0.99617   0.00000  Uiso   1.00
H689   H     0.63837   0.27169   0.96911   0.00000  Uiso   1.00
H690   H     0.34060   0.22913   0.94340   0.00000  Uiso   1.00
H691   H     0.42829   0.02855   0.77436   0.00000  Uiso   1.00
H692   H     0.46913   0.34564   0.97948   0.00000  Uiso   1.00
H693   H     0.50153   0.37037   0.93150   0.00000  Uiso   1.00
H694   H     0.56463   0.40805   0.99349   0.00000  Uiso   1.00
H695   H     0.49901   0.42223   0.99981   0.00000  Uiso   1.00
H696   H     0.53264   0.38308   0.54114   0.00000  Uiso   1.00
H697   H     0.52099   0.47206   0.68072   0.00000  Uiso   1.00
H698   H     0.42707   0.10943   0.77437   0.00000  Uiso   1.00
H699   H     0.51858   0.39143   0.67841   0.00000  Uiso   1.00
H700   H     0.57661   0.27745   0.54410   0.00000  Uiso   1.00
H701   H     0.46292   0.18678   0.96136   0.00000  Uiso   1.00
H702   H     0.42548   0.21987   0.61553   0.00000  Uiso   1.00
N703   N     0.50000   0.25001   0.62935   0.00000  Uiso   1.00
N704   N     0.50000   0.24999   0.87066   0.00000  Uiso   1.00
O705   O     0.50000   0.18572   0.79072   0.00000  Uiso   1.00
O706   O     0.46910   0.38340   0.83092   0.00000  Uiso   1.00
O707   O     0.59419   0.03072   0.73354   0.00000  Uiso   1.00
O708   O     0.48507   0.47195   0.83880   0.00000  Uiso   1.00
O709   O     0.58179   0.28940   0.63532   0.00000  Uiso   1.00
O710   O     0.45120   0.18115   0.86917   0.00000  Uiso   1.00
O711   O     0.41099   0.22075   0.52054   0.00000  Uiso   1.00
O712   O     0.54333   0.32325   0.97365   0.00000  Uiso   1.00
O713   O     0.50000   0.31427   0.70929   0.00000  Uiso   1.00
O714   O     0.50000   0.18573   0.70928   0.00000  Uiso   1.00
O715   O     0.50000   0.31427   0.79072   0.00000  Uiso   1.00
O716   O     0.42495   0.24999   0.78132   0.00000  Uiso   1.00
O717   O     0.57505   0.25000   0.71868   0.00000  Uiso   1.00
O718   O     0.42495   0.25000   0.69989   0.00000  Uiso   1.00
O719   O     0.57505   0.25000   0.80012   0.00000  Uiso   1.00
O720   O     0.58571   0.12101   0.72261   0.00000  Uiso   1.00
C721   C     0.83353   0.16519   0.75004   0.00000  Uiso   1.00
C722   C     0.85505   0.28676   0.94825   0.00000  Uiso   1.00
C723   C     0.83253   0.25043   0.52710   0.00000  Uiso   1.00
C724   C     0.83355   0.25102   0.97276   0.00000  Uiso   1.00
C725   C     0.73467   0.25010   0.73769   0.00000  Uiso   1.00
C726   C     0.93203   0.25011   0.76234   0.00000  Uiso   1.00
C727   C     0.67951   0.25047   0.73089   0.00000  Uiso   1.00
C728   C     0.98726   0.25013   0.76923   0.00000  Uiso   1.00
C729   C     0.79493   0.04706   0.76494   0.00000  Uiso   1.00
C730   C     0.84560   0.45389   0.71241   0.00000  Uiso   1.00
C731   C     0.79392   0.09292   0.76452   0.00000  Uiso   1.00
C732   C     0.83216   0.33512   0.74996   0.00000  Uiso   1.00
C733   C     0.84337   0.40795   0.71081   0.00000  Uiso   1.00
C734   C     0.83529   0.11730   0.75021   0.00000  Uiso   1.00
C735   C     0.83076   0.38367   0.75074   0.00000  Uiso   1.00
C736   C     0.87822   0.09600   0.73621   0.00000  Uiso   1.00
C737   C     0.81835   0.40623   0.79206   0.00000  Uiso   1.00
C738   C     0.88164   0.04985   0.74091   0.00000  Uiso   1.00
C739   C     0.82479   0.45222   0.79533   0.00000  Uiso   1.00
C740   C     0.83873   0.02509   0.75406   0.00000  Uiso   1.00
C741   C     0.83746   0.47639   0.75462   0.00000  Uiso   1.00
C742   C     0.91779   0.11815   0.67179   0.00000  Uiso   1.00
C743   C     0.87553   0.26565   0.55841   0.00000  Uiso   1.00
C744   C     0.95481   0.15280   0.65509   0.00000  Uiso   1.00
C745   C     0.74834   0.37662   0.82185   0.00000  Uiso   1.00
C746   C     0.73042   0.34816   0.86197   0.00000  Uiso   1.00
C747   C     0.71218   0.25747   0.51047   0.00000  Uiso   1.00
C748   C     0.99691   0.24288   0.97773   0.00000  Uiso   1.00
C749   C     0.84039   0.35736   0.96923   0.00000  Uiso   1.00
C750   C     0.86049   0.39505   0.50307   0.00000  Uiso   1.00
C751   C     0.81246   0.21526   0.94447   0.00000  Uiso   1.00
C752   C     0.87439   0.26775   0.60856   0.00000  Uiso   1.00
C753   C     0.81048   0.21586   0.89391   0.00000  Uiso   1.00
C754   C     0.79151   0.23339   0.59979   0.00000  Uiso   1.00
C755   C     0.85597   0.28462   0.89752   0.00000  Uiso   1.00
C756   C     0.78910   0.23500   0.54869   0.00000  Uiso   1.00
Cu757  Cu    0.83333   0.24999   0.79822   0.00000  Uiso   1.00
Cu758  Cu    0.83333   0.25000   0.70179   0.00000  Uiso   1.00
H759   H     0.99326   0.25104   0.69402   0.00000  Uiso   1.00
H760   H     0.87415   0.31143   0.87965   0.00000  Uiso   1.00
H761   H     0.87850   0.12448   0.65242   0.00000  Uiso   1.00
H762   H     0.93016   0.08494   0.66136   0.00000  Uiso   1.00
H763   H     0.99422   0.14866   0.67473   0.00000  Uiso   1.00
H764   H     0.95622   0.14925   0.61559   0.00000  Uiso   1.00
H765   H     0.94130   0.18641   0.66208   0.00000  Uiso   1.00
H766   H     0.73673   0.35906   0.78682   0.00000  Uiso   1.00
H767   H     0.72837   0.40884   0.82113   0.00000  Uiso   1.00
H768   H     0.68805   0.34208   0.85460   0.00000  Uiso   1.00
H769   H     0.74989   0.31581   0.86373   0.00000  Uiso   1.00
H770   H     0.67362   0.24974   0.80613   0.00000  Uiso   1.00
H771   H     0.73948   0.36528   0.89738   0.00000  Uiso   1.00
H772   H     0.92944   0.00093   0.74847   0.00000  Uiso   1.00
H773   H     0.83637   0.00122   0.84103   0.00000  Uiso   1.00
H774   H     0.90068   0.30708   0.65984   0.00000  Uiso   1.00
H775   H     0.76589   0.19323   0.83915   0.00000  Uiso   1.00
H776   H     0.73190   0.28406   0.99134   0.00000  Uiso   1.00
H777   H     0.70055   0.27108   0.54449   0.00000  Uiso   1.00
H778   H     0.97536   0.21720   0.99617   0.00000  Uiso   1.00
H779   H     0.97170   0.27169   0.96911   0.00000  Uiso   1.00
H780   H     0.67393   0.22913   0.94340   0.00000  Uiso   1.00
H781   H     0.76162   0.02855   0.77436   0.00000  Uiso   1.00
H782   H     0.80247   0.34564   0.97948   0.00000  Uiso   1.00
H783   H     0.83486   0.37037   0.93150   0.00000  Uiso   1.00
H784   H     0.89797   0.40805   0.99349   0.00000  Uiso   1.00
H785   H     0.83235   0.42223   0.99981   0.00000  Uiso   1.00
H786   H     0.86597   0.38308   0.54114   0.00000  Uiso   1.00
H787   H     0.85433   0.47206   0.68072   0.00000  Uiso   1.00
H788   H     0.76041   0.10943   0.77437   0.00000  Uiso   1.00
H789   H     0.85191   0.39143   0.67841   0.00000  Uiso   1.00
H790   H     0.90995   0.27745   0.54410   0.00000  Uiso   1.00
H791   H     0.79625   0.18678   0.96136   0.00000  Uiso   1.00
H792   H     0.75882   0.21987   0.61553   0.00000  Uiso   1.00
N793   N     0.83333   0.25001   0.62935   0.00000  Uiso   1.00
N794   N     0.83333   0.24999   0.87066   0.00000  Uiso   1.00
O795   O     0.83334   0.18572   0.79072   0.00000  Uiso   1.00
O796   O     0.80244   0.38340   0.83092   0.00000  Uiso   1.00
O797   O     0.92753   0.03072   0.73354   0.00000  Uiso   1.00
O798   O     0.81841   0.47195   0.83880   0.00000  Uiso   1.00
O799   O     0.91512   0.28940   0.63532   0.00000  Uiso   1.00
O800   O     0.78453   0.18115   0.86917   0.00000  Uiso   1.00
O801   O     0.74432   0.22075   0.52054   0.00000  Uiso   1.00
O802   O     0.87666   0.32325   0.97365   0.00000  Uiso   1.00
O803   O     0.83333   0.31427   0.70929   0.00000  Uiso   1.00
O804   O     0.83334   0.18573   0.70928   0.00000  Uiso   1.00
O805   O     0.83333   0.31427   0.79072   0.00000  Uiso   1.00
O806   O     0.75828   0.24999   0.78132   0.00000  Uiso   1.00
O807   O     0.90839   0.25000   0.71868   0.00000  Uiso   1.00
O808   O     0.75828   0.25000   0.69989   0.00000  Uiso   1.00
O809   O     0.90839   0.25000   0.80012   0.00000  Uiso   1.00
O810   O     0.91904   0.12101   0.72261   0.00000  Uiso   1.00
C811   C     0.16686   0.66519   0.75004   0.00000  Uiso   1.00
C812   C     0.18839   0.78676   0.94825   0.00000  Uiso   1.00
C813   C     0.16587   0.75043   0.52710   0.00000  Uiso   1.00
C814   C     0.16688   0.75102   0.97276   0.00000  Uiso   1.00
C815   C     0.06800   0.75010   0.73769   0.00000  Uiso   1.00
C816   C     0.26536   0.75011   0.76234   0.00000  Uiso   1.00
C817   C     0.01284   0.75047   0.73089   0.00000  Uiso   1.00
C818   C     0.32059   0.75013   0.76923   0.00000  Uiso   1.00
C819   C     0.12826   0.54706   0.76494   0.00000  Uiso   1.00
C820   C     0.17893   0.95389   0.71241   0.00000  Uiso   1.00
C821   C     0.12725   0.59292   0.76452   0.00000  Uiso   1.00
C822   C     0.16550   0.83512   0.74996   0.00000  Uiso   1.00
C823   C     0.17670   0.90795   0.71081   0.00000  Uiso   1.00
C824   C     0.16863   0.61730   0.75021   0.00000  Uiso   1.00
C825   C     0.16409   0.88367   0.75074   0.00000  Uiso   1.00
C826   C     0.21155   0.59600   0.73621   0.00000  Uiso   1.00
C827   C     0.15168   0.90623   0.79206   0.00000  Uiso   1.00
C828   C     0.21498   0.54985   0.74091   0.00000  Uiso   1.00
C829   C     0.15812   0.95222   0.79533   0.00000  Uiso   1.00
C830   C     0.17206   0.52509   0.75406   0.00000  Uiso   1.00
C831   C     0.17080   0.97639   0.75462   0.00000  Uiso   1.00
C832   C     0.25112   0.61815   0.67179   0.00000  Uiso   1.00
C833   C     0.20886   0.76565   0.55841   0.00000  Uiso   1.00
C834   C     0.28814   0.65280   0.65509   0.00000  Uiso   1.00
C835   C     0.08167   0.87662   0.82185   0.00000  Uiso   1.00
C836   C     0.06376   0.84816   0.86197   0.00000  Uiso   1.00
C837   C     0.04552   0.75747   0.51047   0.00000  Uiso   1.00
C838   C     0.33024   0.74288   0.97773   0.00000  Uiso   1.00
C839   C     0.17372   0.85736   0.96923   0.00000  Uiso   1.00
C840   C     0.19382   0.89505   0.50307   0.00000  Uiso   1.00
C841   C     0.14580   0.71526   0.94447   0.00000  Uiso   1.00
C842   C     0.20772   0.76775   0.60856   0.00000  Uiso   1.00
C843   C     0.14381   0.71586   0.89391   0.00000  Uiso   1.00
C844   C     0.12484   0.73339   0.59979   0.00000  Uiso   1.00
C845   C     0.18930   0.78462   0.89752   0.00000  Uiso   1.00
C846   C     0.12243   0.73500   0.54869   0.00000  Uiso   1.00
Cu847  Cu    0.16667   0.74999   0.79822   0.00000  Uiso   1.00
Cu848  Cu    0.16667   0.75000   0.70179   0.00000  Uiso   1.00
H849   H     0.32659   0.75104   0.69402   0.00000  Uiso   1.00
H850   H     0.20748   0.81143   0.87965   0.00000  Uiso   1.00
H851   H     0.21183   0.62448   0.65242   0.00000  Uiso   1.00
H852   H     0.26350   0.58494   0.66136   0.00000  Uiso   1.00
H853   H     0.32755   0.64866   0.67473   0.00000  Uiso   1.00
H854   H     0.28955   0.64925   0.61559   0.00000  Uiso   1.00
H855   H     0.27464   0.68641   0.66208   0.00000  Uiso   1.00
H856   H     0.07007   0.85906   0.78682   0.00000  Uiso   1.00
H857   H     0.06170   0.90884   0.82113   0.00000  Uiso   1.00
H858   H     0.02139   0.84208   0.85460   0.00000  Uiso   1.00
H859   H     0.08322   0.81581   0.86373   0.00000  Uiso   1.00
H860   H     0.00695   0.74974   0.80613   0.00000  Uiso   1.00
H861   H     0.07281   0.86528   0.89738   0.00000  Uiso   1.00
H862   H     0.26277   0.50093   0.74847   0.00000  Uiso   1.00
H863   H     0.16970   0.50122   0.84103   0.00000  Uiso   1.00
H864   H     0.23401   0.80708   0.65984   0.00000  Uiso   1.00
H865   H     0.09922   0.69323   0.83915   0.00000  Uiso   1.00
H866   H     0.06523   0.78406   0.99134   0.00000  Uiso   1.00
H867   H     0.03389   0.77108   0.54449   0.00000  Uiso   1.00
H868   H     0.30869   0.71720   0.99617   0.00000  Uiso   1.00
H869   H     0.30504   0.77169   0.96911   0.00000  Uiso   1.00
H870   H     0.00726   0.72913   0.94340   0.00000  Uiso   1.00
H871   H     0.09496   0.52855   0.77436   0.00000  Uiso   1.00
H872   H     0.13580   0.84564   0.97948   0.00000  Uiso   1.00
H873   H     0.16819   0.87037   0.93150   0.00000  Uiso   1.00
H874   H     0.23130   0.90805   0.99349   0.00000  Uiso   1.00
H875   H     0.16568   0.92223   0.99981   0.00000  Uiso   1.00
H876   H     0.19931   0.88308   0.54114   0.00000  Uiso   1.00
H877   H     0.18766   0.97206   0.68072   0.00000  Uiso   1.00
H878   H     0.09374   0.60943   0.77437   0.00000  Uiso   1.00
H879   H     0.18525   0.89143   0.67841   0.00000  Uiso   1.00
H880   H     0.24328   0.77745   0.54410   0.00000  Uiso   1.00
H881   H     0.12959   0.68678   0.96136   0.00000  Uiso   1.00
H882   H     0.09215   0.71987   0.61553   0.00000  Uiso   1.00
N883   N     0.16667   0.75001   0.62935   0.00000  Uiso   1.00
N884   N     0.16667   0.74999   0.87066   0.00000  Uiso   1.00
O885   O     0.16667   0.68572   0.79072   0.00000  Uiso   1.00
O886   O     0.13577   0.88340   0.83092   0.00000  Uiso   1.00
O887   O     0.26086   0.53072   0.73354   0.00000  Uiso   1.00
O888   O     0.15174   0.97195   0.83880   0.00000  Uiso   1.00
O889   O     0.24846   0.78940   0.63532   0.00000  Uiso   1.00
O890   O     0.11787   0.68115   0.86917   0.00000  Uiso   1.00
O891   O     0.07765   0.72075   0.52054   0.00000  Uiso   1.00
O892   O     0.20999   0.82325   0.97365   0.00000  Uiso   1.00
O893   O     0.16666   0.81427   0.70929   0.00000  Uiso   1.00
O894   O     0.16667   0.68573   0.70928   0.00000  Uiso   1.00
O895   O     0.16666   0.81427   0.79072   0.00000  Uiso   1.00
O896   O     0.09161   0.74999   0.78132   0.00000  Uiso   1.00
O897   O     0.24172   0.75000   0.71868   0.00000  Uiso   1.00
O898   O     0.09161   0.75000   0.69989   0.00000  Uiso   1.00
O899   O     0.24172   0.75000   0.80012   0.00000  Uiso   1.00
O900   O     0.25237   0.62101   0.72261   0.00000  Uiso   1.00
C901   C     0.50020   0.66519   0.75004   0.00000  Uiso   1.00
C902   C     0.52172   0.78676   0.94825   0.00000  Uiso   1.00
C903   C     0.49920   0.75043   0.52710   0.00000  Uiso   1.00
C904   C     0.50021   0.75102   0.97276   0.00000  Uiso   1.00
C905   C     0.40134   0.75010   0.73769   0.00000  Uiso   1.00
C906   C     0.59869   0.75011   0.76234   0.00000  Uiso   1.00
C907   C     0.34618   0.75047   0.73089   0.00000  Uiso   1.00
C908   C     0.65393   0.75013   0.76923   0.00000  Uiso   1.00
C909   C     0.46160   0.54706   0.76494   0.00000  Uiso   1.00
C910   C     0.51226   0.95389   0.71241   0.00000  Uiso   1.00
C911   C     0.46059   0.59292   0.76452   0.00000  Uiso   1.00
C912   C     0.49883   0.83512   0.74996   0.00000  Uiso   1.00
C913   C     0.51003   0.90795   0.71081   0.00000  Uiso   1.00
C914   C     0.50196   0.61730   0.75021   0.00000  Uiso   1.00
C915   C     0.49743   0.88367   0.75074   0.00000  Uiso   1.00
C916   C     0.54489   0.59600   0.73621   0.00000  Uiso   1.00
C917   C     0.48501   0.90623   0.79206   0.00000  Uiso   1.00
C918   C     0.54831   0.54985   0.74091   0.00000  Uiso   1.00
C919   C     0.49145   0.95222   0.79533   0.00000  Uiso   1.00
C920   C     0.50539   0.52509   0.75406   0.00000  Uiso   1.00
C921   C     0.50413   0.97639   0.75462   0.00000  Uiso   1.00
C922   C     0.58446   0.61815   0.67179   0.00000  Uiso   1.00
C923   C     0.54220   0.76565   0.55841   0.00000  Uiso   1.00
C924   C     0.62147   0.65280   0.65509   0.00000  Uiso   1.00
C925   C     0.41501   0.87662   0.82185   0.00000  Uiso   1.00
C926   C     0.39709   0.84816   0.86197   0.00000  Uiso   1.00
C927   C     0.37885   0.75747   0.51047   0.00000  Uiso   1.00
C928   C     0.66357   0.74288   0.97773   0.00000  Uiso   1.00
C929   C     0.50705   0.85736   0.96923   0.00000  Uiso   1.00
C930   C     0.52715   0.89505   0.50307   0.00000  Uiso   1.00
C931   C     0.47913   0.71526   0.94447   0.00000  Uiso   1.00
C932   C     0.54105   0.76775   0.60856   0.00000  Uiso   1.00
C933   C     0.47714   0.71586   0.89391   0.00000  Uiso   1.00
C934   C     0.45817   0.73339   0.59979   0.00000  Uiso   1.00
C935   C     0.52264   0.78462   0.89752   0.00000  Uiso   1.00
C936   C     0.45576   0.73500   0.54869   0.00000  Uiso   1.00
Cu937  Cu    0.50000   0.74999   0.79822   0.00000  Uiso   1.00
Cu938  Cu    0.50000   0.75000   0.70179   0.00000  Uiso   1.00
H939   H     0.65993   0.75104   0.69402   0.00000  Uiso   1.00
H940   H     0.54081   0.81143   0.87965   0.00000  Uiso   1.00
H941   H     0.54517   0.62448   0.65242   0.00000  Uiso   1.00
H942   H     0.59683   0.58494   0.66136   0.00000  Uiso   1.00
H943   H     0.66088   0.64866   0.67473   0.00000  Uiso   1.00
H944   H     0.62289   0.64925   0.61559   0.00000  Uiso   1.00
H945   H     0.60797   0.68641   0.66208   0.00000  Uiso   1.00
H946   H     0.40340   0.85906   0.78682   0.00000  Uiso   1.00
H947   H     0.39504   0.90884   0.82113   0.00000  Uiso   1.00
H948   H     0.35472   0.84208   0.85460   0.00000  Uiso   1.00
H949   H     0.41656   0.81581   0.86373   0.00000  Uiso   1.00
H950   H     0.34029   0.74974   0.80613   0.00000  Uiso   1.00
H951   H     0.40615   0.86528   0.89738   0.00000  Uiso   1.00
H952   H     0.59610   0.50093   0.74847   0.00000  Uiso   1.00
H953   H     0.50304   0.50122   0.84103   0.00000  Uiso   1.00
H954   H     0.56735   0.80708   0.65984   0.00000  Uiso   1.00
H955   H     0.43256   0.69323   0.83915   0.00000  Uiso   1.00
H956   H     0.39856   0.78406   0.99134   0.00000  Uiso   1.00
H957   H     0.36722   0.77108   0.54449   0.00000  Uiso   1.00
H958   H     0.64203   0.71720   0.99617   0.00000  Uiso   1.00
H959   H     0.63837   0.77169   0.96911   0.00000  Uiso   1.00
H960   H     0.34060   0.72913   0.94340   0.00000  Uiso   1.00
H961   H     0.42829   0.52855   0.77436   0.00000  Uiso   1.00
H962   H     0.46913   0.84564   0.97948   0.00000  Uiso   1.00
H963   H     0.50153   0.87037   0.93150   0.00000  Uiso   1.00
H964   H     0.56463   0.90805   0.99349   0.00000  Uiso   1.00
H965   H     0.49901   0.92223   0.99981   0.00000  Uiso   1.00
H966   H     0.53264   0.88308   0.54114   0.00000  Uiso   1.00
H967   H     0.52099   0.97206   0.68072   0.00000  Uiso   1.00
H968   H     0.42707   0.60943   0.77437   0.00000  Uiso   1.00
H969   H     0.51858   0.89143   0.67841   0.00000  Uiso   1.00
H970   H     0.57661   0.77745   0.54410   0.00000  Uiso   1.00
H971   H     0.46292   0.68678   0.96136   0.00000  Uiso   1.00
H972   H     0.42548   0.71987   0.61553   0.00000  Uiso   1.00
N973   N     0.50000   0.75001   0.62935   0.00000  Uiso   1.00
N974   N     0.50000   0.74999   0.87066   0.00000  Uiso   1.00
O975   O     0.50000   0.68572   0.79072   0.00000  Uiso   1.00
O976   O     0.46910   0.88340   0.83092   0.00000  Uiso   1.00
O977   O     0.59419   0.53072   0.73354   0.00000  Uiso   1.00
O978   O     0.48507   0.97195   0.83880   0.00000  Uiso   1.00
O979   O     0.58179   0.78940   0.63532   0.00000  Uiso   1.00
O980   O     0.45120   0.68115   0.86917   0.00000  Uiso   1.00
O981   O     0.41099   0.72075   0.52054   0.00000  Uiso   1.00
O982   O     0.54333   0.82325   0.97365   0.00000  Uiso   1.00
O983   O     0.50000   0.81427   0.70929   0.00000  Uiso   1.00
O984   O     0.50000   0.68573   0.70928   0.00000  Uiso   1.00
O985   O     0.50000   0.81427   0.79072   0.00000  Uiso   1.00
O986   O     0.42495   0.74999   0.78132   0.00000  Uiso   1.00
O987   O     0.57505   0.75000   0.71868   0.00000  Uiso   1.00
O988   O     0.42495   0.75000   0.69989   0.00000  Uiso   1.00
O989   O     0.57505   0.75000   0.80012   0.00000  Uiso   1.00
O990   O     0.58571   0.62101   0.72261   0.00000  Uiso   1.00
C991   C     0.83353   0.66519   0.75004   0.00000  Uiso   1.00
C992   C     0.85505   0.78676   0.94825   0.00000  Uiso   1.00
C993   C     0.83253   0.75043   0.52710   0.00000  Uiso   1.00
C994   C     0.83355   0.75102   0.97276   0.00000  Uiso   1.00
C995   C     0.73467   0.75010   0.73769   0.00000  Uiso   1.00
C996   C     0.93203   0.75011   0.76234   0.00000  Uiso   1.00
C997   C     0.67951   0.75047   0.73089   0.00000  Uiso   1.00
C998   C     0.98726   0.75013   0.76923   0.00000  Uiso   1.00
C999   C     0.79493   0.54706   0.76494   0.00000  Uiso   1.00
C1000  C     0.84560   0.95389   0.71241   0.00000  Uiso   1.00
C1001  C     0.79392   0.59292   0.76452   0.00000  Uiso   1.00
C1002  C     0.83216   0.83512   0.74996   0.00000  Uiso   1.00
C1003  C     0.84337   0.90795   0.71081   0.00000  Uiso   1.00
C1004  C     0.83529   0.61730   0.75021   0.00000  Uiso   1.00
C1005  C     0.83076   0.88367   0.75074   0.00000  Uiso   1.00
C1006  C     0.87822   0.59600   0.73621   0.00000  Uiso   1.00
C1007  C     0.81835   0.90623   0.79206   0.00000  Uiso   1.00
C1008  C     0.88164   0.54985   0.74091   0.00000  Uiso   1.00
C1009  C     0.82479   0.95222   0.79533   0.00000  Uiso   1.00
C1010  C     0.83873   0.52509   0.75406   0.00000  Uiso   1.00
C1011  C     0.83746   0.97639   0.75462   0.00000  Uiso   1.00
C1012  C     0.91779   0.61815   0.67179   0.00000  Uiso   1.00
C1013  C     0.87553   0.76565   0.55841   0.00000  Uiso   1.00
C1014  C     0.95481   0.65280   0.65509   0.00000  Uiso   1.00
C1015  C     0.74834   0.87662   0.82185   0.00000  Uiso   1.00
C1016  C     0.73042   0.84816   0.86197   0.00000  Uiso   1.00
C1017  C     0.71218   0.75747   0.51047   0.00000  Uiso   1.00
C1018  C     0.99691   0.74288   0.97773   0.00000  Uiso   1.00
C1019  C     0.84039   0.85736   0.96923   0.00000  Uiso   1.00
C1020  C     0.86049   0.89505   0.50307   0.00000  Uiso   1.00
C1021  C     0.81246   0.71526   0.94447   0.00000  Uiso   1.00
C1022  C     0.87439   0.76775   0.60856   0.00000  Uiso   1.00
C1023  C     0.81048   0.71586   0.89391   0.00000  Uiso   1.00
C1024  C     0.79151   0.73339   0.59979   0.00000  Uiso   1.00
C1025  C     0.85597   0.78462   0.89752   0.00000  Uiso   1.00
C1026  C     0.78910   0.73500   0.54869   0.00000  Uiso   1.00
Cu1027 Cu    0.83333   0.74999   0.79822   0.00000  Uiso   1.00
Cu1028 Cu    0.83333   0.75000   0.70179   0.00000  Uiso   1.00
H1029  H     0.99326   0.75104   0.69402   0.00000  Uiso   1.00
H1030  H     0.87415   0.81143   0.87965   0.00000  Uiso   1.00
H1031  H     0.87850   0.62448   0.65242   0.00000  Uiso   1.00
H1032  H     0.93016   0.58494   0.66136   0.00000  Uiso   1.00
H1033  H     0.99422   0.64866   0.67473   0.00000  Uiso   1.00
H1034  H     0.95622   0.64925   0.61559   0.00000  Uiso   1.00
H1035  H     0.94130   0.68641   0.66208   0.00000  Uiso   1.00
H1036  H     0.73673   0.85906   0.78682   0.00000  Uiso   1.00
H1037  H     0.72837   0.90884   0.82113   0.00000  Uiso   1.00
H1038  H     0.68805   0.84208   0.85460   0.00000  Uiso   1.00
H1039  H     0.74989   0.81581   0.86373   0.00000  Uiso   1.00
H1040  H     0.67362   0.74974   0.80613   0.00000  Uiso   1.00
H1041  H     0.73948   0.86528   0.89738   0.00000  Uiso   1.00
H1042  H     0.92944   0.50093   0.74847   0.00000  Uiso   1.00
H1043  H     0.83637   0.50122   0.84103   0.00000  Uiso   1.00
H1044  H     0.90068   0.80708   0.65984   0.00000  Uiso   1.00
H1045  H     0.76589   0.69323   0.83915   0.00000  Uiso   1.00
H1046  H     0.73190   0.78406   0.99134   0.00000  Uiso   1.00
H1047  H     0.70055   0.77108   0.54449   0.00000  Uiso   1.00
H1048  H     0.97536   0.71720   0.99617   0.00000  Uiso   1.00
H1049  H     0.97170   0.77169   0.96911   0.00000  Uiso   1.00
H1050  H     0.67393   0.72913   0.94340   0.00000  Uiso   1.00
H1051  H     0.76162   0.52855   0.77436   0.00000  Uiso   1.00
H1052  H     0.80247   0.84564   0.97948   0.00000  Uiso   1.00
H1053  H     0.83486   0.87037   0.93150   0.00000  Uiso   1.00
H1054  H     0.89797   0.90805   0.99349   0.00000  Uiso   1.00
H1055  H     0.83235   0.92223   0.99981   0.00000  Uiso   1.00
H1056  H     0.86597   0.88308   0.54114   0.00000  Uiso   1.00
H1057  H     0.85433   0.97206   0.68072   0.00000  Uiso   1.00
H1058  H     0.76041   0.60943   0.77437   0.00000  Uiso   1.00
H1059  H     0.85191   0.89143   0.67841   0.00000  Uiso   1.00
H1060  H     0.90995   0.77745   0.54410   0.00000  Uiso   1.00
H1061  H     0.79625   0.68678   0.96136   0.00000  Uiso   1.00
H1062  H     0.75882   0.71987   0.61553   0.00000  Uiso   1.00
N1063  N     0.83333   0.75001   0.62935   0.00000  Uiso   1.00
N1064  N     0.83333   0.74999   0.87066   0.00000  Uiso   1.00
O1065  O     0.83334   0.68572   0.79072   0.00000  Uiso   1.00
O1066  O     0.80244   0.88340   0.83092   0.00000  Uiso   1.00
O1067  O     0.92753   0.53072   0.73354   0.00000  Uiso   1.00
O1068  O     0.81841   0.97195   0.83880   0.00000  Uiso   1.00
O1069  O     0.91512   0.78940   0.63532   0.00000  Uiso   1.00
O1070  O     0.78453   0.68115   0.86917   0.00000  Uiso   1.00
O1071  O     0.74432   0.72075   0.52054   0.00000  Uiso   1.00
O1072  O     0.87666   0.82325   0.97365   0.00000  Uiso   1.00
O1073  O     0.83333   0.81427   0.70929   0.00000  Uiso   1.00
O1074  O     0.83334   0.68573   0.70928   0.00000  Uiso   1.00
O1075  O     0.83333   0.81427   0.79072   0.00000  Uiso   1.00
O1076  O     0.75828   0.74999   0.78132   0.00000  Uiso   1.00
O1077  O     0.90839   0.75000   0.71868   0.00000  Uiso   1.00
O1078  O     0.75828   0.75000   0.69989   0.00000  Uiso   1.00
O1079  O     0.90839   0.75000   0.80012   0.00000  Uiso   1.00
O1080  O     0.91904   0.62101   0.72261   0.00000  Uiso   1.00
loop_
_geom_bond_atom_site_label_1
_geom_bond_atom_site_label_2
_geom_bond_distance
_geom_bond_site_symmetry_2
_ccdc_geom_bond_type
C1     O84     1.291   .     A
C1     O75     1.294   .     A
C1     C14     1.448   .     S
C2     C35     1.417   .     A
C2     C4      1.419   .     A
C2     O82     1.381   .     S
C3     C23     1.399   .     A
C3     C36     1.420   .     A
C3     C544    1.516   1_554 S
C4     C31     1.398   .     A
C4     C543    1.516   .     S
C5     O88     1.287   .     A
C5     C7      1.429   .     S
C5     O86     1.289   .     A
C6     C8      1.431   .     S
C6     O87     1.290   .     A
C6     O89     1.287   .     A
C7     C188    1.331   1_455 S
C7     H219    1.086   1_455 S
C8     C97     1.331   .     S
C8     H140    1.088   .     S
C9     H61     1.084   .     S
C9     C20     1.403   .     A
C9     C11     1.386   .     A
C10    H67     1.084   .     S
C10    C21     1.402   .     A
C10    C13     1.388   .     A
C11    C14     1.394   .     A
C11    H68     1.084   .     S
C12    O85     1.293   .     A
C12    O83     1.302   .     A
C12    C15     1.468   .     S
C13    C15     1.400   .     A
C13    H69     1.083   .     S
C14    C16     1.405   .     A
C15    C17     1.416   .     A
C16    O90     1.385   .     S
C16    C18     1.404   .     A
C17    O76     1.384   .     S
C17    C19     1.397   .     A
C18    C20     1.420   .     A
C18    O77     1.382   .     S
C19    C21     1.417   .     A
C19    O78     1.382   .     S
C20    C291    1.471   1_545 S
C21    C290    1.471   .     S
C22    C24     1.521   .     S
C22    H41     1.116   .     S
C22    O90     1.414   .     S
C22    H42     1.112   .     S
C23    H70     1.082   .     S
C23    C32     1.402   .     A
C24    H45     1.109   .     S
C24    H44     1.110   .     S
C24    H43     1.111   .     S
C25    H47     1.114   .     S
C25    C26     1.522   .     S
C25    O76     1.414   .     S
C25    H46     1.115   .     S
C26    H48     1.111   .     S
C26    H49     1.110   .     S
C26    H51     1.110   .     S
C27    O81     1.412   .     S
C27    H57     1.115   .     S
C27    C748    1.521   1_454 S
C27    H596    1.115   1_554 S
C28    H59     1.110   .     S
C28    H58     1.111   .     S
C28    C657    1.521   .     S
C28    H150    1.111   .     S
C29    H63     1.113   .     S
C29    H62     1.116   .     S
C29    O82     1.411   .     S
C29    C570    1.520   .     S
C30    H66     1.111   .     S
C30    C569    1.520   1_554 S
C30    H604    1.111   1_554 S
C30    H605    1.110   1_554 S
C31    C33     1.402   .     A
C31    H71     1.083   .     S
C32    N73     1.380   .     A
C32    O79     1.371   .     S
C33    O80     1.373   .     S
C33    N74     1.380   .     A
C34    N73     1.366   .     A
C34    C36     1.416   .     A
C34    H72     1.081   .     S
C35    N74     1.366   .     A
C35    H40     1.081   .     S
C36    O81     1.382   .     S
Cu37   N74     2.017   .     S
Cu37   O85     1.952   .     S
Cu37   O75     1.953   .     S
Cu37   O86     1.956   .     S
Cu37   Cu38    2.684   .     S
Cu37   O89     1.955   .     S
Cu38   O83     1.953   .     S
Cu38   O88     1.955   .     S
Cu38   O84     1.952   .     S
Cu38   O87     1.956   .     S
Cu38   N73     2.017   .     S
H39    C97     1.086   .     S
H50    C188    1.088   1_455 S
H52    O77     0.989   .     S
H53    O348    0.989   1_545 S
H54    O79     0.986   .     S
H55    O80     0.984   .     S
H56    C567    1.115   .     S
H60    C208    1.111   1_455 S
H64    C570    1.111   .     S
H65    C570    1.110   .     S
O78    H323    0.989   .     S
C91    O174    1.291   .     A
C91    O165    1.294   .     A
C91    C104    1.448   .     S
C92    C125    1.417   .     A
C92    C94     1.419   .     A
C92    O172    1.381   .     S
C93    C113    1.399   .     A
C93    C126    1.420   .     A
C93    C634    1.516   1_554 S
C94    C121    1.398   .     A
C94    C633    1.516   .     S
C95    O178    1.287   .     A
C95    C97     1.429   .     S
C95    O176    1.289   .     A
C96    C98     1.431   .     S
C96    O177    1.290   .     A
C96    O179    1.287   .     A
C98    C187    1.331   .     S
C98    H230    1.088   .     S
C99    H151    1.084   .     S
C99    C110    1.403   .     A
C99    C101    1.386   .     A
C100   H157    1.084   .     S
C100   C111    1.402   .     A
C100   C103    1.388   .     A
C101   C104    1.394   .     A
C101   H158    1.084   .     S
C102   O175    1.293   .     A
C102   O173    1.302   .     A
C102   C105    1.468   .     S
C103   C105    1.400   .     A
C103   H159    1.083   .     S
C104   C106    1.405   .     A
C105   C107    1.416   .     A
C106   O180    1.385   .     S
C106   C108    1.404   .     A
C107   O166    1.384   .     S
C107   C109    1.397   .     A
C108   C110    1.420   .     A
C108   O167    1.382   .     S
C109   C111    1.417   .     A
C109   O168    1.382   .     S
C110   C381    1.471   1_545 S
C111   C380    1.471   .     S
C112   C114    1.521   .     S
C112   H131    1.116   .     S
C112   O180    1.414   .     S
C112   H132    1.112   .     S
C113   H160    1.082   .     S
C113   C122    1.402   .     A
C114   H135    1.109   .     S
C114   H134    1.110   .     S
C114   H133    1.111   .     S
C115   H137    1.114   .     S
C115   C116    1.522   .     S
C115   O166    1.414   .     S
C115   H136    1.115   .     S
C116   H138    1.111   .     S
C116   H139    1.110   .     S
C116   H141    1.110   .     S
C117   O171    1.412   .     S
C117   H147    1.115   .     S
C117   C568    1.521   1_554 S
C117   H686    1.115   1_554 S
C118   H149    1.110   .     S
C118   H148    1.111   .     S
C118   C747    1.521   .     S
C118   H240    1.111   .     S
C119   H153    1.113   .     S
C119   H152    1.116   .     S
C119   O172    1.411   .     S
C119   C660    1.520   .     S
C120   H156    1.111   .     S
C120   C659    1.520   1_554 S
C120   H694    1.111   1_554 S
C120   H695    1.110   1_554 S
C121   C123    1.402   .     A
C121   H161    1.083   .     S
C122   N163    1.380   .     A
C122   O169    1.371   .     S
C123   O170    1.373   .     S
C123   N164    1.380   .     A
C124   N163    1.366   .     A
C124   C126    1.416   .     A
C124   H162    1.081   .     S
C125   N164    1.366   .     A
C125   H130    1.081   .     S
C126   O171    1.382   .     S
Cu127  N164    2.017   .     S
Cu127  O175    1.952   .     S
Cu127  O165    1.953   .     S
Cu127  O176    1.956   .     S
Cu127  Cu128   2.684   .     S
Cu127  O179    1.955   .     S
Cu128  O173    1.953   .     S
Cu128  O178    1.955   .     S
Cu128  O174    1.952   .     S
Cu128  O177    1.956   .     S
Cu128  N163    2.017   .     S
H129   C187    1.086   .     S
H142   O167    0.989   .     S
H143   O438    0.989   1_545 S
H144   O169    0.986   .     S
H145   O170    0.984   .     S
H146   C657    1.115   .     S
H154   C660    1.111   .     S
H155   C660    1.110   .     S
O168   H413    0.989   .     S
C181   O264    1.291   .     A
C181   O255    1.294   .     A
C181   C194    1.448   .     S
C182   C215    1.417   .     A
C182   C184    1.419   .     A
C182   O262    1.381   .     S
C183   C203    1.399   .     A
C183   C216    1.420   .     A
C183   C724    1.516   1_554 S
C184   C211    1.398   .     A
C184   C723    1.516   .     S
C185   O268    1.287   .     A
C185   C187    1.429   .     S
C185   O266    1.289   .     A
C186   C188    1.431   .     S
C186   O267    1.290   .     A
C186   O269    1.287   .     A
C188   C7      1.331   1_655 S
C188   H50     1.088   1_655 S
C189   H241    1.084   .     S
C189   C200    1.403   .     A
C189   C191    1.386   .     A
C190   H247    1.084   .     S
C190   C201    1.402   .     A
C190   C193    1.388   .     A
C191   C194    1.394   .     A
C191   H248    1.084   .     S
C192   O265    1.293   .     A
C192   O263    1.302   .     A
C192   C195    1.468   .     S
C193   C195    1.400   .     A
C193   H249    1.083   .     S
C194   C196    1.405   .     A
C195   C197    1.416   .     A
C196   O270    1.385   .     S
C196   C198    1.404   .     A
C197   O256    1.384   .     S
C197   C199    1.397   .     A
C198   C200    1.420   .     A
C198   O257    1.382   .     S
C199   C201    1.417   .     A
C199   O258    1.382   .     S
C200   C471    1.471   1_545 S
C201   C470    1.471   .     S
C202   C204    1.521   .     S
C202   H221    1.116   .     S
C202   O270    1.414   .     S
C202   H222    1.112   .     S
C203   H250    1.082   .     S
C203   C212    1.402   .     A
C204   H225    1.109   .     S
C204   H224    1.110   .     S
C204   H223    1.111   .     S
C205   H227    1.114   .     S
C205   C206    1.522   .     S
C205   O256    1.414   .     S
C205   H226    1.115   .     S
C206   H228    1.111   .     S
C206   H229    1.110   .     S
C206   H231    1.110   .     S
C207   O261    1.412   .     S
C207   H237    1.115   .     S
C207   C658    1.521   1_554 S
C207   H776    1.115   1_554 S
C208   H239    1.110   .     S
C208   H238    1.111   .     S
C208   C567    1.521   1_655 S
C208   H60     1.111   1_655 S
C209   H243    1.113   .     S
C209   H242    1.116   .     S
C209   O262    1.411   .     S
C209   C750    1.520   .     S
C210   H246    1.111   .     S
C210   C749    1.520   1_554 S
C210   H784    1.111   1_554 S
C210   H785    1.110   1_554 S
C211   C213    1.402   .     A
C211   H251    1.083   .     S
C212   N253    1.380   .     A
C212   O259    1.371   .     S
C213   O260    1.373   .     S
C213   N254    1.380   .     A
C214   N253    1.366   .     A
C214   C216    1.416   .     A
C214   H252    1.081   .     S
C215   N254    1.366   .     A
C215   H220    1.081   .     S
C216   O261    1.382   .     S
Cu217  N254    2.017   .     S
Cu217  O265    1.952   .     S
Cu217  O255    1.953   .     S
Cu217  O266    1.956   .     S
Cu217  Cu218   2.684   .     S
Cu217  O269    1.955   .     S
Cu218  O263    1.953   .     S
Cu218  O268    1.955   .     S
Cu218  O264    1.952   .     S
Cu218  O267    1.956   .     S
Cu218  N253    2.017   .     S
H219   C7      1.086   1_655 S
H232   O257    0.989   .     S
H233   O528    0.989   1_545 S
H234   O259    0.986   .     S
H235   O260    0.984   .     S
H236   C747    1.115   .     S
H244   C750    1.111   .     S
H245   C750    1.110   .     S
O258   H503    0.989   .     S
C271   O354    1.291   .     A
C271   O345    1.294   .     A
C271   C284    1.448   .     S
C272   C305    1.417   .     A
C272   C274    1.419   .     A
C272   O352    1.381   .     S
C273   C293    1.399   .     A
C273   C306    1.420   .     A
C273   C814    1.516   1_554 S
C274   C301    1.398   .     A
C274   C813    1.516   .     S
C275   O358    1.287   .     A
C275   C277    1.429   .     S
C275   O356    1.289   .     A
C276   C278    1.431   .     S
C276   O357    1.290   .     A
C276   O359    1.287   .     A
C277   C458    1.331   1_455 S
C277   H489    1.086   1_455 S
C278   C367    1.331   .     S
C278   H410    1.088   .     S
C279   H331    1.084   .     S
C279   C290    1.403   .     A
C279   C281    1.386   .     A
C280   H337    1.084   .     S
C280   C291    1.402   .     A
C280   C283    1.388   .     A
C281   C284    1.394   .     A
C281   H338    1.084   .     S
C282   O355    1.293   .     A
C282   O353    1.302   .     A
C282   C285    1.468   .     S
C283   C285    1.400   .     A
C283   H339    1.083   .     S
C284   C286    1.405   .     A
C285   C287    1.416   .     A
C286   O360    1.385   .     S
C286   C288    1.404   .     A
C287   O346    1.384   .     S
C287   C289    1.397   .     A
C288   C290    1.420   .     A
C288   O347    1.382   .     S
C289   C291    1.417   .     A
C289   O348    1.382   .     S
C291   C20     1.471   1_565 S
C292   C294    1.521   .     S
C292   H311    1.116   .     S
C292   O360    1.414   .     S
C292   H312    1.112   .     S
C293   H340    1.082   .     S
C293   C302    1.402   .     A
C294   H315    1.109   .     S
C294   H314    1.110   .     S
C294   H313    1.111   .     S
C295   H317    1.114   .     S
C295   C296    1.522   .     S
C295   O346    1.414   .     S
C295   H316    1.115   .     S
C296   H318    1.111   .     S
C296   H319    1.110   .     S
C296   H321    1.110   .     S
C297   O351    1.412   .     S
C297   H327    1.115   .     S
C297   C1018   1.521   1_454 S
C297   H866    1.115   1_554 S
C298   H329    1.110   .     S
C298   H328    1.111   .     S
C298   C927    1.521   .     S
C298   H420    1.111   .     S
C299   H333    1.113   .     S
C299   H332    1.116   .     S
C299   O352    1.411   .     S
C299   C840    1.520   .     S
C300   H336    1.111   .     S
C300   C839    1.520   1_554 S
C300   H874    1.111   1_554 S
C300   H875    1.110   1_554 S
C301   C303    1.402   .     A
C301   H341    1.083   .     S
C302   N343    1.380   .     A
C302   O349    1.371   .     S
C303   O350    1.373   .     S
C303   N344    1.380   .     A
C304   N343    1.366   .     A
C304   C306    1.416   .     A
C304   H342    1.081   .     S
C305   N344    1.366   .     A
C305   H310    1.081   .     S
C306   O351    1.382   .     S
Cu307  N344    2.017   .     S
Cu307  O355    1.952   .     S
Cu307  O345    1.953   .     S
Cu307  O356    1.956   .     S
Cu307  Cu308   2.684   .     S
Cu307  O359    1.955   .     S
Cu308  O353    1.953   .     S
Cu308  O358    1.955   .     S
Cu308  O354    1.952   .     S
Cu308  O357    1.956   .     S
Cu308  N343    2.017   .     S
H309   C367    1.086   .     S
H320   C458    1.088   1_455 S
H322   O347    0.989   .     S
H324   O349    0.986   .     S
H325   O350    0.984   .     S
H326   C837    1.115   .     S
H330   C478    1.111   1_455 S
H334   C840    1.111   .     S
H335   C840    1.110   .     S
O348   H53     0.989   1_565 S
C361   O444    1.291   .     A
C361   O435    1.294   .     A
C361   C374    1.448   .     S
C362   C395    1.417   .     A
C362   C364    1.419   .     A
C362   O442    1.381   .     S
C363   C383    1.399   .     A
C363   C396    1.420   .     A
C363   C904    1.516   1_554 S
C364   C391    1.398   .     A
C364   C903    1.516   .     S
C365   O448    1.287   .     A
C365   C367    1.429   .     S
C365   O446    1.289   .     A
C366   C368    1.431   .     S
C366   O447    1.290   .     A
C366   O449    1.287   .     A
C368   C457    1.331   .     S
C368   H500    1.088   .     S
C369   H421    1.084   .     S
C369   C380    1.403   .     A
C369   C371    1.386   .     A
C370   H427    1.084   .     S
C370   C381    1.402   .     A
C370   C373    1.388   .     A
C371   C374    1.394   .     A
C371   H428    1.084   .     S
C372   O445    1.293   .     A
C372   O443    1.302   .     A
C372   C375    1.468   .     S
C373   C375    1.400   .     A
C373   H429    1.083   .     S
C374   C376    1.405   .     A
C375   C377    1.416   .     A
C376   O450    1.385   .     S
C376   C378    1.404   .     A
C377   O436    1.384   .     S
C377   C379    1.397   .     A
C378   C380    1.420   .     A
C378   O437    1.382   .     S
C379   C381    1.417   .     A
C379   O438    1.382   .     S
C381   C110    1.471   1_565 S
C382   C384    1.521   .     S
C382   H401    1.116   .     S
C382   O450    1.414   .     S
C382   H402    1.112   .     S
C383   H430    1.082   .     S
C383   C392    1.402   .     A
C384   H405    1.109   .     S
C384   H404    1.110   .     S
C384   H403    1.111   .     S
C385   H407    1.114   .     S
C385   C386    1.522   .     S
C385   O436    1.414   .     S
C385   H406    1.115   .     S
C386   H408    1.111   .     S
C386   H409    1.110   .     S
C386   H411    1.110   .     S
C387   O441    1.412   .     S
C387   H417    1.115   .     S
C387   C838    1.521   1_554 S
C387   H956    1.115   1_554 S
C388   H419    1.110   .     S
C388   H418    1.111   .     S
C388   C1017   1.521   .     S
C388   H510    1.111   .     S
C389   H423    1.113   .     S
C389   H422    1.116   .     S
C389   O442    1.411   .     S
C389   C930    1.520   .     S
C390   H426    1.111   .     S
C390   C929    1.520   1_554 S
C390   H964    1.111   1_554 S
C390   H965    1.110   1_554 S
C391   C393    1.402   .     A
C391   H431    1.083   .     S
C392   N433    1.380   .     A
C392   O439    1.371   .     S
C393   O440    1.373   .     S
C393   N434    1.380   .     A
C394   N433    1.366   .     A
C394   C396    1.416   .     A
C394   H432    1.081   .     S
C395   N434    1.366   .     A
C395   H400    1.081   .     S
C396   O441    1.382   .     S
Cu397  N434    2.017   .     S
Cu397  O445    1.952   .     S
Cu397  O435    1.953   .     S
Cu397  O446    1.956   .     S
Cu397  Cu398   2.684   .     S
Cu397  O449    1.955   .     S
Cu398  O443    1.953   .     S
Cu398  O448    1.955   .     S
Cu398  O444    1.952   .     S
Cu398  O447    1.956   .     S
Cu398  N433    2.017   .     S
H399   C457    1.086   .     S
H412   O437    0.989   .     S
H414   O439    0.986   .     S
H415   O440    0.984   .     S
H416   C927    1.115   .     S
H424   C930    1.111   .     S
H425   C930    1.110   .     S
O438   H143    0.989   1_565 S
C451   O534    1.291   .     A
C451   O525    1.294   .     A
C451   C464    1.448   .     S
C452   C485    1.417   .     A
C452   C454    1.419   .     A
C452   O532    1.381   .     S
C453   C473    1.399   .     A
C453   C486    1.420   .     A
C453   C994    1.516   1_554 S
C454   C481    1.398   .     A
C454   C993    1.516   .     S
C455   O538    1.287   .     A
C455   C457    1.429   .     S
C455   O536    1.289   .     A
C456   C458    1.431   .     S
C456   O537    1.290   .     A
C456   O539    1.287   .     A
C458   C277    1.331   1_655 S
C458   H320    1.088   1_655 S
C459   H511    1.084   .     S
C459   C470    1.403   .     A
C459   C461    1.386   .     A
C460   H517    1.084   .     S
C460   C471    1.402   .     A
C460   C463    1.388   .     A
C461   C464    1.394   .     A
C461   H518    1.084   .     S
C462   O535    1.293   .     A
C462   O533    1.302   .     A
C462   C465    1.468   .     S
C463   C465    1.400   .     A
C463   H519    1.083   .     S
C464   C466    1.405   .     A
C465   C467    1.416   .     A
C466   O540    1.385   .     S
C466   C468    1.404   .     A
C467   O526    1.384   .     S
C467   C469    1.397   .     A
C468   C470    1.420   .     A
C468   O527    1.382   .     S
C469   C471    1.417   .     A
C469   O528    1.382   .     S
C471   C200    1.471   1_565 S
C472   C474    1.521   .     S
C472   H491    1.116   .     S
C472   O540    1.414   .     S
C472   H492    1.112   .     S
C473   H520    1.082   .     S
C473   C482    1.402   .     A
C474   H495    1.109   .     S
C474   H494    1.110   .     S
C474   H493    1.111   .     S
C475   H497    1.114   .     S
C475   C476    1.522   .     S
C475   O526    1.414   .     S
C475   H496    1.115   .     S
C476   H498    1.111   .     S
C476   H499    1.110   .     S
C476   H501    1.110   .     S
C477   O531    1.412   .     S
C477   H507    1.115   .     S
C477   C928    1.521   1_554 S
C477   H1046   1.115   1_554 S
C478   H509    1.110   .     S
C478   H508    1.111   .     S
C478   C837    1.521   1_655 S
C478   H330    1.111   1_655 S
C479   H513    1.113   .     S
C479   H512    1.116   .     S
C479   O532    1.411   .     S
C479   C1020   1.520   .     S
C480   H516    1.111   .     S
C480   C1019   1.520   1_554 S
C480   H1054   1.111   1_554 S
C480   H1055   1.110   1_554 S
C481   C483    1.402   .     A
C481   H521    1.083   .     S
C482   N523    1.380   .     A
C482   O529    1.371   .     S
C483   O530    1.373   .     S
C483   N524    1.380   .     A
C484   N523    1.366   .     A
C484   C486    1.416   .     A
C484   H522    1.081   .     S
C485   N524    1.366   .     A
C485   H490    1.081   .     S
C486   O531    1.382   .     S
Cu487  N524    2.017   .     S
Cu487  O535    1.952   .     S
Cu487  O525    1.953   .     S
Cu487  O536    1.956   .     S
Cu487  Cu488   2.684   .     S
Cu487  O539    1.955   .     S
Cu488  O533    1.953   .     S
Cu488  O538    1.955   .     S
Cu488  O534    1.952   .     S
Cu488  O537    1.956   .     S
Cu488  N523    2.017   .     S
H489   C277    1.086   1_655 S
H502   O527    0.989   .     S
H504   O529    0.986   .     S
H505   O530    0.984   .     S
H506   C1017   1.115   .     S
H514   C1020   1.111   .     S
H515   C1020   1.110   .     S
O528   H233    0.989   1_565 S
C541   O624    1.291   .     A
C541   O615    1.294   .     A
C541   C554    1.448   .     S
C542   C575    1.417   .     A
C542   C544    1.419   .     A
C542   O622    1.381   .     S
C543   C563    1.399   .     A
C543   C576    1.420   .     A
C544   C571    1.398   .     A
C544   C3      1.516   1_556 S
C545   O628    1.287   .     A
C545   C547    1.429   .     S
C545   O626    1.289   .     A
C546   C548    1.431   .     S
C546   O627    1.290   .     A
C546   O629    1.287   .     A
C547   C728    1.331   1_455 S
C547   H759    1.086   1_455 S
C548   C637    1.331   .     S
C548   H680    1.088   .     S
C549   H601    1.084   .     S
C549   C560    1.403   .     A
C549   C551    1.386   .     A
C550   H607    1.084   .     S
C550   C561    1.402   .     A
C550   C553    1.388   .     A
C551   C554    1.394   .     A
C551   H608    1.084   .     S
C552   O625    1.293   .     A
C552   O623    1.302   .     A
C552   C555    1.468   .     S
C553   C555    1.400   .     A
C553   H609    1.083   .     S
C554   C556    1.405   .     A
C555   C557    1.416   .     A
C556   O630    1.385   .     S
C556   C558    1.404   .     A
C557   O616    1.384   .     S
C557   C559    1.397   .     A
C558   C560    1.420   .     A
C558   O617    1.382   .     S
C559   C561    1.417   .     A
C559   O618    1.382   .     S
C560   C831    1.471   1_545 S
C561   C830    1.471   .     S
C562   C564    1.521   .     S
C562   H581    1.116   .     S
C562   O630    1.414   .     S
C562   H582    1.112   .     S
C563   H610    1.082   .     S
C563   C572    1.402   .     A
C564   H585    1.109   .     S
C564   H584    1.110   .     S
C564   H583    1.111   .     S
C565   H587    1.114   .     S
C565   C566    1.522   .     S
C565   O616    1.414   .     S
C565   H586    1.115   .     S
C566   H588    1.111   .     S
C566   H589    1.110   .     S
C566   H591    1.110   .     S
C567   O621    1.412   .     S
C567   H597    1.115   .     S
C567   C208    1.521   1_455 S
C568   H599    1.110   .     S
C568   H598    1.111   .     S
C568   C117    1.521   1_556 S
C568   H690    1.111   .     S
C569   H603    1.113   .     S
C569   H602    1.116   .     S
C569   O622    1.411   .     S
C569   C30     1.520   1_556 S
C570   H606    1.111   .     S
C571   C573    1.402   .     A
C571   H611    1.083   .     S
C572   N613    1.380   .     A
C572   O619    1.371   .     S
C573   O620    1.373   .     S
C573   N614    1.380   .     A
C574   N613    1.366   .     A
C574   C576    1.416   .     A
C574   H612    1.081   .     S
C575   N614    1.366   .     A
C575   H580    1.081   .     S
C576   O621    1.382   .     S
Cu577  N614    2.017   .     S
Cu577  O625    1.952   .     S
Cu577  O615    1.953   .     S
Cu577  O626    1.956   .     S
Cu577  Cu578   2.684   .     S
Cu577  O629    1.955   .     S
Cu578  O623    1.953   .     S
Cu578  O628    1.955   .     S
Cu578  O624    1.952   .     S
Cu578  O627    1.956   .     S
Cu578  N613    2.017   .     S
H579   C637    1.086   .     S
H590   C728    1.088   1_455 S
H592   O617    0.989   .     S
H593   O888    0.989   1_545 S
H594   O619    0.986   .     S
H595   O620    0.984   .     S
H596   C27     1.115   1_556 S
H600   C748    1.111   1_455 S
H604   C30     1.111   1_556 S
H605   C30     1.110   1_556 S
O618   H863    0.989   .     S
C631   O714    1.291   .     A
C631   O705    1.294   .     A
C631   C644    1.448   .     S
C632   C665    1.417   .     A
C632   C634    1.419   .     A
C632   O712    1.381   .     S
C633   C653    1.399   .     A
C633   C666    1.420   .     A
C634   C661    1.398   .     A
C634   C93     1.516   1_556 S
C635   O718    1.287   .     A
C635   C637    1.429   .     S
C635   O716    1.289   .     A
C636   C638    1.431   .     S
C636   O717    1.290   .     A
C636   O719    1.287   .     A
C638   C727    1.331   .     S
C638   H770    1.088   .     S
C639   H691    1.084   .     S
C639   C650    1.403   .     A
C639   C641    1.386   .     A
C640   H697    1.084   .     S
C640   C651    1.402   .     A
C640   C643    1.388   .     A
C641   C644    1.394   .     A
C641   H698    1.084   .     S
C642   O715    1.293   .     A
C642   O713    1.302   .     A
C642   C645    1.468   .     S
C643   C645    1.400   .     A
C643   H699    1.083   .     S
C644   C646    1.405   .     A
C645   C647    1.416   .     A
C646   O720    1.385   .     S
C646   C648    1.404   .     A
C647   O706    1.384   .     S
C647   C649    1.397   .     A
C648   C650    1.420   .     A
C648   O707    1.382   .     S
C649   C651    1.417   .     A
C649   O708    1.382   .     S
C650   C921    1.471   1_545 S
C651   C920    1.471   .     S
C652   C654    1.521   .     S
C652   H671    1.116   .     S
C652   O720    1.414   .     S
C652   H672    1.112   .     S
C653   H700    1.082   .     S
C653   C662    1.402   .     A
C654   H675    1.109   .     S
C654   H674    1.110   .     S
C654   H673    1.111   .     S
C655   H677    1.114   .     S
C655   C656    1.522   .     S
C655   O706    1.414   .     S
C655   H676    1.115   .     S
C656   H678    1.111   .     S
C656   H679    1.110   .     S
C656   H681    1.110   .     S
C657   O711    1.412   .     S
C657   H687    1.115   .     S
C658   H689    1.110   .     S
C658   H688    1.111   .     S
C658   C207    1.521   1_556 S
C658   H780    1.111   .     S
C659   H693    1.113   .     S
C659   H692    1.116   .     S
C659   O712    1.411   .     S
C659   C120    1.520   1_556 S
C660   H696    1.111   .     S
C661   C663    1.402   .     A
C661   H701    1.083   .     S
C662   N703    1.380   .     A
C662   O709    1.371   .     S
C663   O710    1.373   .     S
C663   N704    1.380   .     A
C664   N703    1.366   .     A
C664   C666    1.416   .     A
C664   H702    1.081   .     S
C665   N704    1.366   .     A
C665   H670    1.081   .     S
C666   O711    1.382   .     S
Cu667  N704    2.017   .     S
Cu667  O715    1.952   .     S
Cu667  O705    1.953   .     S
Cu667  O716    1.956   .     S
Cu667  Cu668   2.684   .     S
Cu667  O719    1.955   .     S
Cu668  O713    1.953   .     S
Cu668  O718    1.955   .     S
Cu668  O714    1.952   .     S
Cu668  O717    1.956   .     S
Cu668  N703    2.017   .     S
H669   C727    1.086   .     S
H682   O707    0.989   .     S
H683   O978    0.989   1_545 S
H684   O709    0.986   .     S
H685   O710    0.984   .     S
H686   C117    1.115   1_556 S
H694   C120    1.111   1_556 S
H695   C120    1.110   1_556 S
O708   H953    0.989   .     S
C721   O804    1.291   .     A
C721   O795    1.294   .     A
C721   C734    1.448   .     S
C722   C755    1.417   .     A
C722   C724    1.419   .     A
C722   O802    1.381   .     S
C723   C743    1.399   .     A
C723   C756    1.420   .     A
C724   C751    1.398   .     A
C724   C183    1.516   1_556 S
C725   O808    1.287   .     A
C725   C727    1.429   .     S
C725   O806    1.289   .     A
C726   C728    1.431   .     S
C726   O807    1.290   .     A
C726   O809    1.287   .     A
C728   C547    1.331   1_655 S
C728   H590    1.088   1_655 S
C729   H781    1.084   .     S
C729   C740    1.403   .     A
C729   C731    1.386   .     A
C730   H787    1.084   .     S
C730   C741    1.402   .     A
C730   C733    1.388   .     A
C731   C734    1.394   .     A
C731   H788    1.084   .     S
C732   O805    1.293   .     A
C732   O803    1.302   .     A
C732   C735    1.468   .     S
C733   C735    1.400   .     A
C733   H789    1.083   .     S
C734   C736    1.405   .     A
C735   C737    1.416   .     A
C736   O810    1.385   .     S
C736   C738    1.404   .     A
C737   O796    1.384   .     S
C737   C739    1.397   .     A
C738   C740    1.420   .     A
C738   O797    1.382   .     S
C739   C741    1.417   .     A
C739   O798    1.382   .     S
C740   C1011   1.471   1_545 S
C741   C1010   1.471   .     S
C742   C744    1.521   .     S
C742   H761    1.116   .     S
C742   O810    1.414   .     S
C742   H762    1.112   .     S
C743   H790    1.082   .     S
C743   C752    1.402   .     A
C744   H765    1.109   .     S
C744   H764    1.110   .     S
C744   H763    1.111   .     S
C745   H767    1.114   .     S
C745   C746    1.522   .     S
C745   O796    1.414   .     S
C745   H766    1.115   .     S
C746   H768    1.111   .     S
C746   H769    1.110   .     S
C746   H771    1.110   .     S
C747   O801    1.412   .     S
C747   H777    1.115   .     S
C748   H779    1.110   .     S
C748   H778    1.111   .     S
C748   C27     1.521   1_656 S
C748   H600    1.111   1_655 S
C749   H783    1.113   .     S
C749   H782    1.116   .     S
C749   O802    1.411   .     S
C749   C210    1.520   1_556 S
C750   H786    1.111   .     S
C751   C753    1.402   .     A
C751   H791    1.083   .     S
C752   N793    1.380   .     A
C752   O799    1.371   .     S
C753   O800    1.373   .     S
C753   N794    1.380   .     A
C754   N793    1.366   .     A
C754   C756    1.416   .     A
C754   H792    1.081   .     S
C755   N794    1.366   .     A
C755   H760    1.081   .     S
C756   O801    1.382   .     S
Cu757  N794    2.017   .     S
Cu757  O805    1.952   .     S
Cu757  O795    1.953   .     S
Cu757  O806    1.956   .     S
Cu757  Cu758   2.684   .     S
Cu757  O809    1.955   .     S
Cu758  O803    1.953   .     S
Cu758  O808    1.955   .     S
Cu758  O804    1.952   .     S
Cu758  O807    1.956   .     S
Cu758  N793    2.017   .     S
H759   C547    1.086   1_655 S
H772   O797    0.989   .     S
H773   O1068   0.989   1_545 S
H774   O799    0.986   .     S
H775   O800    0.984   .     S
H776   C207    1.115   1_556 S
H784   C210    1.111   1_556 S
H785   C210    1.110   1_556 S
O798   H1043   0.989   .     S
C811   O894    1.291   .     A
C811   O885    1.294   .     A
C811   C824    1.448   .     S
C812   C845    1.417   .     A
C812   C814    1.419   .     A
C812   O892    1.381   .     S
C813   C833    1.399   .     A
C813   C846    1.420   .     A
C814   C841    1.398   .     A
C814   C273    1.516   1_556 S
C815   O898    1.287   .     A
C815   C817    1.429   .     S
C815   O896    1.289   .     A
C816   C818    1.431   .     S
C816   O897    1.290   .     A
C816   O899    1.287   .     A
C817   C998    1.331   1_455 S
C817   H1029   1.086   1_455 S
C818   C907    1.331   .     S
C818   H950    1.088   .     S
C819   H871    1.084   .     S
C819   C830    1.403   .     A
C819   C821    1.386   .     A
C820   H877    1.084   .     S
C820   C831    1.402   .     A
C820   C823    1.388   .     A
C821   C824    1.394   .     A
C821   H878    1.084   .     S
C822   O895    1.293   .     A
C822   O893    1.302   .     A
C822   C825    1.468   .     S
C823   C825    1.400   .     A
C823   H879    1.083   .     S
C824   C826    1.405   .     A
C825   C827    1.416   .     A
C826   O900    1.385   .     S
C826   C828    1.404   .     A
C827   O886    1.384   .     S
C827   C829    1.397   .     A
C828   C830    1.420   .     A
C828   O887    1.382   .     S
C829   C831    1.417   .     A
C829   O888    1.382   .     S
C831   C560    1.471   1_565 S
C832   C834    1.521   .     S
C832   H851    1.116   .     S
C832   O900    1.414   .     S
C832   H852    1.112   .     S
C833   H880    1.082   .     S
C833   C842    1.402   .     A
C834   H855    1.109   .     S
C834   H854    1.110   .     S
C834   H853    1.111   .     S
C835   H857    1.114   .     S
C835   C836    1.522   .     S
C835   O886    1.414   .     S
C835   H856    1.115   .     S
C836   H858    1.111   .     S
C836   H859    1.110   .     S
C836   H861    1.110   .     S
C837   O891    1.412   .     S
C837   H867    1.115   .     S
C837   C478    1.521   1_455 S
C838   H869    1.110   .     S
C838   H868    1.111   .     S
C838   C387    1.521   1_556 S
C838   H960    1.111   .     S
C839   H873    1.113   .     S
C839   H872    1.116   .     S
C839   O892    1.411   .     S
C839   C300    1.520   1_556 S
C840   H876    1.111   .     S
C841   C843    1.402   .     A
C841   H881    1.083   .     S
C842   N883    1.380   .     A
C842   O889    1.371   .     S
C843   O890    1.373   .     S
C843   N884    1.380   .     A
C844   N883    1.366   .     A
C844   C846    1.416   .     A
C844   H882    1.081   .     S
C845   N884    1.366   .     A
C845   H850    1.081   .     S
C846   O891    1.382   .     S
Cu847  N884    2.017   .     S
Cu847  O895    1.952   .     S
Cu847  O885    1.953   .     S
Cu847  O896    1.956   .     S
Cu847  Cu848   2.684   .     S
Cu847  O899    1.955   .     S
Cu848  O893    1.953   .     S
Cu848  O898    1.955   .     S
Cu848  O894    1.952   .     S
Cu848  O897    1.956   .     S
Cu848  N883    2.017   .     S
H849   C907    1.086   .     S
H860   C998    1.088   1_455 S
H862   O887    0.989   .     S
H864   O889    0.986   .     S
H865   O890    0.984   .     S
H866   C297    1.115   1_556 S
H870   C1018   1.111   1_455 S
H874   C300    1.111   1_556 S
H875   C300    1.110   1_556 S
O888   H593    0.989   1_565 S
C901   O984    1.291   .     A
C901   O975    1.294   .     A
C901   C914    1.448   .     S
C902   C935    1.417   .     A
C902   C904    1.419   .     A
C902   O982    1.381   .     S
C903   C923    1.399   .     A
C903   C936    1.420   .     A
C904   C931    1.398   .     A
C904   C363    1.516   1_556 S
C905   O988    1.287   .     A
C905   C907    1.429   .     S
C905   O986    1.289   .     A
C906   C908    1.431   .     S
C906   O987    1.290   .     A
C906   O989    1.287   .     A
C908   C997    1.331   .     S
C908   H1040   1.088   .     S
C909   H961    1.084   .     S
C909   C920    1.403   .     A
C909   C911    1.386   .     A
C910   H967    1.084   .     S
C910   C921    1.402   .     A
C910   C913    1.388   .     A
C911   C914    1.394   .     A
C911   H968    1.084   .     S
C912   O985    1.293   .     A
C912   O983    1.302   .     A
C912   C915    1.468   .     S
C913   C915    1.400   .     A
C913   H969    1.083   .     S
C914   C916    1.405   .     A
C915   C917    1.416   .     A
C916   O990    1.385   .     S
C916   C918    1.404   .     A
C917   O976    1.384   .     S
C917   C919    1.397   .     A
C918   C920    1.420   .     A
C918   O977    1.382   .     S
C919   C921    1.417   .     A
C919   O978    1.382   .     S
C921   C650    1.471   1_565 S
C922   C924    1.521   .     S
C922   H941    1.116   .     S
C922   O990    1.414   .     S
C922   H942    1.112   .     S
C923   H970    1.082   .     S
C923   C932    1.402   .     A
C924   H945    1.109   .     S
C924   H944    1.110   .     S
C924   H943    1.111   .     S
C925   H947    1.114   .     S
C925   C926    1.522   .     S
C925   O976    1.414   .     S
C925   H946    1.115   .     S
C926   H948    1.111   .     S
C926   H949    1.110   .     S
C926   H951    1.110   .     S
C927   O981    1.412   .     S
C927   H957    1.115   .     S
C928   H959    1.110   .     S
C928   H958    1.111   .     S
C928   C477    1.521   1_556 S
C928   H1050   1.111   .     S
C929   H963    1.113   .     S
C929   H962    1.116   .     S
C929   O982    1.411   .     S
C929   C390    1.520   1_556 S
C930   H966    1.111   .     S
C931   C933    1.402   .     A
C931   H971    1.083   .     S
C932   N973    1.380   .     A
C932   O979    1.371   .     S
C933   O980    1.373   .     S
C933   N974    1.380   .     A
C934   N973    1.366   .     A
C934   C936    1.416   .     A
C934   H972    1.081   .     S
C935   N974    1.366   .     A
C935   H940    1.081   .     S
C936   O981    1.382   .     S
Cu937  N974    2.017   .     S
Cu937  O985    1.952   .     S
Cu937  O975    1.953   .     S
Cu937  O986    1.956   .     S
Cu937  Cu938   2.684   .     S
Cu937  O989    1.955   .     S
Cu938  O983    1.953   .     S
Cu938  O988    1.955   .     S
Cu938  O984    1.952   .     S
Cu938  O987    1.956   .     S
Cu938  N973    2.017   .     S
H939   C997    1.086   .     S
H952   O977    0.989   .     S
H954   O979    0.986   .     S
H955   O980    0.984   .     S
H956   C387    1.115   1_556 S
H964   C390    1.111   1_556 S
H965   C390    1.110   1_556 S
O978   H683    0.989   1_565 S
C991   O1074   1.291   .     A
C991   O1065   1.294   .     A
C991   C1004   1.448   .     S
C992   C1025   1.417   .     A
C992   C994    1.419   .     A
C992   O1072   1.381   .     S
C993   C1013   1.399   .     A
C993   C1026   1.420   .     A
C994   C1021   1.398   .     A
C994   C453    1.516   1_556 S
C995   O1078   1.287   .     A
C995   C997    1.429   .     S
C995   O1076   1.289   .     A
C996   C998    1.431   .     S
C996   O1077   1.290   .     A
C996   O1079   1.287   .     A
C998   C817    1.331   1_655 S
C998   H860    1.088   1_655 S
C999   H1051   1.084   .     S
C999   C1010   1.403   .     A
C999   C1001   1.386   .     A
C1000  H1057   1.084   .     S
C1000  C1011   1.402   .     A
C1000  C1003   1.388   .     A
C1001  C1004   1.394   .     A
C1001  H1058   1.084   .     S
C1002  O1075   1.293   .     A
C1002  O1073   1.302   .     A
C1002  C1005   1.468   .     S
C1003  C1005   1.400   .     A
C1003  H1059   1.083   .     S
C1004  C1006   1.405   .     A
C1005  C1007   1.416   .     A
C1006  O1080   1.385   .     S
C1006  C1008   1.404   .     A
C1007  O1066   1.384   .     S
C1007  C1009   1.397   .     A
C1008  C1010   1.420   .     A
C1008  O1067   1.382   .     S
C1009  C1011   1.417   .     A
C1009  O1068   1.382   .     S
C1011  C740    1.471   1_565 S
C1012  C1014   1.521   .     S
C1012  H1031   1.116   .     S
C1012  O1080   1.414   .     S
C1012  H1032   1.112   .     S
C1013  H1060   1.082   .     S
C1013  C1022   1.402   .     A
C1014  H1035   1.109   .     S
C1014  H1034   1.110   .     S
C1014  H1033   1.111   .     S
C1015  H1037   1.114   .     S
C1015  C1016   1.522   .     S
C1015  O1066   1.414   .     S
C1015  H1036   1.115   .     S
C1016  H1038   1.111   .     S
C1016  H1039   1.110   .     S
C1016  H1041   1.110   .     S
C1017  O1071   1.412   .     S
C1017  H1047   1.115   .     S
C1018  H1049   1.110   .     S
C1018  H1048   1.111   .     S
C1018  C297    1.521   1_656 S
C1018  H870    1.111   1_655 S
C1019  H1053   1.113   .     S
C1019  H1052   1.116   .     S
C1019  O1072   1.411   .     S
C1019  C480    1.520   1_556 S
C1020  H1056   1.111   .     S
C1021  C1023   1.402   .     A
C1021  H1061   1.083   .     S
C1022  N1063   1.380   .     A
C1022  O1069   1.371   .     S
C1023  O1070   1.373   .     S
C1023  N1064   1.380   .     A
C1024  N1063   1.366   .     A
C1024  C1026   1.416   .     A
C1024  H1062   1.081   .     S
C1025  N1064   1.366   .     A
C1025  H1030   1.081   .     S
C1026  O1071   1.382   .     S
Cu1027 N1064   2.017   .     S
Cu1027 O1075   1.952   .     S
Cu1027 O1065   1.953   .     S
Cu1027 O1076   1.956   .     S
Cu1027 Cu1028  2.684   .     S
Cu1027 O1079   1.955   .     S
Cu1028 O1073   1.953   .     S
Cu1028 O1078   1.955   .     S
Cu1028 O1074   1.952   .     S
Cu1028 O1077   1.956   .     S
Cu1028 N1063   2.017   .     S
H1029  C817    1.086   1_655 S
H1042  O1067   0.989   .     S
H1044  O1069   0.986   .     S
H1045  O1070   0.984   .     S
H1046  C477    1.115   1_556 S
H1054  C480    1.111   1_556 S
H1055  C480    1.110   1_556 S
O1068  H773    0.989   1_565 S
