data_str_m2_o1_o18_pcu_sym.170
_audit_creation_date              2020-01-03
_audit_creation_method            'Materials Studio'
_symmetry_space_group_name_H-M    'P1'
_symmetry_Int_Tables_number       1
_symmetry_cell_setting            triclinic
loop_
_symmetry_equiv_pos_as_xyz
  x,y,z
_cell_length_a                    28.8395
_cell_length_b                    32.5818
_cell_length_c                    31.2942
_cell_angle_alpha                 86.8354
_cell_angle_beta                  73.9193
_cell_angle_gamma                 90.0377
loop_
_atom_site_label
_atom_site_type_symbol
_atom_site_fract_x
_atom_site_fract_y
_atom_site_fract_z
_atom_site_U_iso_or_equiv
_atom_site_adp_type
_atom_site_occupancy
O1     O     0.03958   0.10655   0.25000   0.00000  Uiso   1.00
O2     O     0.29375   0.22678   0.25000   0.00000  Uiso   1.00
O3     O     0.29372   0.10654   0.25001   0.00000  Uiso   1.00
O4     O     0.03961   0.22679   0.25000   0.00000  Uiso   1.00
C5     C     0.00023   0.08748   0.24927   0.00000  Uiso   1.00
C6     C     0.33311   0.24585   0.25073   0.00000  Uiso   1.00
O7     O     0.01852   0.16668   0.31492   0.00000  Uiso   1.00
O8     O     0.31481   0.16666   0.18509   0.00000  Uiso   1.00
O9     O     0.27267   0.16667   0.31492   0.00000  Uiso   1.00
O10    O     0.06067   0.16667   0.18508   0.00000  Uiso   1.00
C11    C     0.30594   0.16830   0.33573   0.00000  Uiso   1.00
C12    C     0.02739   0.16503   0.16427   0.00000  Uiso   1.00
Cu13   Cu    0.04689   0.16667   0.25000   0.00000  Uiso   1.00
Cu14   Cu    0.28645   0.16666   0.25000   0.00000  Uiso   1.00
C15    C     0.29037   0.17268   0.38421   0.00000  Uiso   1.00
C16    C     0.04297   0.16059   0.11580   0.00000  Uiso   1.00
C17    C     0.30701   0.18600   0.45377   0.00000  Uiso   1.00
C18    C     0.02637   0.14709   0.04626   0.00000  Uiso   1.00
C19    C     0.32329   0.18138   0.40809   0.00000  Uiso   1.00
C20    C     0.01006   0.15181   0.09193   0.00000  Uiso   1.00
C21    C     0.24106   0.17008   0.40644   0.00000  Uiso   1.00
C22    C     0.09228   0.16320   0.09357   0.00000  Uiso   1.00
C23    C     0.22389   0.17169   0.45291   0.00000  Uiso   1.00
C24    C     0.10948   0.16144   0.04713   0.00000  Uiso   1.00
C25    C     0.25790   0.18037   0.47643   0.00000  Uiso   1.00
C26    C     0.07548   0.15270   0.02361   0.00000  Uiso   1.00
C27    C     0.17414   0.16517   0.47646   0.00000  Uiso   1.00
C28    C     0.15924   0.16791   0.02358   0.00000  Uiso   1.00
C29    C     0.19449   0.17769   0.04541   0.00000  Uiso   1.00
C30    C     0.13892   0.15530   0.45465   0.00000  Uiso   1.00
C31    C     0.24264   0.18380   0.02223   0.00000  Uiso   1.00
C32    C     0.09077   0.14919   0.47782   0.00000  Uiso   1.00
H33    H     0.26816   0.19128   0.04048   0.00000  Uiso   1.00
H34    H     0.06526   0.14165   0.45959   0.00000  Uiso   1.00
H35    H     0.11668   0.16565   0.11350   0.00000  Uiso   1.00
H36    H     0.21663   0.16777   0.38652   0.00000  Uiso   1.00
H37    H     0.30538   0.14740   0.10861   0.00000  Uiso   1.00
H38    H     0.02797   0.18580   0.39141   0.00000  Uiso   1.00
H39    H     0.33286   0.19391   0.47145   0.00000  Uiso   1.00
H40    H     0.00053   0.13913   0.02860   0.00000  Uiso   1.00
H41    H     0.18647   0.18108   0.08060   0.00000  Uiso   1.00
H42    H     0.14698   0.15180   0.41947   0.00000  Uiso   1.00
C43    C     0.29384   0.02153   0.24342   0.00000  Uiso   1.00
C44    C     0.03949   0.31181   0.25660   0.00000  Uiso   1.00
H45    H     0.26346   0.03755   0.23705   0.00000  Uiso   1.00
H46    H     0.06986   0.29579   0.26297   0.00000  Uiso   1.00
C47    C     0.29286   0.31232   0.24584   0.00000  Uiso   1.00
C48    C     0.04048   0.02101   0.25416   0.00000  Uiso   1.00
H49    H     0.26079   0.29675   0.24343   0.00000  Uiso   1.00
H50    H     0.07254   0.03658   0.25656   0.00000  Uiso   1.00
C51    C     0.33278   0.29050   0.25141   0.00000  Uiso   1.00
C52    C     0.00055   0.04283   0.24859   0.00000  Uiso   1.00
C53    C     0.18269   0.14045   0.27855   0.00000  Uiso   1.00
C54    C     0.15065   0.19286   0.22143   0.00000  Uiso   1.00
C55    C     0.13310   0.14119   0.27928   0.00000  Uiso   1.00
C56    C     0.20024   0.19214   0.22073   0.00000  Uiso   1.00
N57    N     0.11736   0.16668   0.24999   0.00000  Uiso   1.00
N58    N     0.21597   0.16666   0.25001   0.00000  Uiso   1.00
N59    N     0.19778   0.11005   0.30630   0.00000  Uiso   1.00
O60    O     0.18821   0.11517   0.34866   0.00000  Uiso   1.00
O61    O     0.20324   0.07273   0.29335   0.00000  Uiso   1.00
N62    N     0.13558   0.22321   0.19360   0.00000  Uiso   1.00
O63    O     0.14548   0.21812   0.15120   0.00000  Uiso   1.00
O64    O     0.12985   0.26051   0.20658   0.00000  Uiso   1.00
N65    N     0.09935   0.11628   0.31268   0.00000  Uiso   1.00
O66    O     0.08408   0.12971   0.35243   0.00000  Uiso   1.00
O67    O     0.09800   0.07692   0.30847   0.00000  Uiso   1.00
N68    N     0.23398   0.21710   0.18736   0.00000  Uiso   1.00
O69    O     0.24940   0.20366   0.14763   0.00000  Uiso   1.00
O70    O     0.23516   0.25648   0.19155   0.00000  Uiso   1.00
O71    O     0.37291   0.10655   0.25000   0.00000  Uiso   1.00
O72    O     0.62709   0.22678   0.25000   0.00000  Uiso   1.00
O73    O     0.62706   0.10654   0.25001   0.00000  Uiso   1.00
O74    O     0.37294   0.22679   0.25000   0.00000  Uiso   1.00
C75    C     0.33356   0.08748   0.24927   0.00000  Uiso   1.00
C76    C     0.66644   0.24585   0.25073   0.00000  Uiso   1.00
O77    O     0.35186   0.16668   0.31492   0.00000  Uiso   1.00
O78    O     0.64814   0.16666   0.18509   0.00000  Uiso   1.00
O79    O     0.60600   0.16667   0.31492   0.00000  Uiso   1.00
O80    O     0.39400   0.16667   0.18508   0.00000  Uiso   1.00
C81    C     0.63928   0.16830   0.33573   0.00000  Uiso   1.00
C82    C     0.36072   0.16503   0.16427   0.00000  Uiso   1.00
Cu83   Cu    0.38022   0.16667   0.25000   0.00000  Uiso   1.00
Cu84   Cu    0.61978   0.16666   0.25000   0.00000  Uiso   1.00
C85    C     0.62370   0.17268   0.38421   0.00000  Uiso   1.00
C86    C     0.37630   0.16059   0.11580   0.00000  Uiso   1.00
C87    C     0.64034   0.18600   0.45377   0.00000  Uiso   1.00
C88    C     0.35971   0.14709   0.04626   0.00000  Uiso   1.00
C89    C     0.65663   0.18138   0.40809   0.00000  Uiso   1.00
C90    C     0.34339   0.15181   0.09193   0.00000  Uiso   1.00
C91    C     0.57440   0.17008   0.40644   0.00000  Uiso   1.00
C92    C     0.42561   0.16320   0.09357   0.00000  Uiso   1.00
C93    C     0.55723   0.17169   0.45291   0.00000  Uiso   1.00
C94    C     0.44281   0.16144   0.04713   0.00000  Uiso   1.00
C95    C     0.59124   0.18037   0.47643   0.00000  Uiso   1.00
C96    C     0.40881   0.15270   0.02361   0.00000  Uiso   1.00
C97    C     0.50747   0.16517   0.47646   0.00000  Uiso   1.00
C98    C     0.49258   0.16791   0.02358   0.00000  Uiso   1.00
C99    C     0.52782   0.17769   0.04541   0.00000  Uiso   1.00
C100   C     0.47225   0.15530   0.45465   0.00000  Uiso   1.00
C101   C     0.57597   0.18380   0.02223   0.00000  Uiso   1.00
C102   C     0.42410   0.14919   0.47782   0.00000  Uiso   1.00
H103   H     0.60149   0.19128   0.04048   0.00000  Uiso   1.00
H104   H     0.39859   0.14165   0.45959   0.00000  Uiso   1.00
H105   H     0.45001   0.16565   0.11350   0.00000  Uiso   1.00
H106   H     0.54996   0.16777   0.38652   0.00000  Uiso   1.00
H107   H     0.63871   0.14740   0.10861   0.00000  Uiso   1.00
H108   H     0.36130   0.18580   0.39141   0.00000  Uiso   1.00
H109   H     0.66619   0.19391   0.47145   0.00000  Uiso   1.00
H110   H     0.33387   0.13913   0.02860   0.00000  Uiso   1.00
H111   H     0.51980   0.18108   0.08060   0.00000  Uiso   1.00
H112   H     0.48031   0.15180   0.41947   0.00000  Uiso   1.00
C113   C     0.62717   0.02153   0.24342   0.00000  Uiso   1.00
C114   C     0.37282   0.31181   0.25660   0.00000  Uiso   1.00
H115   H     0.59679   0.03755   0.23705   0.00000  Uiso   1.00
H116   H     0.40320   0.29579   0.26297   0.00000  Uiso   1.00
C117   C     0.62619   0.31232   0.24584   0.00000  Uiso   1.00
C118   C     0.37381   0.02101   0.25416   0.00000  Uiso   1.00
H119   H     0.59413   0.29675   0.24343   0.00000  Uiso   1.00
H120   H     0.40588   0.03658   0.25656   0.00000  Uiso   1.00
C121   C     0.66612   0.29050   0.25141   0.00000  Uiso   1.00
C122   C     0.33388   0.04283   0.24859   0.00000  Uiso   1.00
C123   C     0.51602   0.14045   0.27855   0.00000  Uiso   1.00
C124   C     0.48398   0.19286   0.22143   0.00000  Uiso   1.00
C125   C     0.46643   0.14119   0.27928   0.00000  Uiso   1.00
C126   C     0.53357   0.19214   0.22073   0.00000  Uiso   1.00
N127   N     0.45069   0.16668   0.24999   0.00000  Uiso   1.00
N128   N     0.54931   0.16666   0.25001   0.00000  Uiso   1.00
N129   N     0.53111   0.11005   0.30630   0.00000  Uiso   1.00
O130   O     0.52154   0.11517   0.34866   0.00000  Uiso   1.00
O131   O     0.53657   0.07273   0.29335   0.00000  Uiso   1.00
N132   N     0.46891   0.22321   0.19360   0.00000  Uiso   1.00
O133   O     0.47881   0.21812   0.15120   0.00000  Uiso   1.00
O134   O     0.46318   0.26051   0.20658   0.00000  Uiso   1.00
N135   N     0.43268   0.11628   0.31268   0.00000  Uiso   1.00
O136   O     0.41741   0.12971   0.35243   0.00000  Uiso   1.00
O137   O     0.43134   0.07692   0.30847   0.00000  Uiso   1.00
N138   N     0.56731   0.21710   0.18736   0.00000  Uiso   1.00
O139   O     0.58273   0.20366   0.14763   0.00000  Uiso   1.00
O140   O     0.56850   0.25648   0.19155   0.00000  Uiso   1.00
O141   O     0.70625   0.10655   0.25000   0.00000  Uiso   1.00
O142   O     0.96042   0.22678   0.25000   0.00000  Uiso   1.00
O143   O     0.96039   0.10654   0.25001   0.00000  Uiso   1.00
O144   O     0.70628   0.22679   0.25000   0.00000  Uiso   1.00
C145   C     0.66689   0.08748   0.24927   0.00000  Uiso   1.00
C146   C     0.99977   0.24585   0.25073   0.00000  Uiso   1.00
O147   O     0.68519   0.16668   0.31492   0.00000  Uiso   1.00
O148   O     0.98148   0.16666   0.18509   0.00000  Uiso   1.00
O149   O     0.93933   0.16667   0.31492   0.00000  Uiso   1.00
O150   O     0.72733   0.16667   0.18508   0.00000  Uiso   1.00
C151   C     0.97261   0.16830   0.33573   0.00000  Uiso   1.00
C152   C     0.69406   0.16503   0.16427   0.00000  Uiso   1.00
Cu153  Cu    0.71355   0.16667   0.25000   0.00000  Uiso   1.00
Cu154  Cu    0.95311   0.16666   0.25000   0.00000  Uiso   1.00
C155   C     0.95704   0.17268   0.38421   0.00000  Uiso   1.00
C156   C     0.70963   0.16059   0.11580   0.00000  Uiso   1.00
C157   C     0.97367   0.18600   0.45377   0.00000  Uiso   1.00
C158   C     0.69304   0.14709   0.04626   0.00000  Uiso   1.00
C159   C     0.98996   0.18138   0.40809   0.00000  Uiso   1.00
C160   C     0.67673   0.15181   0.09193   0.00000  Uiso   1.00
C161   C     0.90773   0.17008   0.40644   0.00000  Uiso   1.00
C162   C     0.75894   0.16320   0.09357   0.00000  Uiso   1.00
C163   C     0.89056   0.17169   0.45291   0.00000  Uiso   1.00
C164   C     0.77614   0.16144   0.04713   0.00000  Uiso   1.00
C165   C     0.92457   0.18037   0.47643   0.00000  Uiso   1.00
C166   C     0.74215   0.15270   0.02361   0.00000  Uiso   1.00
C167   C     0.84081   0.16517   0.47646   0.00000  Uiso   1.00
C168   C     0.82591   0.16791   0.02358   0.00000  Uiso   1.00
C169   C     0.86115   0.17769   0.04541   0.00000  Uiso   1.00
C170   C     0.80559   0.15530   0.45465   0.00000  Uiso   1.00
C171   C     0.90930   0.18380   0.02223   0.00000  Uiso   1.00
C172   C     0.75743   0.14919   0.47782   0.00000  Uiso   1.00
H173   H     0.93483   0.19128   0.04048   0.00000  Uiso   1.00
H174   H     0.73192   0.14165   0.45959   0.00000  Uiso   1.00
H175   H     0.78334   0.16565   0.11350   0.00000  Uiso   1.00
H176   H     0.88330   0.16777   0.38652   0.00000  Uiso   1.00
H177   H     0.97205   0.14740   0.10861   0.00000  Uiso   1.00
H178   H     0.69464   0.18580   0.39141   0.00000  Uiso   1.00
H179   H     0.99953   0.19391   0.47145   0.00000  Uiso   1.00
H180   H     0.66720   0.13913   0.02860   0.00000  Uiso   1.00
H181   H     0.85313   0.18108   0.08060   0.00000  Uiso   1.00
H182   H     0.81364   0.15180   0.41947   0.00000  Uiso   1.00
C183   C     0.96051   0.02153   0.24342   0.00000  Uiso   1.00
C184   C     0.70615   0.31181   0.25660   0.00000  Uiso   1.00
H185   H     0.93013   0.03755   0.23705   0.00000  Uiso   1.00
H186   H     0.73653   0.29579   0.26297   0.00000  Uiso   1.00
C187   C     0.95952   0.31232   0.24584   0.00000  Uiso   1.00
C188   C     0.70714   0.02101   0.25416   0.00000  Uiso   1.00
H189   H     0.92746   0.29675   0.24343   0.00000  Uiso   1.00
H190   H     0.73921   0.03658   0.25656   0.00000  Uiso   1.00
C191   C     0.99945   0.29050   0.25141   0.00000  Uiso   1.00
C192   C     0.66721   0.04283   0.24859   0.00000  Uiso   1.00
C193   C     0.84936   0.14045   0.27855   0.00000  Uiso   1.00
C194   C     0.81732   0.19286   0.22143   0.00000  Uiso   1.00
C195   C     0.79976   0.14119   0.27928   0.00000  Uiso   1.00
C196   C     0.86690   0.19214   0.22073   0.00000  Uiso   1.00
N197   N     0.78403   0.16668   0.24999   0.00000  Uiso   1.00
N198   N     0.88264   0.16666   0.25001   0.00000  Uiso   1.00
N199   N     0.86445   0.11005   0.30630   0.00000  Uiso   1.00
O200   O     0.85488   0.11517   0.34866   0.00000  Uiso   1.00
O201   O     0.86990   0.07273   0.29335   0.00000  Uiso   1.00
N202   N     0.80225   0.22321   0.19360   0.00000  Uiso   1.00
O203   O     0.81214   0.21812   0.15120   0.00000  Uiso   1.00
O204   O     0.79651   0.26051   0.20658   0.00000  Uiso   1.00
N205   N     0.76601   0.11628   0.31268   0.00000  Uiso   1.00
O206   O     0.75075   0.12971   0.35243   0.00000  Uiso   1.00
O207   O     0.76467   0.07692   0.30847   0.00000  Uiso   1.00
N208   N     0.90065   0.21710   0.18736   0.00000  Uiso   1.00
O209   O     0.91607   0.20366   0.14763   0.00000  Uiso   1.00
O210   O     0.90183   0.25648   0.19155   0.00000  Uiso   1.00
O211   O     0.03958   0.43989   0.25000   0.00000  Uiso   1.00
O212   O     0.29375   0.56011   0.25000   0.00000  Uiso   1.00
O213   O     0.29372   0.43988   0.25001   0.00000  Uiso   1.00
O214   O     0.03961   0.56012   0.25000   0.00000  Uiso   1.00
C215   C     0.00023   0.42081   0.24927   0.00000  Uiso   1.00
C216   C     0.33311   0.57919   0.25073   0.00000  Uiso   1.00
O217   O     0.01852   0.50001   0.31492   0.00000  Uiso   1.00
O218   O     0.31481   0.49999   0.18509   0.00000  Uiso   1.00
O219   O     0.27267   0.50000   0.31492   0.00000  Uiso   1.00
O220   O     0.06067   0.50000   0.18508   0.00000  Uiso   1.00
C221   C     0.30594   0.50164   0.33573   0.00000  Uiso   1.00
C222   C     0.02739   0.49836   0.16427   0.00000  Uiso   1.00
Cu223  Cu    0.04689   0.50001   0.25000   0.00000  Uiso   1.00
Cu224  Cu    0.28645   0.49999   0.25000   0.00000  Uiso   1.00
C225   C     0.29037   0.50602   0.38421   0.00000  Uiso   1.00
C226   C     0.04297   0.49392   0.11580   0.00000  Uiso   1.00
C227   C     0.30701   0.51934   0.45377   0.00000  Uiso   1.00
C228   C     0.02637   0.48043   0.04626   0.00000  Uiso   1.00
C229   C     0.32329   0.51472   0.40809   0.00000  Uiso   1.00
C230   C     0.01006   0.48514   0.09193   0.00000  Uiso   1.00
C231   C     0.24106   0.50341   0.40644   0.00000  Uiso   1.00
C232   C     0.09228   0.49653   0.09357   0.00000  Uiso   1.00
C233   C     0.22389   0.50502   0.45291   0.00000  Uiso   1.00
C234   C     0.10948   0.49478   0.04713   0.00000  Uiso   1.00
C235   C     0.25790   0.51370   0.47643   0.00000  Uiso   1.00
C236   C     0.07548   0.48604   0.02361   0.00000  Uiso   1.00
C237   C     0.17414   0.49850   0.47646   0.00000  Uiso   1.00
C238   C     0.15924   0.50124   0.02358   0.00000  Uiso   1.00
C239   C     0.19449   0.51102   0.04541   0.00000  Uiso   1.00
C240   C     0.13892   0.48864   0.45465   0.00000  Uiso   1.00
C241   C     0.24264   0.51713   0.02223   0.00000  Uiso   1.00
C242   C     0.09077   0.48252   0.47782   0.00000  Uiso   1.00
H243   H     0.26816   0.52461   0.04048   0.00000  Uiso   1.00
H244   H     0.06526   0.47498   0.45959   0.00000  Uiso   1.00
H245   H     0.11668   0.49898   0.11350   0.00000  Uiso   1.00
H246   H     0.21663   0.50110   0.38652   0.00000  Uiso   1.00
H247   H     0.30538   0.48074   0.10861   0.00000  Uiso   1.00
H248   H     0.02797   0.51913   0.39141   0.00000  Uiso   1.00
H249   H     0.33286   0.52725   0.47145   0.00000  Uiso   1.00
H250   H     0.00053   0.47246   0.02860   0.00000  Uiso   1.00
H251   H     0.18647   0.51441   0.08060   0.00000  Uiso   1.00
H252   H     0.14698   0.48514   0.41947   0.00000  Uiso   1.00
C253   C     0.29384   0.35486   0.24342   0.00000  Uiso   1.00
C254   C     0.03949   0.64514   0.25660   0.00000  Uiso   1.00
H255   H     0.26346   0.37088   0.23705   0.00000  Uiso   1.00
H256   H     0.06986   0.62912   0.26297   0.00000  Uiso   1.00
C257   C     0.29286   0.64566   0.24584   0.00000  Uiso   1.00
C258   C     0.04048   0.35434   0.25416   0.00000  Uiso   1.00
H259   H     0.26079   0.63009   0.24343   0.00000  Uiso   1.00
H260   H     0.07254   0.36991   0.25656   0.00000  Uiso   1.00
C261   C     0.33278   0.62383   0.25141   0.00000  Uiso   1.00
C262   C     0.00055   0.37617   0.24859   0.00000  Uiso   1.00
C263   C     0.18269   0.47379   0.27855   0.00000  Uiso   1.00
C264   C     0.15065   0.52620   0.22143   0.00000  Uiso   1.00
C265   C     0.13310   0.47453   0.27928   0.00000  Uiso   1.00
C266   C     0.20024   0.52548   0.22073   0.00000  Uiso   1.00
N267   N     0.11736   0.50001   0.24999   0.00000  Uiso   1.00
N268   N     0.21597   0.49999   0.25001   0.00000  Uiso   1.00
N269   N     0.19778   0.44338   0.30630   0.00000  Uiso   1.00
O270   O     0.18821   0.44851   0.34866   0.00000  Uiso   1.00
O271   O     0.20324   0.40606   0.29335   0.00000  Uiso   1.00
N272   N     0.13558   0.55654   0.19360   0.00000  Uiso   1.00
O273   O     0.14548   0.55145   0.15120   0.00000  Uiso   1.00
O274   O     0.12985   0.59384   0.20658   0.00000  Uiso   1.00
N275   N     0.09935   0.44962   0.31268   0.00000  Uiso   1.00
O276   O     0.08408   0.46304   0.35243   0.00000  Uiso   1.00
O277   O     0.09800   0.41025   0.30847   0.00000  Uiso   1.00
N278   N     0.23398   0.55043   0.18736   0.00000  Uiso   1.00
O279   O     0.24940   0.53699   0.14763   0.00000  Uiso   1.00
O280   O     0.23516   0.58981   0.19155   0.00000  Uiso   1.00
O281   O     0.37291   0.43989   0.25000   0.00000  Uiso   1.00
O282   O     0.62709   0.56011   0.25000   0.00000  Uiso   1.00
O283   O     0.62706   0.43988   0.25001   0.00000  Uiso   1.00
O284   O     0.37294   0.56012   0.25000   0.00000  Uiso   1.00
C285   C     0.33356   0.42081   0.24927   0.00000  Uiso   1.00
C286   C     0.66644   0.57919   0.25073   0.00000  Uiso   1.00
O287   O     0.35186   0.50001   0.31492   0.00000  Uiso   1.00
O288   O     0.64814   0.49999   0.18509   0.00000  Uiso   1.00
O289   O     0.60600   0.50000   0.31492   0.00000  Uiso   1.00
O290   O     0.39400   0.50000   0.18508   0.00000  Uiso   1.00
C291   C     0.63928   0.50164   0.33573   0.00000  Uiso   1.00
C292   C     0.36072   0.49836   0.16427   0.00000  Uiso   1.00
Cu293  Cu    0.38022   0.50001   0.25000   0.00000  Uiso   1.00
Cu294  Cu    0.61978   0.49999   0.25000   0.00000  Uiso   1.00
C295   C     0.62370   0.50602   0.38421   0.00000  Uiso   1.00
C296   C     0.37630   0.49392   0.11580   0.00000  Uiso   1.00
C297   C     0.64034   0.51934   0.45377   0.00000  Uiso   1.00
C298   C     0.35971   0.48043   0.04626   0.00000  Uiso   1.00
C299   C     0.65663   0.51472   0.40809   0.00000  Uiso   1.00
C300   C     0.34339   0.48514   0.09193   0.00000  Uiso   1.00
C301   C     0.57440   0.50341   0.40644   0.00000  Uiso   1.00
C302   C     0.42561   0.49653   0.09357   0.00000  Uiso   1.00
C303   C     0.55723   0.50502   0.45291   0.00000  Uiso   1.00
C304   C     0.44281   0.49478   0.04713   0.00000  Uiso   1.00
C305   C     0.59124   0.51370   0.47643   0.00000  Uiso   1.00
C306   C     0.40881   0.48604   0.02361   0.00000  Uiso   1.00
C307   C     0.50747   0.49850   0.47646   0.00000  Uiso   1.00
C308   C     0.49258   0.50124   0.02358   0.00000  Uiso   1.00
C309   C     0.52782   0.51102   0.04541   0.00000  Uiso   1.00
C310   C     0.47225   0.48864   0.45465   0.00000  Uiso   1.00
C311   C     0.57597   0.51713   0.02223   0.00000  Uiso   1.00
C312   C     0.42410   0.48252   0.47782   0.00000  Uiso   1.00
H313   H     0.60149   0.52461   0.04048   0.00000  Uiso   1.00
H314   H     0.39859   0.47498   0.45959   0.00000  Uiso   1.00
H315   H     0.45001   0.49898   0.11350   0.00000  Uiso   1.00
H316   H     0.54996   0.50110   0.38652   0.00000  Uiso   1.00
H317   H     0.63871   0.48074   0.10861   0.00000  Uiso   1.00
H318   H     0.36130   0.51913   0.39141   0.00000  Uiso   1.00
H319   H     0.66619   0.52725   0.47145   0.00000  Uiso   1.00
H320   H     0.33387   0.47246   0.02860   0.00000  Uiso   1.00
H321   H     0.51980   0.51441   0.08060   0.00000  Uiso   1.00
H322   H     0.48031   0.48514   0.41947   0.00000  Uiso   1.00
C323   C     0.62717   0.35486   0.24342   0.00000  Uiso   1.00
C324   C     0.37282   0.64514   0.25660   0.00000  Uiso   1.00
H325   H     0.59679   0.37088   0.23705   0.00000  Uiso   1.00
H326   H     0.40320   0.62912   0.26297   0.00000  Uiso   1.00
C327   C     0.62619   0.64566   0.24584   0.00000  Uiso   1.00
C328   C     0.37381   0.35434   0.25416   0.00000  Uiso   1.00
H329   H     0.59413   0.63009   0.24343   0.00000  Uiso   1.00
H330   H     0.40588   0.36991   0.25656   0.00000  Uiso   1.00
C331   C     0.66612   0.62383   0.25141   0.00000  Uiso   1.00
C332   C     0.33388   0.37617   0.24859   0.00000  Uiso   1.00
C333   C     0.51602   0.47379   0.27855   0.00000  Uiso   1.00
C334   C     0.48398   0.52620   0.22143   0.00000  Uiso   1.00
C335   C     0.46643   0.47453   0.27928   0.00000  Uiso   1.00
C336   C     0.53357   0.52548   0.22073   0.00000  Uiso   1.00
N337   N     0.45069   0.50001   0.24999   0.00000  Uiso   1.00
N338   N     0.54931   0.49999   0.25001   0.00000  Uiso   1.00
N339   N     0.53111   0.44338   0.30630   0.00000  Uiso   1.00
O340   O     0.52154   0.44851   0.34866   0.00000  Uiso   1.00
O341   O     0.53657   0.40606   0.29335   0.00000  Uiso   1.00
N342   N     0.46891   0.55654   0.19360   0.00000  Uiso   1.00
O343   O     0.47881   0.55145   0.15120   0.00000  Uiso   1.00
O344   O     0.46318   0.59384   0.20658   0.00000  Uiso   1.00
N345   N     0.43268   0.44962   0.31268   0.00000  Uiso   1.00
O346   O     0.41741   0.46304   0.35243   0.00000  Uiso   1.00
O347   O     0.43134   0.41025   0.30847   0.00000  Uiso   1.00
N348   N     0.56731   0.55043   0.18736   0.00000  Uiso   1.00
O349   O     0.58273   0.53699   0.14763   0.00000  Uiso   1.00
O350   O     0.56850   0.58981   0.19155   0.00000  Uiso   1.00
O351   O     0.70625   0.43989   0.25000   0.00000  Uiso   1.00
O352   O     0.96042   0.56011   0.25000   0.00000  Uiso   1.00
O353   O     0.96039   0.43988   0.25001   0.00000  Uiso   1.00
O354   O     0.70628   0.56012   0.25000   0.00000  Uiso   1.00
C355   C     0.66689   0.42081   0.24927   0.00000  Uiso   1.00
C356   C     0.99977   0.57919   0.25073   0.00000  Uiso   1.00
O357   O     0.68519   0.50001   0.31492   0.00000  Uiso   1.00
O358   O     0.98148   0.49999   0.18509   0.00000  Uiso   1.00
O359   O     0.93933   0.50000   0.31492   0.00000  Uiso   1.00
O360   O     0.72733   0.50000   0.18508   0.00000  Uiso   1.00
C361   C     0.97261   0.50164   0.33573   0.00000  Uiso   1.00
C362   C     0.69406   0.49836   0.16427   0.00000  Uiso   1.00
Cu363  Cu    0.71355   0.50001   0.25000   0.00000  Uiso   1.00
Cu364  Cu    0.95311   0.49999   0.25000   0.00000  Uiso   1.00
C365   C     0.95704   0.50602   0.38421   0.00000  Uiso   1.00
C366   C     0.70963   0.49392   0.11580   0.00000  Uiso   1.00
C367   C     0.97367   0.51934   0.45377   0.00000  Uiso   1.00
C368   C     0.69304   0.48043   0.04626   0.00000  Uiso   1.00
C369   C     0.98996   0.51472   0.40809   0.00000  Uiso   1.00
C370   C     0.67673   0.48514   0.09193   0.00000  Uiso   1.00
C371   C     0.90773   0.50341   0.40644   0.00000  Uiso   1.00
C372   C     0.75894   0.49653   0.09357   0.00000  Uiso   1.00
C373   C     0.89056   0.50502   0.45291   0.00000  Uiso   1.00
C374   C     0.77614   0.49478   0.04713   0.00000  Uiso   1.00
C375   C     0.92457   0.51370   0.47643   0.00000  Uiso   1.00
C376   C     0.74215   0.48604   0.02361   0.00000  Uiso   1.00
C377   C     0.84081   0.49850   0.47646   0.00000  Uiso   1.00
C378   C     0.82591   0.50124   0.02358   0.00000  Uiso   1.00
C379   C     0.86115   0.51102   0.04541   0.00000  Uiso   1.00
C380   C     0.80559   0.48864   0.45465   0.00000  Uiso   1.00
C381   C     0.90930   0.51713   0.02223   0.00000  Uiso   1.00
C382   C     0.75743   0.48252   0.47782   0.00000  Uiso   1.00
H383   H     0.93483   0.52461   0.04048   0.00000  Uiso   1.00
H384   H     0.73192   0.47498   0.45959   0.00000  Uiso   1.00
H385   H     0.78334   0.49898   0.11350   0.00000  Uiso   1.00
H386   H     0.88330   0.50110   0.38652   0.00000  Uiso   1.00
H387   H     0.97205   0.48074   0.10861   0.00000  Uiso   1.00
H388   H     0.69464   0.51913   0.39141   0.00000  Uiso   1.00
H389   H     0.99953   0.52725   0.47145   0.00000  Uiso   1.00
H390   H     0.66720   0.47246   0.02860   0.00000  Uiso   1.00
H391   H     0.85313   0.51441   0.08060   0.00000  Uiso   1.00
H392   H     0.81364   0.48514   0.41947   0.00000  Uiso   1.00
C393   C     0.96051   0.35486   0.24342   0.00000  Uiso   1.00
C394   C     0.70615   0.64514   0.25660   0.00000  Uiso   1.00
H395   H     0.93013   0.37088   0.23705   0.00000  Uiso   1.00
H396   H     0.73653   0.62912   0.26297   0.00000  Uiso   1.00
C397   C     0.95952   0.64566   0.24584   0.00000  Uiso   1.00
C398   C     0.70714   0.35434   0.25416   0.00000  Uiso   1.00
H399   H     0.92746   0.63009   0.24343   0.00000  Uiso   1.00
H400   H     0.73921   0.36991   0.25656   0.00000  Uiso   1.00
C401   C     0.99945   0.62383   0.25141   0.00000  Uiso   1.00
C402   C     0.66721   0.37617   0.24859   0.00000  Uiso   1.00
C403   C     0.84936   0.47379   0.27855   0.00000  Uiso   1.00
C404   C     0.81732   0.52620   0.22143   0.00000  Uiso   1.00
C405   C     0.79976   0.47453   0.27928   0.00000  Uiso   1.00
C406   C     0.86690   0.52548   0.22073   0.00000  Uiso   1.00
N407   N     0.78403   0.50001   0.24999   0.00000  Uiso   1.00
N408   N     0.88264   0.49999   0.25001   0.00000  Uiso   1.00
N409   N     0.86445   0.44338   0.30630   0.00000  Uiso   1.00
O410   O     0.85488   0.44851   0.34866   0.00000  Uiso   1.00
O411   O     0.86990   0.40606   0.29335   0.00000  Uiso   1.00
N412   N     0.80225   0.55654   0.19360   0.00000  Uiso   1.00
O413   O     0.81214   0.55145   0.15120   0.00000  Uiso   1.00
O414   O     0.79651   0.59384   0.20658   0.00000  Uiso   1.00
N415   N     0.76601   0.44962   0.31268   0.00000  Uiso   1.00
O416   O     0.75075   0.46304   0.35243   0.00000  Uiso   1.00
O417   O     0.76467   0.41025   0.30847   0.00000  Uiso   1.00
N418   N     0.90065   0.55043   0.18736   0.00000  Uiso   1.00
O419   O     0.91607   0.53699   0.14763   0.00000  Uiso   1.00
O420   O     0.90183   0.58981   0.19155   0.00000  Uiso   1.00
O421   O     0.03958   0.77322   0.25000   0.00000  Uiso   1.00
O422   O     0.29375   0.89345   0.25000   0.00000  Uiso   1.00
O423   O     0.29372   0.77321   0.25001   0.00000  Uiso   1.00
O424   O     0.03961   0.89346   0.25000   0.00000  Uiso   1.00
C425   C     0.00023   0.75415   0.24927   0.00000  Uiso   1.00
C426   C     0.33311   0.91252   0.25073   0.00000  Uiso   1.00
O427   O     0.01852   0.83334   0.31492   0.00000  Uiso   1.00
O428   O     0.31481   0.83332   0.18509   0.00000  Uiso   1.00
O429   O     0.27267   0.83333   0.31492   0.00000  Uiso   1.00
O430   O     0.06067   0.83333   0.18508   0.00000  Uiso   1.00
C431   C     0.30594   0.83497   0.33573   0.00000  Uiso   1.00
C432   C     0.02739   0.83169   0.16427   0.00000  Uiso   1.00
Cu433  Cu    0.04689   0.83334   0.25000   0.00000  Uiso   1.00
Cu434  Cu    0.28645   0.83333   0.25000   0.00000  Uiso   1.00
C435   C     0.29037   0.83935   0.38421   0.00000  Uiso   1.00
C436   C     0.04297   0.82726   0.11580   0.00000  Uiso   1.00
C437   C     0.30701   0.85267   0.45377   0.00000  Uiso   1.00
C438   C     0.02637   0.81376   0.04626   0.00000  Uiso   1.00
C439   C     0.32329   0.84805   0.40809   0.00000  Uiso   1.00
C440   C     0.01006   0.81848   0.09193   0.00000  Uiso   1.00
C441   C     0.24106   0.83675   0.40644   0.00000  Uiso   1.00
C442   C     0.09228   0.82986   0.09357   0.00000  Uiso   1.00
C443   C     0.22389   0.83836   0.45291   0.00000  Uiso   1.00
C444   C     0.10948   0.82811   0.04713   0.00000  Uiso   1.00
C445   C     0.25790   0.84704   0.47643   0.00000  Uiso   1.00
C446   C     0.07548   0.81937   0.02361   0.00000  Uiso   1.00
C447   C     0.17414   0.83183   0.47646   0.00000  Uiso   1.00
C448   C     0.15924   0.83458   0.02358   0.00000  Uiso   1.00
C449   C     0.19449   0.84435   0.04541   0.00000  Uiso   1.00
C450   C     0.13892   0.82197   0.45465   0.00000  Uiso   1.00
C451   C     0.24264   0.85047   0.02223   0.00000  Uiso   1.00
C452   C     0.09077   0.81586   0.47782   0.00000  Uiso   1.00
H453   H     0.26816   0.85795   0.04048   0.00000  Uiso   1.00
H454   H     0.06526   0.80832   0.45959   0.00000  Uiso   1.00
H455   H     0.11668   0.83231   0.11350   0.00000  Uiso   1.00
H456   H     0.21663   0.83444   0.38652   0.00000  Uiso   1.00
H457   H     0.30538   0.81407   0.10861   0.00000  Uiso   1.00
H458   H     0.02797   0.85247   0.39141   0.00000  Uiso   1.00
H459   H     0.33286   0.86058   0.47145   0.00000  Uiso   1.00
H460   H     0.00053   0.80579   0.02860   0.00000  Uiso   1.00
H461   H     0.18647   0.84775   0.08060   0.00000  Uiso   1.00
H462   H     0.14698   0.81847   0.41947   0.00000  Uiso   1.00
C463   C     0.29384   0.68819   0.24342   0.00000  Uiso   1.00
C464   C     0.03949   0.97847   0.25660   0.00000  Uiso   1.00
H465   H     0.26346   0.70421   0.23705   0.00000  Uiso   1.00
H466   H     0.06986   0.96246   0.26297   0.00000  Uiso   1.00
C467   C     0.29286   0.97899   0.24584   0.00000  Uiso   1.00
C468   C     0.04048   0.68768   0.25416   0.00000  Uiso   1.00
H469   H     0.26079   0.96342   0.24343   0.00000  Uiso   1.00
H470   H     0.07254   0.70324   0.25656   0.00000  Uiso   1.00
C471   C     0.33278   0.95717   0.25141   0.00000  Uiso   1.00
C472   C     0.00055   0.70950   0.24859   0.00000  Uiso   1.00
C473   C     0.18269   0.80712   0.27855   0.00000  Uiso   1.00
C474   C     0.15065   0.85953   0.22143   0.00000  Uiso   1.00
C475   C     0.13310   0.80786   0.27928   0.00000  Uiso   1.00
C476   C     0.20024   0.85881   0.22073   0.00000  Uiso   1.00
N477   N     0.11736   0.83334   0.24999   0.00000  Uiso   1.00
N478   N     0.21597   0.83332   0.25001   0.00000  Uiso   1.00
N479   N     0.19778   0.77671   0.30630   0.00000  Uiso   1.00
O480   O     0.18821   0.78184   0.34866   0.00000  Uiso   1.00
O481   O     0.20324   0.73939   0.29335   0.00000  Uiso   1.00
N482   N     0.13558   0.88987   0.19360   0.00000  Uiso   1.00
O483   O     0.14548   0.88479   0.15120   0.00000  Uiso   1.00
O484   O     0.12985   0.92717   0.20658   0.00000  Uiso   1.00
N485   N     0.09935   0.78295   0.31268   0.00000  Uiso   1.00
O486   O     0.08408   0.79638   0.35243   0.00000  Uiso   1.00
O487   O     0.09800   0.74358   0.30847   0.00000  Uiso   1.00
N488   N     0.23398   0.88376   0.18736   0.00000  Uiso   1.00
O489   O     0.24940   0.87033   0.14763   0.00000  Uiso   1.00
O490   O     0.23516   0.92314   0.19155   0.00000  Uiso   1.00
O491   O     0.37291   0.77322   0.25000   0.00000  Uiso   1.00
O492   O     0.62709   0.89345   0.25000   0.00000  Uiso   1.00
O493   O     0.62706   0.77321   0.25001   0.00000  Uiso   1.00
O494   O     0.37294   0.89346   0.25000   0.00000  Uiso   1.00
C495   C     0.33356   0.75415   0.24927   0.00000  Uiso   1.00
C496   C     0.66644   0.91252   0.25073   0.00000  Uiso   1.00
O497   O     0.35186   0.83334   0.31492   0.00000  Uiso   1.00
O498   O     0.64814   0.83332   0.18509   0.00000  Uiso   1.00
O499   O     0.60600   0.83333   0.31492   0.00000  Uiso   1.00
O500   O     0.39400   0.83333   0.18508   0.00000  Uiso   1.00
C501   C     0.63928   0.83497   0.33573   0.00000  Uiso   1.00
C502   C     0.36072   0.83169   0.16427   0.00000  Uiso   1.00
Cu503  Cu    0.38022   0.83334   0.25000   0.00000  Uiso   1.00
Cu504  Cu    0.61978   0.83333   0.25000   0.00000  Uiso   1.00
C505   C     0.62370   0.83935   0.38421   0.00000  Uiso   1.00
C506   C     0.37630   0.82726   0.11580   0.00000  Uiso   1.00
C507   C     0.64034   0.85267   0.45377   0.00000  Uiso   1.00
C508   C     0.35971   0.81376   0.04626   0.00000  Uiso   1.00
C509   C     0.65663   0.84805   0.40809   0.00000  Uiso   1.00
C510   C     0.34339   0.81848   0.09193   0.00000  Uiso   1.00
C511   C     0.57440   0.83675   0.40644   0.00000  Uiso   1.00
C512   C     0.42561   0.82986   0.09357   0.00000  Uiso   1.00
C513   C     0.55723   0.83836   0.45291   0.00000  Uiso   1.00
C514   C     0.44281   0.82811   0.04713   0.00000  Uiso   1.00
C515   C     0.59124   0.84704   0.47643   0.00000  Uiso   1.00
C516   C     0.40881   0.81937   0.02361   0.00000  Uiso   1.00
C517   C     0.50747   0.83183   0.47646   0.00000  Uiso   1.00
C518   C     0.49258   0.83458   0.02358   0.00000  Uiso   1.00
C519   C     0.52782   0.84435   0.04541   0.00000  Uiso   1.00
C520   C     0.47225   0.82197   0.45465   0.00000  Uiso   1.00
C521   C     0.57597   0.85047   0.02223   0.00000  Uiso   1.00
C522   C     0.42410   0.81586   0.47782   0.00000  Uiso   1.00
H523   H     0.60149   0.85795   0.04048   0.00000  Uiso   1.00
H524   H     0.39859   0.80832   0.45959   0.00000  Uiso   1.00
H525   H     0.45001   0.83231   0.11350   0.00000  Uiso   1.00
H526   H     0.54996   0.83444   0.38652   0.00000  Uiso   1.00
H527   H     0.63871   0.81407   0.10861   0.00000  Uiso   1.00
H528   H     0.36130   0.85247   0.39141   0.00000  Uiso   1.00
H529   H     0.66619   0.86058   0.47145   0.00000  Uiso   1.00
H530   H     0.33387   0.80579   0.02860   0.00000  Uiso   1.00
H531   H     0.51980   0.84775   0.08060   0.00000  Uiso   1.00
H532   H     0.48031   0.81847   0.41947   0.00000  Uiso   1.00
C533   C     0.62717   0.68819   0.24342   0.00000  Uiso   1.00
C534   C     0.37282   0.97847   0.25660   0.00000  Uiso   1.00
H535   H     0.59679   0.70421   0.23705   0.00000  Uiso   1.00
H536   H     0.40320   0.96246   0.26297   0.00000  Uiso   1.00
C537   C     0.62619   0.97899   0.24584   0.00000  Uiso   1.00
C538   C     0.37381   0.68768   0.25416   0.00000  Uiso   1.00
H539   H     0.59413   0.96342   0.24343   0.00000  Uiso   1.00
H540   H     0.40588   0.70324   0.25656   0.00000  Uiso   1.00
C541   C     0.66612   0.95717   0.25141   0.00000  Uiso   1.00
C542   C     0.33388   0.70950   0.24859   0.00000  Uiso   1.00
C543   C     0.51602   0.80712   0.27855   0.00000  Uiso   1.00
C544   C     0.48398   0.85953   0.22143   0.00000  Uiso   1.00
C545   C     0.46643   0.80786   0.27928   0.00000  Uiso   1.00
C546   C     0.53357   0.85881   0.22073   0.00000  Uiso   1.00
N547   N     0.45069   0.83334   0.24999   0.00000  Uiso   1.00
N548   N     0.54931   0.83332   0.25001   0.00000  Uiso   1.00
N549   N     0.53111   0.77671   0.30630   0.00000  Uiso   1.00
O550   O     0.52154   0.78184   0.34866   0.00000  Uiso   1.00
O551   O     0.53657   0.73939   0.29335   0.00000  Uiso   1.00
N552   N     0.46891   0.88987   0.19360   0.00000  Uiso   1.00
O553   O     0.47881   0.88479   0.15120   0.00000  Uiso   1.00
O554   O     0.46318   0.92717   0.20658   0.00000  Uiso   1.00
N555   N     0.43268   0.78295   0.31268   0.00000  Uiso   1.00
O556   O     0.41741   0.79638   0.35243   0.00000  Uiso   1.00
O557   O     0.43134   0.74358   0.30847   0.00000  Uiso   1.00
N558   N     0.56731   0.88376   0.18736   0.00000  Uiso   1.00
O559   O     0.58273   0.87033   0.14763   0.00000  Uiso   1.00
O560   O     0.56850   0.92314   0.19155   0.00000  Uiso   1.00
O561   O     0.70625   0.77322   0.25000   0.00000  Uiso   1.00
O562   O     0.96042   0.89345   0.25000   0.00000  Uiso   1.00
O563   O     0.96039   0.77321   0.25001   0.00000  Uiso   1.00
O564   O     0.70628   0.89346   0.25000   0.00000  Uiso   1.00
C565   C     0.66689   0.75415   0.24927   0.00000  Uiso   1.00
C566   C     0.99977   0.91252   0.25073   0.00000  Uiso   1.00
O567   O     0.68519   0.83334   0.31492   0.00000  Uiso   1.00
O568   O     0.98148   0.83332   0.18509   0.00000  Uiso   1.00
O569   O     0.93933   0.83333   0.31492   0.00000  Uiso   1.00
O570   O     0.72733   0.83333   0.18508   0.00000  Uiso   1.00
C571   C     0.97261   0.83497   0.33573   0.00000  Uiso   1.00
C572   C     0.69406   0.83169   0.16427   0.00000  Uiso   1.00
Cu573  Cu    0.71355   0.83334   0.25000   0.00000  Uiso   1.00
Cu574  Cu    0.95311   0.83333   0.25000   0.00000  Uiso   1.00
C575   C     0.95704   0.83935   0.38421   0.00000  Uiso   1.00
C576   C     0.70963   0.82726   0.11580   0.00000  Uiso   1.00
C577   C     0.97367   0.85267   0.45377   0.00000  Uiso   1.00
C578   C     0.69304   0.81376   0.04626   0.00000  Uiso   1.00
C579   C     0.98996   0.84805   0.40809   0.00000  Uiso   1.00
C580   C     0.67673   0.81848   0.09193   0.00000  Uiso   1.00
C581   C     0.90773   0.83675   0.40644   0.00000  Uiso   1.00
C582   C     0.75894   0.82986   0.09357   0.00000  Uiso   1.00
C583   C     0.89056   0.83836   0.45291   0.00000  Uiso   1.00
C584   C     0.77614   0.82811   0.04713   0.00000  Uiso   1.00
C585   C     0.92457   0.84704   0.47643   0.00000  Uiso   1.00
C586   C     0.74215   0.81937   0.02361   0.00000  Uiso   1.00
C587   C     0.84081   0.83183   0.47646   0.00000  Uiso   1.00
C588   C     0.82591   0.83458   0.02358   0.00000  Uiso   1.00
C589   C     0.86115   0.84435   0.04541   0.00000  Uiso   1.00
C590   C     0.80559   0.82197   0.45465   0.00000  Uiso   1.00
C591   C     0.90930   0.85047   0.02223   0.00000  Uiso   1.00
C592   C     0.75743   0.81586   0.47782   0.00000  Uiso   1.00
H593   H     0.93483   0.85795   0.04048   0.00000  Uiso   1.00
H594   H     0.73192   0.80832   0.45959   0.00000  Uiso   1.00
H595   H     0.78334   0.83231   0.11350   0.00000  Uiso   1.00
H596   H     0.88330   0.83444   0.38652   0.00000  Uiso   1.00
H597   H     0.97205   0.81407   0.10861   0.00000  Uiso   1.00
H598   H     0.69464   0.85247   0.39141   0.00000  Uiso   1.00
H599   H     0.99953   0.86058   0.47145   0.00000  Uiso   1.00
H600   H     0.66720   0.80579   0.02860   0.00000  Uiso   1.00
H601   H     0.85313   0.84775   0.08060   0.00000  Uiso   1.00
H602   H     0.81364   0.81847   0.41947   0.00000  Uiso   1.00
C603   C     0.96051   0.68819   0.24342   0.00000  Uiso   1.00
C604   C     0.70615   0.97847   0.25660   0.00000  Uiso   1.00
H605   H     0.93013   0.70421   0.23705   0.00000  Uiso   1.00
H606   H     0.73653   0.96246   0.26297   0.00000  Uiso   1.00
C607   C     0.95952   0.97899   0.24584   0.00000  Uiso   1.00
C608   C     0.70714   0.68768   0.25416   0.00000  Uiso   1.00
H609   H     0.92746   0.96342   0.24343   0.00000  Uiso   1.00
H610   H     0.73921   0.70324   0.25656   0.00000  Uiso   1.00
C611   C     0.99945   0.95717   0.25141   0.00000  Uiso   1.00
C612   C     0.66721   0.70950   0.24859   0.00000  Uiso   1.00
C613   C     0.84936   0.80712   0.27855   0.00000  Uiso   1.00
C614   C     0.81732   0.85953   0.22143   0.00000  Uiso   1.00
C615   C     0.79976   0.80786   0.27928   0.00000  Uiso   1.00
C616   C     0.86690   0.85881   0.22073   0.00000  Uiso   1.00
N617   N     0.78403   0.83334   0.24999   0.00000  Uiso   1.00
N618   N     0.88264   0.83332   0.25001   0.00000  Uiso   1.00
N619   N     0.86445   0.77671   0.30630   0.00000  Uiso   1.00
O620   O     0.85488   0.78184   0.34866   0.00000  Uiso   1.00
O621   O     0.86990   0.73939   0.29335   0.00000  Uiso   1.00
N622   N     0.80225   0.88987   0.19360   0.00000  Uiso   1.00
O623   O     0.81214   0.88479   0.15120   0.00000  Uiso   1.00
O624   O     0.79651   0.92717   0.20658   0.00000  Uiso   1.00
N625   N     0.76601   0.78295   0.31268   0.00000  Uiso   1.00
O626   O     0.75075   0.79638   0.35243   0.00000  Uiso   1.00
O627   O     0.76467   0.74358   0.30847   0.00000  Uiso   1.00
N628   N     0.90065   0.88376   0.18736   0.00000  Uiso   1.00
O629   O     0.91607   0.87033   0.14763   0.00000  Uiso   1.00
O630   O     0.90183   0.92314   0.19155   0.00000  Uiso   1.00
O631   O     0.03958   0.10655   0.75000   0.00000  Uiso   1.00
O632   O     0.29375   0.22678   0.75000   0.00000  Uiso   1.00
O633   O     0.29372   0.10654   0.75001   0.00000  Uiso   1.00
O634   O     0.03961   0.22679   0.75000   0.00000  Uiso   1.00
C635   C     0.00023   0.08748   0.74927   0.00000  Uiso   1.00
C636   C     0.33311   0.24585   0.75073   0.00000  Uiso   1.00
O637   O     0.01852   0.16668   0.81492   0.00000  Uiso   1.00
O638   O     0.31481   0.16666   0.68509   0.00000  Uiso   1.00
O639   O     0.27267   0.16667   0.81492   0.00000  Uiso   1.00
O640   O     0.06067   0.16667   0.68508   0.00000  Uiso   1.00
C641   C     0.30594   0.16830   0.83573   0.00000  Uiso   1.00
C642   C     0.02739   0.16503   0.66427   0.00000  Uiso   1.00
Cu643  Cu    0.04689   0.16667   0.75000   0.00000  Uiso   1.00
Cu644  Cu    0.28645   0.16666   0.75000   0.00000  Uiso   1.00
C645   C     0.29037   0.17268   0.88421   0.00000  Uiso   1.00
C646   C     0.04297   0.16059   0.61580   0.00000  Uiso   1.00
C647   C     0.30701   0.18600   0.95377   0.00000  Uiso   1.00
C648   C     0.02637   0.14709   0.54626   0.00000  Uiso   1.00
C649   C     0.32329   0.18138   0.90809   0.00000  Uiso   1.00
C650   C     0.01006   0.15181   0.59193   0.00000  Uiso   1.00
C651   C     0.24106   0.17008   0.90644   0.00000  Uiso   1.00
C652   C     0.09228   0.16320   0.59357   0.00000  Uiso   1.00
C653   C     0.22389   0.17169   0.95291   0.00000  Uiso   1.00
C654   C     0.10948   0.16144   0.54713   0.00000  Uiso   1.00
C655   C     0.25790   0.18037   0.97643   0.00000  Uiso   1.00
C656   C     0.07548   0.15270   0.52361   0.00000  Uiso   1.00
C657   C     0.17414   0.16517   0.97646   0.00000  Uiso   1.00
C658   C     0.15924   0.16791   0.52358   0.00000  Uiso   1.00
C659   C     0.19449   0.17769   0.54541   0.00000  Uiso   1.00
C660   C     0.13892   0.15530   0.95465   0.00000  Uiso   1.00
C661   C     0.24264   0.18380   0.52223   0.00000  Uiso   1.00
C662   C     0.09077   0.14919   0.97782   0.00000  Uiso   1.00
H663   H     0.26816   0.19128   0.54048   0.00000  Uiso   1.00
H664   H     0.06526   0.14165   0.95959   0.00000  Uiso   1.00
H665   H     0.11668   0.16565   0.61350   0.00000  Uiso   1.00
H666   H     0.21663   0.16777   0.88652   0.00000  Uiso   1.00
H667   H     0.30538   0.14740   0.60861   0.00000  Uiso   1.00
H668   H     0.02797   0.18580   0.89141   0.00000  Uiso   1.00
H669   H     0.33286   0.19391   0.97145   0.00000  Uiso   1.00
H670   H     0.00053   0.13913   0.52860   0.00000  Uiso   1.00
H671   H     0.18647   0.18108   0.58060   0.00000  Uiso   1.00
H672   H     0.14698   0.15180   0.91947   0.00000  Uiso   1.00
C673   C     0.29384   0.02153   0.74342   0.00000  Uiso   1.00
C674   C     0.03949   0.31181   0.75660   0.00000  Uiso   1.00
H675   H     0.26346   0.03755   0.73705   0.00000  Uiso   1.00
H676   H     0.06986   0.29579   0.76297   0.00000  Uiso   1.00
C677   C     0.29286   0.31232   0.74584   0.00000  Uiso   1.00
C678   C     0.04048   0.02101   0.75416   0.00000  Uiso   1.00
H679   H     0.26079   0.29675   0.74343   0.00000  Uiso   1.00
H680   H     0.07254   0.03658   0.75656   0.00000  Uiso   1.00
C681   C     0.33278   0.29050   0.75141   0.00000  Uiso   1.00
C682   C     0.00055   0.04283   0.74859   0.00000  Uiso   1.00
C683   C     0.18269   0.14045   0.77855   0.00000  Uiso   1.00
C684   C     0.15065   0.19286   0.72143   0.00000  Uiso   1.00
C685   C     0.13310   0.14119   0.77928   0.00000  Uiso   1.00
C686   C     0.20024   0.19214   0.72073   0.00000  Uiso   1.00
N687   N     0.11736   0.16668   0.74999   0.00000  Uiso   1.00
N688   N     0.21597   0.16666   0.75001   0.00000  Uiso   1.00
N689   N     0.19778   0.11005   0.80630   0.00000  Uiso   1.00
O690   O     0.18821   0.11517   0.84866   0.00000  Uiso   1.00
O691   O     0.20324   0.07273   0.79335   0.00000  Uiso   1.00
N692   N     0.13558   0.22321   0.69360   0.00000  Uiso   1.00
O693   O     0.14548   0.21812   0.65120   0.00000  Uiso   1.00
O694   O     0.12985   0.26051   0.70658   0.00000  Uiso   1.00
N695   N     0.09935   0.11628   0.81268   0.00000  Uiso   1.00
O696   O     0.08408   0.12971   0.85243   0.00000  Uiso   1.00
O697   O     0.09800   0.07692   0.80847   0.00000  Uiso   1.00
N698   N     0.23398   0.21710   0.68736   0.00000  Uiso   1.00
O699   O     0.24940   0.20366   0.64763   0.00000  Uiso   1.00
O700   O     0.23516   0.25648   0.69155   0.00000  Uiso   1.00
O701   O     0.37291   0.10655   0.75000   0.00000  Uiso   1.00
O702   O     0.62709   0.22678   0.75000   0.00000  Uiso   1.00
O703   O     0.62706   0.10654   0.75001   0.00000  Uiso   1.00
O704   O     0.37294   0.22679   0.75000   0.00000  Uiso   1.00
C705   C     0.33356   0.08748   0.74927   0.00000  Uiso   1.00
C706   C     0.66644   0.24585   0.75073   0.00000  Uiso   1.00
O707   O     0.35186   0.16668   0.81492   0.00000  Uiso   1.00
O708   O     0.64814   0.16666   0.68509   0.00000  Uiso   1.00
O709   O     0.60600   0.16667   0.81492   0.00000  Uiso   1.00
O710   O     0.39400   0.16667   0.68508   0.00000  Uiso   1.00
C711   C     0.63928   0.16830   0.83573   0.00000  Uiso   1.00
C712   C     0.36072   0.16503   0.66427   0.00000  Uiso   1.00
Cu713  Cu    0.38022   0.16667   0.75000   0.00000  Uiso   1.00
Cu714  Cu    0.61978   0.16666   0.75000   0.00000  Uiso   1.00
C715   C     0.62370   0.17268   0.88421   0.00000  Uiso   1.00
C716   C     0.37630   0.16059   0.61580   0.00000  Uiso   1.00
C717   C     0.64034   0.18600   0.95377   0.00000  Uiso   1.00
C718   C     0.35971   0.14709   0.54626   0.00000  Uiso   1.00
C719   C     0.65663   0.18138   0.90809   0.00000  Uiso   1.00
C720   C     0.34339   0.15181   0.59193   0.00000  Uiso   1.00
C721   C     0.57440   0.17008   0.90644   0.00000  Uiso   1.00
C722   C     0.42561   0.16320   0.59357   0.00000  Uiso   1.00
C723   C     0.55723   0.17169   0.95291   0.00000  Uiso   1.00
C724   C     0.44281   0.16144   0.54713   0.00000  Uiso   1.00
C725   C     0.59124   0.18037   0.97643   0.00000  Uiso   1.00
C726   C     0.40881   0.15270   0.52361   0.00000  Uiso   1.00
C727   C     0.50747   0.16517   0.97646   0.00000  Uiso   1.00
C728   C     0.49258   0.16791   0.52358   0.00000  Uiso   1.00
C729   C     0.52782   0.17769   0.54541   0.00000  Uiso   1.00
C730   C     0.47225   0.15530   0.95465   0.00000  Uiso   1.00
C731   C     0.57597   0.18380   0.52223   0.00000  Uiso   1.00
C732   C     0.42410   0.14919   0.97782   0.00000  Uiso   1.00
H733   H     0.60149   0.19128   0.54048   0.00000  Uiso   1.00
H734   H     0.39859   0.14165   0.95959   0.00000  Uiso   1.00
H735   H     0.45001   0.16565   0.61350   0.00000  Uiso   1.00
H736   H     0.54996   0.16777   0.88652   0.00000  Uiso   1.00
H737   H     0.63871   0.14740   0.60861   0.00000  Uiso   1.00
H738   H     0.36130   0.18580   0.89141   0.00000  Uiso   1.00
H739   H     0.66619   0.19391   0.97145   0.00000  Uiso   1.00
H740   H     0.33387   0.13913   0.52860   0.00000  Uiso   1.00
H741   H     0.51980   0.18108   0.58060   0.00000  Uiso   1.00
H742   H     0.48031   0.15180   0.91947   0.00000  Uiso   1.00
C743   C     0.62717   0.02153   0.74342   0.00000  Uiso   1.00
C744   C     0.37282   0.31181   0.75660   0.00000  Uiso   1.00
H745   H     0.59679   0.03755   0.73705   0.00000  Uiso   1.00
H746   H     0.40320   0.29579   0.76297   0.00000  Uiso   1.00
C747   C     0.62619   0.31232   0.74584   0.00000  Uiso   1.00
C748   C     0.37381   0.02101   0.75416   0.00000  Uiso   1.00
H749   H     0.59413   0.29675   0.74343   0.00000  Uiso   1.00
H750   H     0.40588   0.03658   0.75656   0.00000  Uiso   1.00
C751   C     0.66612   0.29050   0.75141   0.00000  Uiso   1.00
C752   C     0.33388   0.04283   0.74859   0.00000  Uiso   1.00
C753   C     0.51602   0.14045   0.77855   0.00000  Uiso   1.00
C754   C     0.48398   0.19286   0.72143   0.00000  Uiso   1.00
C755   C     0.46643   0.14119   0.77928   0.00000  Uiso   1.00
C756   C     0.53357   0.19214   0.72073   0.00000  Uiso   1.00
N757   N     0.45069   0.16668   0.74999   0.00000  Uiso   1.00
N758   N     0.54931   0.16666   0.75001   0.00000  Uiso   1.00
N759   N     0.53111   0.11005   0.80630   0.00000  Uiso   1.00
O760   O     0.52154   0.11517   0.84866   0.00000  Uiso   1.00
O761   O     0.53657   0.07273   0.79335   0.00000  Uiso   1.00
N762   N     0.46891   0.22321   0.69360   0.00000  Uiso   1.00
O763   O     0.47881   0.21812   0.65120   0.00000  Uiso   1.00
O764   O     0.46318   0.26051   0.70658   0.00000  Uiso   1.00
N765   N     0.43268   0.11628   0.81268   0.00000  Uiso   1.00
O766   O     0.41741   0.12971   0.85243   0.00000  Uiso   1.00
O767   O     0.43134   0.07692   0.80847   0.00000  Uiso   1.00
N768   N     0.56731   0.21710   0.68736   0.00000  Uiso   1.00
O769   O     0.58273   0.20366   0.64763   0.00000  Uiso   1.00
O770   O     0.56850   0.25648   0.69155   0.00000  Uiso   1.00
O771   O     0.70625   0.10655   0.75000   0.00000  Uiso   1.00
O772   O     0.96042   0.22678   0.75000   0.00000  Uiso   1.00
O773   O     0.96039   0.10654   0.75001   0.00000  Uiso   1.00
O774   O     0.70628   0.22679   0.75000   0.00000  Uiso   1.00
C775   C     0.66689   0.08748   0.74927   0.00000  Uiso   1.00
C776   C     0.99977   0.24585   0.75073   0.00000  Uiso   1.00
O777   O     0.68519   0.16668   0.81492   0.00000  Uiso   1.00
O778   O     0.98148   0.16666   0.68509   0.00000  Uiso   1.00
O779   O     0.93933   0.16667   0.81492   0.00000  Uiso   1.00
O780   O     0.72733   0.16667   0.68508   0.00000  Uiso   1.00
C781   C     0.97261   0.16830   0.83573   0.00000  Uiso   1.00
C782   C     0.69406   0.16503   0.66427   0.00000  Uiso   1.00
Cu783  Cu    0.71355   0.16667   0.75000   0.00000  Uiso   1.00
Cu784  Cu    0.95311   0.16666   0.75000   0.00000  Uiso   1.00
C785   C     0.95704   0.17268   0.88421   0.00000  Uiso   1.00
C786   C     0.70963   0.16059   0.61580   0.00000  Uiso   1.00
C787   C     0.97367   0.18600   0.95377   0.00000  Uiso   1.00
C788   C     0.69304   0.14709   0.54626   0.00000  Uiso   1.00
C789   C     0.98996   0.18138   0.90809   0.00000  Uiso   1.00
C790   C     0.67673   0.15181   0.59193   0.00000  Uiso   1.00
C791   C     0.90773   0.17008   0.90644   0.00000  Uiso   1.00
C792   C     0.75894   0.16320   0.59357   0.00000  Uiso   1.00
C793   C     0.89056   0.17169   0.95291   0.00000  Uiso   1.00
C794   C     0.77614   0.16144   0.54713   0.00000  Uiso   1.00
C795   C     0.92457   0.18037   0.97643   0.00000  Uiso   1.00
C796   C     0.74215   0.15270   0.52361   0.00000  Uiso   1.00
C797   C     0.84081   0.16517   0.97646   0.00000  Uiso   1.00
C798   C     0.82591   0.16791   0.52358   0.00000  Uiso   1.00
C799   C     0.86115   0.17769   0.54541   0.00000  Uiso   1.00
C800   C     0.80559   0.15530   0.95465   0.00000  Uiso   1.00
C801   C     0.90930   0.18380   0.52223   0.00000  Uiso   1.00
C802   C     0.75743   0.14919   0.97782   0.00000  Uiso   1.00
H803   H     0.93483   0.19128   0.54048   0.00000  Uiso   1.00
H804   H     0.73192   0.14165   0.95959   0.00000  Uiso   1.00
H805   H     0.78334   0.16565   0.61350   0.00000  Uiso   1.00
H806   H     0.88330   0.16777   0.88652   0.00000  Uiso   1.00
H807   H     0.97205   0.14740   0.60861   0.00000  Uiso   1.00
H808   H     0.69464   0.18580   0.89141   0.00000  Uiso   1.00
H809   H     0.99953   0.19391   0.97145   0.00000  Uiso   1.00
H810   H     0.66720   0.13913   0.52860   0.00000  Uiso   1.00
H811   H     0.85313   0.18108   0.58060   0.00000  Uiso   1.00
H812   H     0.81364   0.15180   0.91947   0.00000  Uiso   1.00
C813   C     0.96051   0.02153   0.74342   0.00000  Uiso   1.00
C814   C     0.70615   0.31181   0.75660   0.00000  Uiso   1.00
H815   H     0.93013   0.03755   0.73705   0.00000  Uiso   1.00
H816   H     0.73653   0.29579   0.76297   0.00000  Uiso   1.00
C817   C     0.95952   0.31232   0.74584   0.00000  Uiso   1.00
C818   C     0.70714   0.02101   0.75416   0.00000  Uiso   1.00
H819   H     0.92746   0.29675   0.74343   0.00000  Uiso   1.00
H820   H     0.73921   0.03658   0.75656   0.00000  Uiso   1.00
C821   C     0.99945   0.29050   0.75141   0.00000  Uiso   1.00
C822   C     0.66721   0.04283   0.74859   0.00000  Uiso   1.00
C823   C     0.84936   0.14045   0.77855   0.00000  Uiso   1.00
C824   C     0.81732   0.19286   0.72143   0.00000  Uiso   1.00
C825   C     0.79976   0.14119   0.77928   0.00000  Uiso   1.00
C826   C     0.86690   0.19214   0.72073   0.00000  Uiso   1.00
N827   N     0.78403   0.16668   0.74999   0.00000  Uiso   1.00
N828   N     0.88264   0.16666   0.75001   0.00000  Uiso   1.00
N829   N     0.86445   0.11005   0.80630   0.00000  Uiso   1.00
O830   O     0.85488   0.11517   0.84866   0.00000  Uiso   1.00
O831   O     0.86990   0.07273   0.79335   0.00000  Uiso   1.00
N832   N     0.80225   0.22321   0.69360   0.00000  Uiso   1.00
O833   O     0.81214   0.21812   0.65120   0.00000  Uiso   1.00
O834   O     0.79651   0.26051   0.70658   0.00000  Uiso   1.00
N835   N     0.76601   0.11628   0.81268   0.00000  Uiso   1.00
O836   O     0.75075   0.12971   0.85243   0.00000  Uiso   1.00
O837   O     0.76467   0.07692   0.80847   0.00000  Uiso   1.00
N838   N     0.90065   0.21710   0.68736   0.00000  Uiso   1.00
O839   O     0.91607   0.20366   0.64763   0.00000  Uiso   1.00
O840   O     0.90183   0.25648   0.69155   0.00000  Uiso   1.00
O841   O     0.03958   0.43989   0.75000   0.00000  Uiso   1.00
O842   O     0.29375   0.56011   0.75000   0.00000  Uiso   1.00
O843   O     0.29372   0.43988   0.75001   0.00000  Uiso   1.00
O844   O     0.03961   0.56012   0.75000   0.00000  Uiso   1.00
C845   C     0.00023   0.42081   0.74927   0.00000  Uiso   1.00
C846   C     0.33311   0.57919   0.75073   0.00000  Uiso   1.00
O847   O     0.01852   0.50001   0.81492   0.00000  Uiso   1.00
O848   O     0.31481   0.49999   0.68509   0.00000  Uiso   1.00
O849   O     0.27267   0.50000   0.81492   0.00000  Uiso   1.00
O850   O     0.06067   0.50000   0.68508   0.00000  Uiso   1.00
C851   C     0.30594   0.50164   0.83573   0.00000  Uiso   1.00
C852   C     0.02739   0.49836   0.66427   0.00000  Uiso   1.00
Cu853  Cu    0.04689   0.50001   0.75000   0.00000  Uiso   1.00
Cu854  Cu    0.28645   0.49999   0.75000   0.00000  Uiso   1.00
C855   C     0.29037   0.50602   0.88421   0.00000  Uiso   1.00
C856   C     0.04297   0.49392   0.61580   0.00000  Uiso   1.00
C857   C     0.30701   0.51934   0.95377   0.00000  Uiso   1.00
C858   C     0.02637   0.48043   0.54626   0.00000  Uiso   1.00
C859   C     0.32329   0.51472   0.90809   0.00000  Uiso   1.00
C860   C     0.01006   0.48514   0.59193   0.00000  Uiso   1.00
C861   C     0.24106   0.50341   0.90644   0.00000  Uiso   1.00
C862   C     0.09228   0.49653   0.59357   0.00000  Uiso   1.00
C863   C     0.22389   0.50502   0.95291   0.00000  Uiso   1.00
C864   C     0.10948   0.49478   0.54713   0.00000  Uiso   1.00
C865   C     0.25790   0.51370   0.97643   0.00000  Uiso   1.00
C866   C     0.07548   0.48604   0.52361   0.00000  Uiso   1.00
C867   C     0.17414   0.49850   0.97646   0.00000  Uiso   1.00
C868   C     0.15924   0.50124   0.52358   0.00000  Uiso   1.00
C869   C     0.19449   0.51102   0.54541   0.00000  Uiso   1.00
C870   C     0.13892   0.48864   0.95465   0.00000  Uiso   1.00
C871   C     0.24264   0.51713   0.52223   0.00000  Uiso   1.00
C872   C     0.09077   0.48252   0.97782   0.00000  Uiso   1.00
H873   H     0.26816   0.52461   0.54048   0.00000  Uiso   1.00
H874   H     0.06526   0.47498   0.95959   0.00000  Uiso   1.00
H875   H     0.11668   0.49898   0.61350   0.00000  Uiso   1.00
H876   H     0.21663   0.50110   0.88652   0.00000  Uiso   1.00
H877   H     0.30538   0.48074   0.60861   0.00000  Uiso   1.00
H878   H     0.02797   0.51913   0.89141   0.00000  Uiso   1.00
H879   H     0.33286   0.52725   0.97145   0.00000  Uiso   1.00
H880   H     0.00053   0.47246   0.52860   0.00000  Uiso   1.00
H881   H     0.18647   0.51441   0.58060   0.00000  Uiso   1.00
H882   H     0.14698   0.48514   0.91947   0.00000  Uiso   1.00
C883   C     0.29384   0.35486   0.74342   0.00000  Uiso   1.00
C884   C     0.03949   0.64514   0.75660   0.00000  Uiso   1.00
H885   H     0.26346   0.37088   0.73705   0.00000  Uiso   1.00
H886   H     0.06986   0.62912   0.76297   0.00000  Uiso   1.00
C887   C     0.29286   0.64566   0.74584   0.00000  Uiso   1.00
C888   C     0.04048   0.35434   0.75416   0.00000  Uiso   1.00
H889   H     0.26079   0.63009   0.74343   0.00000  Uiso   1.00
H890   H     0.07254   0.36991   0.75656   0.00000  Uiso   1.00
C891   C     0.33278   0.62383   0.75141   0.00000  Uiso   1.00
C892   C     0.00055   0.37617   0.74859   0.00000  Uiso   1.00
C893   C     0.18269   0.47379   0.77855   0.00000  Uiso   1.00
C894   C     0.15065   0.52620   0.72143   0.00000  Uiso   1.00
C895   C     0.13310   0.47453   0.77928   0.00000  Uiso   1.00
C896   C     0.20024   0.52548   0.72073   0.00000  Uiso   1.00
N897   N     0.11736   0.50001   0.74999   0.00000  Uiso   1.00
N898   N     0.21597   0.49999   0.75001   0.00000  Uiso   1.00
N899   N     0.19778   0.44338   0.80630   0.00000  Uiso   1.00
O900   O     0.18821   0.44851   0.84866   0.00000  Uiso   1.00
O901   O     0.20324   0.40606   0.79335   0.00000  Uiso   1.00
N902   N     0.13558   0.55654   0.69360   0.00000  Uiso   1.00
O903   O     0.14548   0.55145   0.65120   0.00000  Uiso   1.00
O904   O     0.12985   0.59384   0.70658   0.00000  Uiso   1.00
N905   N     0.09935   0.44962   0.81268   0.00000  Uiso   1.00
O906   O     0.08408   0.46304   0.85243   0.00000  Uiso   1.00
O907   O     0.09800   0.41025   0.80847   0.00000  Uiso   1.00
N908   N     0.23398   0.55043   0.68736   0.00000  Uiso   1.00
O909   O     0.24940   0.53699   0.64763   0.00000  Uiso   1.00
O910   O     0.23516   0.58981   0.69155   0.00000  Uiso   1.00
O911   O     0.37291   0.43989   0.75000   0.00000  Uiso   1.00
O912   O     0.62709   0.56011   0.75000   0.00000  Uiso   1.00
O913   O     0.62706   0.43988   0.75001   0.00000  Uiso   1.00
O914   O     0.37294   0.56012   0.75000   0.00000  Uiso   1.00
C915   C     0.33356   0.42081   0.74927   0.00000  Uiso   1.00
C916   C     0.66644   0.57919   0.75073   0.00000  Uiso   1.00
O917   O     0.35186   0.50001   0.81492   0.00000  Uiso   1.00
O918   O     0.64814   0.49999   0.68509   0.00000  Uiso   1.00
O919   O     0.60600   0.50000   0.81492   0.00000  Uiso   1.00
O920   O     0.39400   0.50000   0.68508   0.00000  Uiso   1.00
C921   C     0.63928   0.50164   0.83573   0.00000  Uiso   1.00
C922   C     0.36072   0.49836   0.66427   0.00000  Uiso   1.00
Cu923  Cu    0.38022   0.50001   0.75000   0.00000  Uiso   1.00
Cu924  Cu    0.61978   0.49999   0.75000   0.00000  Uiso   1.00
C925   C     0.62370   0.50602   0.88421   0.00000  Uiso   1.00
C926   C     0.37630   0.49392   0.61580   0.00000  Uiso   1.00
C927   C     0.64034   0.51934   0.95377   0.00000  Uiso   1.00
C928   C     0.35971   0.48043   0.54626   0.00000  Uiso   1.00
C929   C     0.65663   0.51472   0.90809   0.00000  Uiso   1.00
C930   C     0.34339   0.48514   0.59193   0.00000  Uiso   1.00
C931   C     0.57440   0.50341   0.90644   0.00000  Uiso   1.00
C932   C     0.42561   0.49653   0.59357   0.00000  Uiso   1.00
C933   C     0.55723   0.50502   0.95291   0.00000  Uiso   1.00
C934   C     0.44281   0.49478   0.54713   0.00000  Uiso   1.00
C935   C     0.59124   0.51370   0.97643   0.00000  Uiso   1.00
C936   C     0.40881   0.48604   0.52361   0.00000  Uiso   1.00
C937   C     0.50747   0.49850   0.97646   0.00000  Uiso   1.00
C938   C     0.49258   0.50124   0.52358   0.00000  Uiso   1.00
C939   C     0.52782   0.51102   0.54541   0.00000  Uiso   1.00
C940   C     0.47225   0.48864   0.95465   0.00000  Uiso   1.00
C941   C     0.57597   0.51713   0.52223   0.00000  Uiso   1.00
C942   C     0.42410   0.48252   0.97782   0.00000  Uiso   1.00
H943   H     0.60149   0.52461   0.54048   0.00000  Uiso   1.00
H944   H     0.39859   0.47498   0.95959   0.00000  Uiso   1.00
H945   H     0.45001   0.49898   0.61350   0.00000  Uiso   1.00
H946   H     0.54996   0.50110   0.88652   0.00000  Uiso   1.00
H947   H     0.63871   0.48074   0.60861   0.00000  Uiso   1.00
H948   H     0.36130   0.51913   0.89141   0.00000  Uiso   1.00
H949   H     0.66619   0.52725   0.97145   0.00000  Uiso   1.00
H950   H     0.33387   0.47246   0.52860   0.00000  Uiso   1.00
H951   H     0.51980   0.51441   0.58060   0.00000  Uiso   1.00
H952   H     0.48031   0.48514   0.91947   0.00000  Uiso   1.00
C953   C     0.62717   0.35486   0.74342   0.00000  Uiso   1.00
C954   C     0.37282   0.64514   0.75660   0.00000  Uiso   1.00
H955   H     0.59679   0.37088   0.73705   0.00000  Uiso   1.00
H956   H     0.40320   0.62912   0.76297   0.00000  Uiso   1.00
C957   C     0.62619   0.64566   0.74584   0.00000  Uiso   1.00
C958   C     0.37381   0.35434   0.75416   0.00000  Uiso   1.00
H959   H     0.59413   0.63009   0.74343   0.00000  Uiso   1.00
H960   H     0.40588   0.36991   0.75656   0.00000  Uiso   1.00
C961   C     0.66612   0.62383   0.75141   0.00000  Uiso   1.00
C962   C     0.33388   0.37617   0.74859   0.00000  Uiso   1.00
C963   C     0.51602   0.47379   0.77855   0.00000  Uiso   1.00
C964   C     0.48398   0.52620   0.72143   0.00000  Uiso   1.00
C965   C     0.46643   0.47453   0.77928   0.00000  Uiso   1.00
C966   C     0.53357   0.52548   0.72073   0.00000  Uiso   1.00
N967   N     0.45069   0.50001   0.74999   0.00000  Uiso   1.00
N968   N     0.54931   0.49999   0.75001   0.00000  Uiso   1.00
N969   N     0.53111   0.44338   0.80630   0.00000  Uiso   1.00
O970   O     0.52154   0.44851   0.84866   0.00000  Uiso   1.00
O971   O     0.53657   0.40606   0.79335   0.00000  Uiso   1.00
N972   N     0.46891   0.55654   0.69360   0.00000  Uiso   1.00
O973   O     0.47881   0.55145   0.65120   0.00000  Uiso   1.00
O974   O     0.46318   0.59384   0.70658   0.00000  Uiso   1.00
N975   N     0.43268   0.44962   0.81268   0.00000  Uiso   1.00
O976   O     0.41741   0.46304   0.85243   0.00000  Uiso   1.00
O977   O     0.43134   0.41025   0.80847   0.00000  Uiso   1.00
N978   N     0.56731   0.55043   0.68736   0.00000  Uiso   1.00
O979   O     0.58273   0.53699   0.64763   0.00000  Uiso   1.00
O980   O     0.56850   0.58981   0.69155   0.00000  Uiso   1.00
O981   O     0.70625   0.43989   0.75000   0.00000  Uiso   1.00
O982   O     0.96042   0.56011   0.75000   0.00000  Uiso   1.00
O983   O     0.96039   0.43988   0.75001   0.00000  Uiso   1.00
O984   O     0.70628   0.56012   0.75000   0.00000  Uiso   1.00
C985   C     0.66689   0.42081   0.74927   0.00000  Uiso   1.00
C986   C     0.99977   0.57919   0.75073   0.00000  Uiso   1.00
O987   O     0.68519   0.50001   0.81492   0.00000  Uiso   1.00
O988   O     0.98148   0.49999   0.68509   0.00000  Uiso   1.00
O989   O     0.93933   0.50000   0.81492   0.00000  Uiso   1.00
O990   O     0.72733   0.50000   0.68508   0.00000  Uiso   1.00
C991   C     0.97261   0.50164   0.83573   0.00000  Uiso   1.00
C992   C     0.69406   0.49836   0.66427   0.00000  Uiso   1.00
Cu993  Cu    0.71355   0.50001   0.75000   0.00000  Uiso   1.00
Cu994  Cu    0.95311   0.49999   0.75000   0.00000  Uiso   1.00
C995   C     0.95704   0.50602   0.88421   0.00000  Uiso   1.00
C996   C     0.70963   0.49392   0.61580   0.00000  Uiso   1.00
C997   C     0.97367   0.51934   0.95377   0.00000  Uiso   1.00
C998   C     0.69304   0.48043   0.54626   0.00000  Uiso   1.00
C999   C     0.98996   0.51472   0.90809   0.00000  Uiso   1.00
C1000  C     0.67673   0.48514   0.59193   0.00000  Uiso   1.00
C1001  C     0.90773   0.50341   0.90644   0.00000  Uiso   1.00
C1002  C     0.75894   0.49653   0.59357   0.00000  Uiso   1.00
C1003  C     0.89056   0.50502   0.95291   0.00000  Uiso   1.00
C1004  C     0.77614   0.49478   0.54713   0.00000  Uiso   1.00
C1005  C     0.92457   0.51370   0.97643   0.00000  Uiso   1.00
C1006  C     0.74215   0.48604   0.52361   0.00000  Uiso   1.00
C1007  C     0.84081   0.49850   0.97646   0.00000  Uiso   1.00
C1008  C     0.82591   0.50124   0.52358   0.00000  Uiso   1.00
C1009  C     0.86115   0.51102   0.54541   0.00000  Uiso   1.00
C1010  C     0.80559   0.48864   0.95465   0.00000  Uiso   1.00
C1011  C     0.90930   0.51713   0.52223   0.00000  Uiso   1.00
C1012  C     0.75743   0.48252   0.97782   0.00000  Uiso   1.00
H1013  H     0.93483   0.52461   0.54048   0.00000  Uiso   1.00
H1014  H     0.73192   0.47498   0.95959   0.00000  Uiso   1.00
H1015  H     0.78334   0.49898   0.61350   0.00000  Uiso   1.00
H1016  H     0.88330   0.50110   0.88652   0.00000  Uiso   1.00
H1017  H     0.97205   0.48074   0.60861   0.00000  Uiso   1.00
H1018  H     0.69464   0.51913   0.89141   0.00000  Uiso   1.00
H1019  H     0.99953   0.52725   0.97145   0.00000  Uiso   1.00
H1020  H     0.66720   0.47246   0.52860   0.00000  Uiso   1.00
H1021  H     0.85313   0.51441   0.58060   0.00000  Uiso   1.00
H1022  H     0.81364   0.48514   0.91947   0.00000  Uiso   1.00
C1023  C     0.96051   0.35486   0.74342   0.00000  Uiso   1.00
C1024  C     0.70615   0.64514   0.75660   0.00000  Uiso   1.00
H1025  H     0.93013   0.37088   0.73705   0.00000  Uiso   1.00
H1026  H     0.73653   0.62912   0.76297   0.00000  Uiso   1.00
C1027  C     0.95952   0.64566   0.74584   0.00000  Uiso   1.00
C1028  C     0.70714   0.35434   0.75416   0.00000  Uiso   1.00
H1029  H     0.92746   0.63009   0.74343   0.00000  Uiso   1.00
H1030  H     0.73921   0.36991   0.75656   0.00000  Uiso   1.00
C1031  C     0.99945   0.62383   0.75141   0.00000  Uiso   1.00
C1032  C     0.66721   0.37617   0.74859   0.00000  Uiso   1.00
C1033  C     0.84936   0.47379   0.77855   0.00000  Uiso   1.00
C1034  C     0.81732   0.52620   0.72143   0.00000  Uiso   1.00
C1035  C     0.79976   0.47453   0.77928   0.00000  Uiso   1.00
C1036  C     0.86690   0.52548   0.72073   0.00000  Uiso   1.00
N1037  N     0.78403   0.50001   0.74999   0.00000  Uiso   1.00
N1038  N     0.88264   0.49999   0.75001   0.00000  Uiso   1.00
N1039  N     0.86445   0.44338   0.80630   0.00000  Uiso   1.00
O1040  O     0.85488   0.44851   0.84866   0.00000  Uiso   1.00
O1041  O     0.86990   0.40606   0.79335   0.00000  Uiso   1.00
N1042  N     0.80225   0.55654   0.69360   0.00000  Uiso   1.00
O1043  O     0.81214   0.55145   0.65120   0.00000  Uiso   1.00
O1044  O     0.79651   0.59384   0.70658   0.00000  Uiso   1.00
N1045  N     0.76601   0.44962   0.81268   0.00000  Uiso   1.00
O1046  O     0.75075   0.46304   0.85243   0.00000  Uiso   1.00
O1047  O     0.76467   0.41025   0.80847   0.00000  Uiso   1.00
N1048  N     0.90065   0.55043   0.68736   0.00000  Uiso   1.00
O1049  O     0.91607   0.53699   0.64763   0.00000  Uiso   1.00
O1050  O     0.90183   0.58981   0.69155   0.00000  Uiso   1.00
O1051  O     0.03958   0.77322   0.75000   0.00000  Uiso   1.00
O1052  O     0.29375   0.89345   0.75000   0.00000  Uiso   1.00
O1053  O     0.29372   0.77321   0.75001   0.00000  Uiso   1.00
O1054  O     0.03961   0.89346   0.75000   0.00000  Uiso   1.00
C1055  C     0.00023   0.75415   0.74927   0.00000  Uiso   1.00
C1056  C     0.33311   0.91252   0.75073   0.00000  Uiso   1.00
O1057  O     0.01852   0.83334   0.81492   0.00000  Uiso   1.00
O1058  O     0.31481   0.83332   0.68509   0.00000  Uiso   1.00
O1059  O     0.27267   0.83333   0.81492   0.00000  Uiso   1.00
O1060  O     0.06067   0.83333   0.68508   0.00000  Uiso   1.00
C1061  C     0.30594   0.83497   0.83573   0.00000  Uiso   1.00
C1062  C     0.02739   0.83169   0.66427   0.00000  Uiso   1.00
Cu1063 Cu    0.04689   0.83334   0.75000   0.00000  Uiso   1.00
Cu1064 Cu    0.28645   0.83333   0.75000   0.00000  Uiso   1.00
C1065  C     0.29037   0.83935   0.88421   0.00000  Uiso   1.00
C1066  C     0.04297   0.82726   0.61580   0.00000  Uiso   1.00
C1067  C     0.30701   0.85267   0.95377   0.00000  Uiso   1.00
C1068  C     0.02637   0.81376   0.54626   0.00000  Uiso   1.00
C1069  C     0.32329   0.84805   0.90809   0.00000  Uiso   1.00
C1070  C     0.01006   0.81848   0.59193   0.00000  Uiso   1.00
C1071  C     0.24106   0.83675   0.90644   0.00000  Uiso   1.00
C1072  C     0.09228   0.82986   0.59357   0.00000  Uiso   1.00
C1073  C     0.22389   0.83836   0.95291   0.00000  Uiso   1.00
C1074  C     0.10948   0.82811   0.54713   0.00000  Uiso   1.00
C1075  C     0.25790   0.84704   0.97643   0.00000  Uiso   1.00
C1076  C     0.07548   0.81937   0.52361   0.00000  Uiso   1.00
C1077  C     0.17414   0.83183   0.97646   0.00000  Uiso   1.00
C1078  C     0.15924   0.83458   0.52358   0.00000  Uiso   1.00
C1079  C     0.19449   0.84435   0.54541   0.00000  Uiso   1.00
C1080  C     0.13892   0.82197   0.95465   0.00000  Uiso   1.00
C1081  C     0.24264   0.85047   0.52223   0.00000  Uiso   1.00
C1082  C     0.09077   0.81586   0.97782   0.00000  Uiso   1.00
H1083  H     0.26816   0.85795   0.54048   0.00000  Uiso   1.00
H1084  H     0.06526   0.80832   0.95959   0.00000  Uiso   1.00
H1085  H     0.11668   0.83231   0.61350   0.00000  Uiso   1.00
H1086  H     0.21663   0.83444   0.88652   0.00000  Uiso   1.00
H1087  H     0.30538   0.81407   0.60861   0.00000  Uiso   1.00
H1088  H     0.02797   0.85247   0.89141   0.00000  Uiso   1.00
H1089  H     0.33286   0.86058   0.97145   0.00000  Uiso   1.00
H1090  H     0.00053   0.80579   0.52860   0.00000  Uiso   1.00
H1091  H     0.18647   0.84775   0.58060   0.00000  Uiso   1.00
H1092  H     0.14698   0.81847   0.91947   0.00000  Uiso   1.00
C1093  C     0.29384   0.68819   0.74342   0.00000  Uiso   1.00
C1094  C     0.03949   0.97847   0.75660   0.00000  Uiso   1.00
H1095  H     0.26346   0.70421   0.73705   0.00000  Uiso   1.00
H1096  H     0.06986   0.96246   0.76297   0.00000  Uiso   1.00
C1097  C     0.29286   0.97899   0.74584   0.00000  Uiso   1.00
C1098  C     0.04048   0.68768   0.75416   0.00000  Uiso   1.00
H1099  H     0.26079   0.96342   0.74343   0.00000  Uiso   1.00
H1100  H     0.07254   0.70324   0.75656   0.00000  Uiso   1.00
C1101  C     0.33278   0.95717   0.75141   0.00000  Uiso   1.00
C1102  C     0.00055   0.70950   0.74859   0.00000  Uiso   1.00
C1103  C     0.18269   0.80712   0.77855   0.00000  Uiso   1.00
C1104  C     0.15065   0.85953   0.72143   0.00000  Uiso   1.00
C1105  C     0.13310   0.80786   0.77928   0.00000  Uiso   1.00
C1106  C     0.20024   0.85881   0.72073   0.00000  Uiso   1.00
N1107  N     0.11736   0.83334   0.74999   0.00000  Uiso   1.00
N1108  N     0.21597   0.83332   0.75001   0.00000  Uiso   1.00
N1109  N     0.19778   0.77671   0.80630   0.00000  Uiso   1.00
O1110  O     0.18821   0.78184   0.84866   0.00000  Uiso   1.00
O1111  O     0.20324   0.73939   0.79335   0.00000  Uiso   1.00
N1112  N     0.13558   0.88987   0.69360   0.00000  Uiso   1.00
O1113  O     0.14548   0.88479   0.65120   0.00000  Uiso   1.00
O1114  O     0.12985   0.92717   0.70658   0.00000  Uiso   1.00
N1115  N     0.09935   0.78295   0.81268   0.00000  Uiso   1.00
O1116  O     0.08408   0.79638   0.85243   0.00000  Uiso   1.00
O1117  O     0.09800   0.74358   0.80847   0.00000  Uiso   1.00
N1118  N     0.23398   0.88376   0.68736   0.00000  Uiso   1.00
O1119  O     0.24940   0.87033   0.64763   0.00000  Uiso   1.00
O1120  O     0.23516   0.92314   0.69155   0.00000  Uiso   1.00
O1121  O     0.37291   0.77322   0.75000   0.00000  Uiso   1.00
O1122  O     0.62709   0.89345   0.75000   0.00000  Uiso   1.00
O1123  O     0.62706   0.77321   0.75001   0.00000  Uiso   1.00
O1124  O     0.37294   0.89346   0.75000   0.00000  Uiso   1.00
C1125  C     0.33356   0.75415   0.74927   0.00000  Uiso   1.00
C1126  C     0.66644   0.91252   0.75073   0.00000  Uiso   1.00
O1127  O     0.35186   0.83334   0.81492   0.00000  Uiso   1.00
O1128  O     0.64814   0.83332   0.68509   0.00000  Uiso   1.00
O1129  O     0.60600   0.83333   0.81492   0.00000  Uiso   1.00
O1130  O     0.39400   0.83333   0.68508   0.00000  Uiso   1.00
C1131  C     0.63928   0.83497   0.83573   0.00000  Uiso   1.00
C1132  C     0.36072   0.83169   0.66427   0.00000  Uiso   1.00
Cu1133 Cu    0.38022   0.83334   0.75000   0.00000  Uiso   1.00
Cu1134 Cu    0.61978   0.83333   0.75000   0.00000  Uiso   1.00
C1135  C     0.62370   0.83935   0.88421   0.00000  Uiso   1.00
C1136  C     0.37630   0.82726   0.61580   0.00000  Uiso   1.00
C1137  C     0.64034   0.85267   0.95377   0.00000  Uiso   1.00
C1138  C     0.35971   0.81376   0.54626   0.00000  Uiso   1.00
C1139  C     0.65663   0.84805   0.90809   0.00000  Uiso   1.00
C1140  C     0.34339   0.81848   0.59193   0.00000  Uiso   1.00
C1141  C     0.57440   0.83675   0.90644   0.00000  Uiso   1.00
C1142  C     0.42561   0.82986   0.59357   0.00000  Uiso   1.00
C1143  C     0.55723   0.83836   0.95291   0.00000  Uiso   1.00
C1144  C     0.44281   0.82811   0.54713   0.00000  Uiso   1.00
C1145  C     0.59124   0.84704   0.97643   0.00000  Uiso   1.00
C1146  C     0.40881   0.81937   0.52361   0.00000  Uiso   1.00
C1147  C     0.50747   0.83183   0.97646   0.00000  Uiso   1.00
C1148  C     0.49258   0.83458   0.52358   0.00000  Uiso   1.00
C1149  C     0.52782   0.84435   0.54541   0.00000  Uiso   1.00
C1150  C     0.47225   0.82197   0.95465   0.00000  Uiso   1.00
C1151  C     0.57597   0.85047   0.52223   0.00000  Uiso   1.00
C1152  C     0.42410   0.81586   0.97782   0.00000  Uiso   1.00
H1153  H     0.60149   0.85795   0.54048   0.00000  Uiso   1.00
H1154  H     0.39859   0.80832   0.95959   0.00000  Uiso   1.00
H1155  H     0.45001   0.83231   0.61350   0.00000  Uiso   1.00
H1156  H     0.54996   0.83444   0.88652   0.00000  Uiso   1.00
H1157  H     0.63871   0.81407   0.60861   0.00000  Uiso   1.00
H1158  H     0.36130   0.85247   0.89141   0.00000  Uiso   1.00
H1159  H     0.66619   0.86058   0.97145   0.00000  Uiso   1.00
H1160  H     0.33387   0.80579   0.52860   0.00000  Uiso   1.00
H1161  H     0.51980   0.84775   0.58060   0.00000  Uiso   1.00
H1162  H     0.48031   0.81847   0.91947   0.00000  Uiso   1.00
C1163  C     0.62717   0.68819   0.74342   0.00000  Uiso   1.00
C1164  C     0.37282   0.97847   0.75660   0.00000  Uiso   1.00
H1165  H     0.59679   0.70421   0.73705   0.00000  Uiso   1.00
H1166  H     0.40320   0.96246   0.76297   0.00000  Uiso   1.00
C1167  C     0.62619   0.97899   0.74584   0.00000  Uiso   1.00
C1168  C     0.37381   0.68768   0.75416   0.00000  Uiso   1.00
H1169  H     0.59413   0.96342   0.74343   0.00000  Uiso   1.00
H1170  H     0.40588   0.70324   0.75656   0.00000  Uiso   1.00
C1171  C     0.66612   0.95717   0.75141   0.00000  Uiso   1.00
C1172  C     0.33388   0.70950   0.74859   0.00000  Uiso   1.00
C1173  C     0.51602   0.80712   0.77855   0.00000  Uiso   1.00
C1174  C     0.48398   0.85953   0.72143   0.00000  Uiso   1.00
C1175  C     0.46643   0.80786   0.77928   0.00000  Uiso   1.00
C1176  C     0.53357   0.85881   0.72073   0.00000  Uiso   1.00
N1177  N     0.45069   0.83334   0.74999   0.00000  Uiso   1.00
N1178  N     0.54931   0.83332   0.75001   0.00000  Uiso   1.00
N1179  N     0.53111   0.77671   0.80630   0.00000  Uiso   1.00
O1180  O     0.52154   0.78184   0.84866   0.00000  Uiso   1.00
O1181  O     0.53657   0.73939   0.79335   0.00000  Uiso   1.00
N1182  N     0.46891   0.88987   0.69360   0.00000  Uiso   1.00
O1183  O     0.47881   0.88479   0.65120   0.00000  Uiso   1.00
O1184  O     0.46318   0.92717   0.70658   0.00000  Uiso   1.00
N1185  N     0.43268   0.78295   0.81268   0.00000  Uiso   1.00
O1186  O     0.41741   0.79638   0.85243   0.00000  Uiso   1.00
O1187  O     0.43134   0.74358   0.80847   0.00000  Uiso   1.00
N1188  N     0.56731   0.88376   0.68736   0.00000  Uiso   1.00
O1189  O     0.58273   0.87033   0.64763   0.00000  Uiso   1.00
O1190  O     0.56850   0.92314   0.69155   0.00000  Uiso   1.00
O1191  O     0.70625   0.77322   0.75000   0.00000  Uiso   1.00
O1192  O     0.96042   0.89345   0.75000   0.00000  Uiso   1.00
O1193  O     0.96039   0.77321   0.75001   0.00000  Uiso   1.00
O1194  O     0.70628   0.89346   0.75000   0.00000  Uiso   1.00
C1195  C     0.66689   0.75415   0.74927   0.00000  Uiso   1.00
C1196  C     0.99977   0.91252   0.75073   0.00000  Uiso   1.00
O1197  O     0.68519   0.83334   0.81492   0.00000  Uiso   1.00
O1198  O     0.98148   0.83332   0.68509   0.00000  Uiso   1.00
O1199  O     0.93933   0.83333   0.81492   0.00000  Uiso   1.00
O1200  O     0.72733   0.83333   0.68508   0.00000  Uiso   1.00
C1201  C     0.97261   0.83497   0.83573   0.00000  Uiso   1.00
C1202  C     0.69406   0.83169   0.66427   0.00000  Uiso   1.00
Cu1203 Cu    0.71355   0.83334   0.75000   0.00000  Uiso   1.00
Cu1204 Cu    0.95311   0.83333   0.75000   0.00000  Uiso   1.00
C1205  C     0.95704   0.83935   0.88421   0.00000  Uiso   1.00
C1206  C     0.70963   0.82726   0.61580   0.00000  Uiso   1.00
C1207  C     0.97367   0.85267   0.95377   0.00000  Uiso   1.00
C1208  C     0.69304   0.81376   0.54626   0.00000  Uiso   1.00
C1209  C     0.98996   0.84805   0.90809   0.00000  Uiso   1.00
C1210  C     0.67673   0.81848   0.59193   0.00000  Uiso   1.00
C1211  C     0.90773   0.83675   0.90644   0.00000  Uiso   1.00
C1212  C     0.75894   0.82986   0.59357   0.00000  Uiso   1.00
C1213  C     0.89056   0.83836   0.95291   0.00000  Uiso   1.00
C1214  C     0.77614   0.82811   0.54713   0.00000  Uiso   1.00
C1215  C     0.92457   0.84704   0.97643   0.00000  Uiso   1.00
C1216  C     0.74215   0.81937   0.52361   0.00000  Uiso   1.00
C1217  C     0.84081   0.83183   0.97646   0.00000  Uiso   1.00
C1218  C     0.82591   0.83458   0.52358   0.00000  Uiso   1.00
C1219  C     0.86115   0.84435   0.54541   0.00000  Uiso   1.00
C1220  C     0.80559   0.82197   0.95465   0.00000  Uiso   1.00
C1221  C     0.90930   0.85047   0.52223   0.00000  Uiso   1.00
C1222  C     0.75743   0.81586   0.97782   0.00000  Uiso   1.00
H1223  H     0.93483   0.85795   0.54048   0.00000  Uiso   1.00
H1224  H     0.73192   0.80832   0.95959   0.00000  Uiso   1.00
H1225  H     0.78334   0.83231   0.61350   0.00000  Uiso   1.00
H1226  H     0.88330   0.83444   0.88652   0.00000  Uiso   1.00
H1227  H     0.97205   0.81407   0.60861   0.00000  Uiso   1.00
H1228  H     0.69464   0.85247   0.89141   0.00000  Uiso   1.00
H1229  H     0.99953   0.86058   0.97145   0.00000  Uiso   1.00
H1230  H     0.66720   0.80579   0.52860   0.00000  Uiso   1.00
H1231  H     0.85313   0.84775   0.58060   0.00000  Uiso   1.00
H1232  H     0.81364   0.81847   0.91947   0.00000  Uiso   1.00
C1233  C     0.96051   0.68819   0.74342   0.00000  Uiso   1.00
C1234  C     0.70615   0.97847   0.75660   0.00000  Uiso   1.00
H1235  H     0.93013   0.70421   0.73705   0.00000  Uiso   1.00
H1236  H     0.73653   0.96246   0.76297   0.00000  Uiso   1.00
C1237  C     0.95952   0.97899   0.74584   0.00000  Uiso   1.00
C1238  C     0.70714   0.68768   0.75416   0.00000  Uiso   1.00
H1239  H     0.92746   0.96342   0.74343   0.00000  Uiso   1.00
H1240  H     0.73921   0.70324   0.75656   0.00000  Uiso   1.00
C1241  C     0.99945   0.95717   0.75141   0.00000  Uiso   1.00
C1242  C     0.66721   0.70950   0.74859   0.00000  Uiso   1.00
C1243  C     0.84936   0.80712   0.77855   0.00000  Uiso   1.00
C1244  C     0.81732   0.85953   0.72143   0.00000  Uiso   1.00
C1245  C     0.79976   0.80786   0.77928   0.00000  Uiso   1.00
C1246  C     0.86690   0.85881   0.72073   0.00000  Uiso   1.00
N1247  N     0.78403   0.83334   0.74999   0.00000  Uiso   1.00
N1248  N     0.88264   0.83332   0.75001   0.00000  Uiso   1.00
N1249  N     0.86445   0.77671   0.80630   0.00000  Uiso   1.00
O1250  O     0.85488   0.78184   0.84866   0.00000  Uiso   1.00
O1251  O     0.86990   0.73939   0.79335   0.00000  Uiso   1.00
N1252  N     0.80225   0.88987   0.69360   0.00000  Uiso   1.00
O1253  O     0.81214   0.88479   0.65120   0.00000  Uiso   1.00
O1254  O     0.79651   0.92717   0.70658   0.00000  Uiso   1.00
N1255  N     0.76601   0.78295   0.81268   0.00000  Uiso   1.00
O1256  O     0.75075   0.79638   0.85243   0.00000  Uiso   1.00
O1257  O     0.76467   0.74358   0.80847   0.00000  Uiso   1.00
N1258  N     0.90065   0.88376   0.68736   0.00000  Uiso   1.00
O1259  O     0.91607   0.87033   0.64763   0.00000  Uiso   1.00
O1260  O     0.90183   0.92314   0.69155   0.00000  Uiso   1.00
loop_
_geom_bond_atom_site_label_1
_geom_bond_atom_site_label_2
_geom_bond_distance
_geom_bond_site_symmetry_2
_ccdc_geom_bond_type
O1     C5      1.300   .     A
O1     Cu13    1.970   .     S
O2     C6      1.300   .     A
O2     Cu14    1.970   .     S
O3     Cu14    1.970   .     S
O3     C75     1.302   .     S
O4     Cu13    1.970   .     S
O4     C146    1.302   1_455 S
C5     C52     1.456   .     S
C5     O143    1.302   1_455 S
C6     C51     1.456   .     S
C6     O74     1.302   .     S
O7     Cu13    1.969   .     S
O7     C151    1.306   1_455 S
O8     Cu14    1.969   .     S
O8     C82     1.306   .     S
O9     Cu14    1.959   .     S
O9     C11     1.303   .     A
O10    C12     1.303   .     A
O10    Cu13    1.959   .     S
C11    C15     1.473   .     S
C11    O77     1.306   .     S
C12    C16     1.473   .     S
C12    O148    1.306   1_455 S
Cu13   N57     2.032   .     S
Cu13   Cu154   2.704   1_455 S
Cu14   N58     2.032   .     S
Cu14   Cu83    2.704   .     S
C15    C19     1.399   .     A
C15    C21     1.399   .     A
C16    C20     1.399   .     A
C16    C22     1.399   .     A
C17    C25     1.404   .     A
C17    C19     1.393   .     A
C17    H39     1.083   .     S
C18    C26     1.404   .     A
C18    C20     1.393   .     A
C18    H40     1.083   .     S
C19    H108    1.081   .     S
C20    H177    1.081   1_455 S
C21    C23     1.404   .     A
C21    H36     1.067   .     S
C22    H35     1.067   .     S
C22    C24     1.404   .     A
C23    C27     1.430   .     A
C23    C25     1.417   .     A
C24    C26     1.417   .     A
C24    C28     1.430   .     A
C25    C661    1.389   .     S
C26    C662    1.389   1_554 S
C27    C30     1.417   .     A
C27    C658    1.425   .     S
C28    C29     1.417   .     A
C28    C657    1.425   1_554 S
C29    C31     1.386   .     A
C29    H41     1.073   .     S
C30    C32     1.386   .     A
C30    H42     1.073   .     S
C31    H33     1.084   .     S
C31    C655    1.389   1_554 S
C32    H34     1.084   .     S
C32    C656    1.389   .     S
H37    C90     1.081   .     S
H38    C159    1.081   1_455 S
C43    H45     1.080   .     S
C43    C467    1.384   1_545 S
C43    C122    1.399   .     S
C44    H46     1.080   .     S
C44    C258    1.384   .     S
C44    C191    1.399   1_455 S
C47    H49     1.077   .     S
C47    C51     1.400   .     A
C47    C253    1.384   .     S
C48    H50     1.077   .     S
C48    C52     1.400   .     A
C48    C464    1.384   1_545 S
C51    C114    1.399   .     S
C52    C183    1.399   1_455 S
C53    N58     1.374   .     A
C53    N59     1.428   .     S
C53    C55     1.424   .     A
C54    C56     1.424   .     A
C54    N62     1.428   .     S
C54    N57     1.374   .     A
C55    N57     1.372   .     A
C55    N65     1.428   .     S
C56    N68     1.428   .     S
C56    N58     1.372   .     A
N59    O60     1.297   .     A
N59    O61     1.299   .     A
N62    O63     1.298   .     A
N62    O64     1.299   .     A
N65    O66     1.300   .     A
N65    O67     1.298   .     A
N68    O70     1.298   .     A
N68    O69     1.300   .     A
O71    C75     1.300   .     A
O71    Cu83    1.970   .     S
O72    C76     1.300   .     A
O72    Cu84    1.970   .     S
O73    Cu84    1.970   .     S
O73    C145    1.302   .     S
O74    Cu83    1.970   .     S
C75    C122    1.456   .     S
C76    C121    1.456   .     S
C76    O144    1.302   .     S
O77    Cu83    1.969   .     S
O78    Cu84    1.969   .     S
O78    C152    1.306   .     S
O79    Cu84    1.959   .     S
O79    C81     1.303   .     A
O80    C82     1.303   .     A
O80    Cu83    1.959   .     S
C81    C85     1.473   .     S
C81    O147    1.306   .     S
C82    C86     1.473   .     S
Cu83   N127    2.032   .     S
Cu84   N128    2.032   .     S
Cu84   Cu153   2.704   .     S
C85    C89     1.399   .     A
C85    C91     1.399   .     A
C86    C90     1.399   .     A
C86    C92     1.399   .     A
C87    C95     1.404   .     A
C87    C89     1.393   .     A
C87    H109    1.083   .     S
C88    C96     1.404   .     A
C88    C90     1.393   .     A
C88    H110    1.083   .     S
C89    H178    1.081   .     S
C91    C93     1.404   .     A
C91    H106    1.067   .     S
C92    H105    1.067   .     S
C92    C94     1.404   .     A
C93    C97     1.430   .     A
C93    C95     1.417   .     A
C94    C96     1.417   .     A
C94    C98     1.430   .     A
C95    C731    1.389   .     S
C96    C732    1.389   1_554 S
C97    C100    1.417   .     A
C97    C728    1.425   .     S
C98    C99     1.417   .     A
C98    C727    1.425   1_554 S
C99    C101    1.386   .     A
C99    H111    1.073   .     S
C100   C102    1.386   .     A
C100   H112    1.073   .     S
C101   H103    1.084   .     S
C101   C725    1.389   1_554 S
C102   H104    1.084   .     S
C102   C726    1.389   .     S
H107   C160    1.081   .     S
C113   H115    1.080   .     S
C113   C537    1.384   1_545 S
C113   C192    1.399   .     S
C114   H116    1.080   .     S
C114   C328    1.384   .     S
C117   H119    1.077   .     S
C117   C121    1.400   .     A
C117   C323    1.384   .     S
C118   H120    1.077   .     S
C118   C122    1.400   .     A
C118   C534    1.384   1_545 S
C121   C184    1.399   .     S
C123   N128    1.374   .     A
C123   N129    1.428   .     S
C123   C125    1.424   .     A
C124   C126    1.424   .     A
C124   N132    1.428   .     S
C124   N127    1.374   .     A
C125   N127    1.372   .     A
C125   N135    1.428   .     S
C126   N138    1.428   .     S
C126   N128    1.372   .     A
N129   O130    1.297   .     A
N129   O131    1.299   .     A
N132   O133    1.298   .     A
N132   O134    1.299   .     A
N135   O136    1.300   .     A
N135   O137    1.298   .     A
N138   O140    1.298   .     A
N138   O139    1.300   .     A
O141   C145    1.300   .     A
O141   Cu153   1.970   .     S
O142   C146    1.300   .     A
O142   Cu154   1.970   .     S
O143   Cu154   1.970   .     S
O143   C5      1.302   1_655 S
O144   Cu153   1.970   .     S
C145   C192    1.456   .     S
C146   C191    1.456   .     S
C146   O4      1.302   1_655 S
O147   Cu153   1.969   .     S
O148   Cu154   1.969   .     S
O148   C12     1.306   1_655 S
O149   Cu154   1.959   .     S
O149   C151    1.303   .     A
O150   C152    1.303   .     A
O150   Cu153   1.959   .     S
C151   C155    1.473   .     S
C151   O7      1.306   1_655 S
C152   C156    1.473   .     S
Cu153  N197    2.032   .     S
Cu154  N198    2.032   .     S
Cu154  Cu13    2.704   1_655 S
C155   C159    1.399   .     A
C155   C161    1.399   .     A
C156   C160    1.399   .     A
C156   C162    1.399   .     A
C157   C165    1.404   .     A
C157   C159    1.393   .     A
C157   H179    1.083   .     S
C158   C166    1.404   .     A
C158   C160    1.393   .     A
C158   H180    1.083   .     S
C159   H38     1.081   1_655 S
C161   C163    1.404   .     A
C161   H176    1.067   .     S
C162   H175    1.067   .     S
C162   C164    1.404   .     A
C163   C167    1.430   .     A
C163   C165    1.417   .     A
C164   C166    1.417   .     A
C164   C168    1.430   .     A
C165   C801    1.389   .     S
C166   C802    1.389   1_554 S
C167   C170    1.417   .     A
C167   C798    1.425   .     S
C168   C169    1.417   .     A
C168   C797    1.425   1_554 S
C169   C171    1.386   .     A
C169   H181    1.073   .     S
C170   C172    1.386   .     A
C170   H182    1.073   .     S
C171   H173    1.084   .     S
C171   C795    1.389   1_554 S
C172   H174    1.084   .     S
C172   C796    1.389   .     S
H177   C20     1.081   1_655 S
C183   H185    1.080   .     S
C183   C607    1.384   1_545 S
C183   C52     1.399   1_655 S
C184   H186    1.080   .     S
C184   C398    1.384   .     S
C187   H189    1.077   .     S
C187   C191    1.400   .     A
C187   C393    1.384   .     S
C188   H190    1.077   .     S
C188   C192    1.400   .     A
C188   C604    1.384   1_545 S
C191   C44     1.399   1_655 S
C193   N198    1.374   .     A
C193   N199    1.428   .     S
C193   C195    1.424   .     A
C194   C196    1.424   .     A
C194   N202    1.428   .     S
C194   N197    1.374   .     A
C195   N197    1.372   .     A
C195   N205    1.428   .     S
C196   N208    1.428   .     S
C196   N198    1.372   .     A
N199   O200    1.297   .     A
N199   O201    1.299   .     A
N202   O203    1.298   .     A
N202   O204    1.299   .     A
N205   O206    1.300   .     A
N205   O207    1.298   .     A
N208   O210    1.298   .     A
N208   O209    1.300   .     A
O211   C215    1.300   .     A
O211   Cu223   1.970   .     S
O212   C216    1.300   .     A
O212   Cu224   1.970   .     S
O213   Cu224   1.970   .     S
O213   C285    1.302   .     S
O214   Cu223   1.970   .     S
O214   C356    1.302   1_455 S
C215   C262    1.456   .     S
C215   O353    1.302   1_455 S
C216   C261    1.456   .     S
C216   O284    1.302   .     S
O217   Cu223   1.969   .     S
O217   C361    1.306   1_455 S
O218   Cu224   1.969   .     S
O218   C292    1.306   .     S
O219   Cu224   1.959   .     S
O219   C221    1.303   .     A
O220   C222    1.303   .     A
O220   Cu223   1.959   .     S
C221   C225    1.473   .     S
C221   O287    1.306   .     S
C222   C226    1.473   .     S
C222   O358    1.306   1_455 S
Cu223  N267    2.032   .     S
Cu223  Cu364   2.704   1_455 S
Cu224  N268    2.032   .     S
Cu224  Cu293   2.704   .     S
C225   C229    1.399   .     A
C225   C231    1.399   .     A
C226   C230    1.399   .     A
C226   C232    1.399   .     A
C227   C235    1.404   .     A
C227   C229    1.393   .     A
C227   H249    1.083   .     S
C228   C236    1.404   .     A
C228   C230    1.393   .     A
C228   H250    1.083   .     S
C229   H318    1.081   .     S
C230   H387    1.081   1_455 S
C231   C233    1.404   .     A
C231   H246    1.067   .     S
C232   H245    1.067   .     S
C232   C234    1.404   .     A
C233   C237    1.430   .     A
C233   C235    1.417   .     A
C234   C236    1.417   .     A
C234   C238    1.430   .     A
C235   C871    1.389   .     S
C236   C872    1.389   1_554 S
C237   C240    1.417   .     A
C237   C868    1.425   .     S
C238   C239    1.417   .     A
C238   C867    1.425   1_554 S
C239   C241    1.386   .     A
C239   H251    1.073   .     S
C240   C242    1.386   .     A
C240   H252    1.073   .     S
C241   H243    1.084   .     S
C241   C865    1.389   1_554 S
C242   H244    1.084   .     S
C242   C866    1.389   .     S
H247   C300    1.081   .     S
H248   C369    1.081   1_455 S
C253   H255    1.080   .     S
C253   C332    1.399   .     S
C254   H256    1.080   .     S
C254   C468    1.384   .     S
C254   C401    1.399   1_455 S
C257   H259    1.077   .     S
C257   C261    1.400   .     A
C257   C463    1.384   .     S
C258   H260    1.077   .     S
C258   C262    1.400   .     A
C261   C324    1.399   .     S
C262   C393    1.399   1_455 S
C263   N268    1.374   .     A
C263   N269    1.428   .     S
C263   C265    1.424   .     A
C264   C266    1.424   .     A
C264   N272    1.428   .     S
C264   N267    1.374   .     A
C265   N267    1.372   .     A
C265   N275    1.428   .     S
C266   N278    1.428   .     S
C266   N268    1.372   .     A
N269   O270    1.297   .     A
N269   O271    1.299   .     A
N272   O273    1.298   .     A
N272   O274    1.299   .     A
N275   O276    1.300   .     A
N275   O277    1.298   .     A
N278   O280    1.298   .     A
N278   O279    1.300   .     A
O281   C285    1.300   .     A
O281   Cu293   1.970   .     S
O282   C286    1.300   .     A
O282   Cu294   1.970   .     S
O283   Cu294   1.970   .     S
O283   C355    1.302   .     S
O284   Cu293   1.970   .     S
C285   C332    1.456   .     S
C286   C331    1.456   .     S
C286   O354    1.302   .     S
O287   Cu293   1.969   .     S
O288   Cu294   1.969   .     S
O288   C362    1.306   .     S
O289   Cu294   1.959   .     S
O289   C291    1.303   .     A
O290   C292    1.303   .     A
O290   Cu293   1.959   .     S
C291   C295    1.473   .     S
C291   O357    1.306   .     S
C292   C296    1.473   .     S
Cu293  N337    2.032   .     S
Cu294  N338    2.032   .     S
Cu294  Cu363   2.704   .     S
C295   C299    1.399   .     A
C295   C301    1.399   .     A
C296   C300    1.399   .     A
C296   C302    1.399   .     A
C297   C305    1.404   .     A
C297   C299    1.393   .     A
C297   H319    1.083   .     S
C298   C306    1.404   .     A
C298   C300    1.393   .     A
C298   H320    1.083   .     S
C299   H388    1.081   .     S
C301   C303    1.404   .     A
C301   H316    1.067   .     S
C302   H315    1.067   .     S
C302   C304    1.404   .     A
C303   C307    1.430   .     A
C303   C305    1.417   .     A
C304   C306    1.417   .     A
C304   C308    1.430   .     A
C305   C941    1.389   .     S
C306   C942    1.389   1_554 S
C307   C310    1.417   .     A
C307   C938    1.425   .     S
C308   C309    1.417   .     A
C308   C937    1.425   1_554 S
C309   C311    1.386   .     A
C309   H321    1.073   .     S
C310   C312    1.386   .     A
C310   H322    1.073   .     S
C311   H313    1.084   .     S
C311   C935    1.389   1_554 S
C312   H314    1.084   .     S
C312   C936    1.389   .     S
H317   C370    1.081   .     S
C323   H325    1.080   .     S
C323   C402    1.399   .     S
C324   H326    1.080   .     S
C324   C538    1.384   .     S
C327   H329    1.077   .     S
C327   C331    1.400   .     A
C327   C533    1.384   .     S
C328   H330    1.077   .     S
C328   C332    1.400   .     A
C331   C394    1.399   .     S
C333   N338    1.374   .     A
C333   N339    1.428   .     S
C333   C335    1.424   .     A
C334   C336    1.424   .     A
C334   N342    1.428   .     S
C334   N337    1.374   .     A
C335   N337    1.372   .     A
C335   N345    1.428   .     S
C336   N348    1.428   .     S
C336   N338    1.372   .     A
N339   O340    1.297   .     A
N339   O341    1.299   .     A
N342   O343    1.298   .     A
N342   O344    1.299   .     A
N345   O346    1.300   .     A
N345   O347    1.298   .     A
N348   O350    1.298   .     A
N348   O349    1.300   .     A
O351   C355    1.300   .     A
O351   Cu363   1.970   .     S
O352   C356    1.300   .     A
O352   Cu364   1.970   .     S
O353   Cu364   1.970   .     S
O353   C215    1.302   1_655 S
O354   Cu363   1.970   .     S
C355   C402    1.456   .     S
C356   C401    1.456   .     S
C356   O214    1.302   1_655 S
O357   Cu363   1.969   .     S
O358   Cu364   1.969   .     S
O358   C222    1.306   1_655 S
O359   Cu364   1.959   .     S
O359   C361    1.303   .     A
O360   C362    1.303   .     A
O360   Cu363   1.959   .     S
C361   C365    1.473   .     S
C361   O217    1.306   1_655 S
C362   C366    1.473   .     S
Cu363  N407    2.032   .     S
Cu364  N408    2.032   .     S
Cu364  Cu223   2.704   1_655 S
C365   C369    1.399   .     A
C365   C371    1.399   .     A
C366   C370    1.399   .     A
C366   C372    1.399   .     A
C367   C375    1.404   .     A
C367   C369    1.393   .     A
C367   H389    1.083   .     S
C368   C376    1.404   .     A
C368   C370    1.393   .     A
C368   H390    1.083   .     S
C369   H248    1.081   1_655 S
C371   C373    1.404   .     A
C371   H386    1.067   .     S
C372   H385    1.067   .     S
C372   C374    1.404   .     A
C373   C377    1.430   .     A
C373   C375    1.417   .     A
C374   C376    1.417   .     A
C374   C378    1.430   .     A
C375   C1011   1.389   .     S
C376   C1012   1.389   1_554 S
C377   C380    1.417   .     A
C377   C1008   1.425   .     S
C378   C379    1.417   .     A
C378   C1007   1.425   1_554 S
C379   C381    1.386   .     A
C379   H391    1.073   .     S
C380   C382    1.386   .     A
C380   H392    1.073   .     S
C381   H383    1.084   .     S
C381   C1005   1.389   1_554 S
C382   H384    1.084   .     S
C382   C1006   1.389   .     S
H387   C230    1.081   1_655 S
C393   H395    1.080   .     S
C393   C262    1.399   1_655 S
C394   H396    1.080   .     S
C394   C608    1.384   .     S
C397   H399    1.077   .     S
C397   C401    1.400   .     A
C397   C603    1.384   .     S
C398   H400    1.077   .     S
C398   C402    1.400   .     A
C401   C254    1.399   1_655 S
C403   N408    1.374   .     A
C403   N409    1.428   .     S
C403   C405    1.424   .     A
C404   C406    1.424   .     A
C404   N412    1.428   .     S
C404   N407    1.374   .     A
C405   N407    1.372   .     A
C405   N415    1.428   .     S
C406   N418    1.428   .     S
C406   N408    1.372   .     A
N409   O410    1.297   .     A
N409   O411    1.299   .     A
N412   O413    1.298   .     A
N412   O414    1.299   .     A
N415   O416    1.300   .     A
N415   O417    1.298   .     A
N418   O420    1.298   .     A
N418   O419    1.300   .     A
O421   C425    1.300   .     A
O421   Cu433   1.970   .     S
O422   C426    1.300   .     A
O422   Cu434   1.970   .     S
O423   Cu434   1.970   .     S
O423   C495    1.302   .     S
O424   Cu433   1.970   .     S
O424   C566    1.302   1_455 S
C425   C472    1.456   .     S
C425   O563    1.302   1_455 S
C426   C471    1.456   .     S
C426   O494    1.302   .     S
O427   Cu433   1.969   .     S
O427   C571    1.306   1_455 S
O428   Cu434   1.969   .     S
O428   C502    1.306   .     S
O429   Cu434   1.959   .     S
O429   C431    1.303   .     A
O430   C432    1.303   .     A
O430   Cu433   1.959   .     S
C431   C435    1.473   .     S
C431   O497    1.306   .     S
C432   C436    1.473   .     S
C432   O568    1.306   1_455 S
Cu433  N477    2.032   .     S
Cu433  Cu574   2.704   1_455 S
Cu434  N478    2.032   .     S
Cu434  Cu503   2.704   .     S
C435   C439    1.399   .     A
C435   C441    1.399   .     A
C436   C440    1.399   .     A
C436   C442    1.399   .     A
C437   C445    1.404   .     A
C437   C439    1.393   .     A
C437   H459    1.083   .     S
C438   C446    1.404   .     A
C438   C440    1.393   .     A
C438   H460    1.083   .     S
C439   H528    1.081   .     S
C440   H597    1.081   1_455 S
C441   C443    1.404   .     A
C441   H456    1.067   .     S
C442   H455    1.067   .     S
C442   C444    1.404   .     A
C443   C447    1.430   .     A
C443   C445    1.417   .     A
C444   C446    1.417   .     A
C444   C448    1.430   .     A
C445   C1081   1.389   .     S
C446   C1082   1.389   1_554 S
C447   C450    1.417   .     A
C447   C1078   1.425   .     S
C448   C449    1.417   .     A
C448   C1077   1.425   1_554 S
C449   C451    1.386   .     A
C449   H461    1.073   .     S
C450   C452    1.386   .     A
C450   H462    1.073   .     S
C451   H453    1.084   .     S
C451   C1075   1.389   1_554 S
C452   H454    1.084   .     S
C452   C1076   1.389   .     S
H457   C510    1.081   .     S
H458   C579    1.081   1_455 S
C463   H465    1.080   .     S
C463   C542    1.399   .     S
C464   H466    1.080   .     S
C464   C48     1.384   1_565 S
C464   C611    1.399   1_455 S
C467   H469    1.077   .     S
C467   C471    1.400   .     A
C467   C43     1.384   1_565 S
C468   H470    1.077   .     S
C468   C472    1.400   .     A
C471   C534    1.399   .     S
C472   C603    1.399   1_455 S
C473   N478    1.374   .     A
C473   N479    1.428   .     S
C473   C475    1.424   .     A
C474   C476    1.424   .     A
C474   N482    1.428   .     S
C474   N477    1.374   .     A
C475   N477    1.372   .     A
C475   N485    1.428   .     S
C476   N488    1.428   .     S
C476   N478    1.372   .     A
N479   O480    1.297   .     A
N479   O481    1.299   .     A
N482   O483    1.298   .     A
N482   O484    1.299   .     A
N485   O486    1.300   .     A
N485   O487    1.298   .     A
N488   O490    1.298   .     A
N488   O489    1.300   .     A
O491   C495    1.300   .     A
O491   Cu503   1.970   .     S
O492   C496    1.300   .     A
O492   Cu504   1.970   .     S
O493   Cu504   1.970   .     S
O493   C565    1.302   .     S
O494   Cu503   1.970   .     S
C495   C542    1.456   .     S
C496   C541    1.456   .     S
C496   O564    1.302   .     S
O497   Cu503   1.969   .     S
O498   Cu504   1.969   .     S
O498   C572    1.306   .     S
O499   Cu504   1.959   .     S
O499   C501    1.303   .     A
O500   C502    1.303   .     A
O500   Cu503   1.959   .     S
C501   C505    1.473   .     S
C501   O567    1.306   .     S
C502   C506    1.473   .     S
Cu503  N547    2.032   .     S
Cu504  N548    2.032   .     S
Cu504  Cu573   2.704   .     S
C505   C509    1.399   .     A
C505   C511    1.399   .     A
C506   C510    1.399   .     A
C506   C512    1.399   .     A
C507   C515    1.404   .     A
C507   C509    1.393   .     A
C507   H529    1.083   .     S
C508   C516    1.404   .     A
C508   C510    1.393   .     A
C508   H530    1.083   .     S
C509   H598    1.081   .     S
C511   C513    1.404   .     A
C511   H526    1.067   .     S
C512   H525    1.067   .     S
C512   C514    1.404   .     A
C513   C517    1.430   .     A
C513   C515    1.417   .     A
C514   C516    1.417   .     A
C514   C518    1.430   .     A
C515   C1151   1.389   .     S
C516   C1152   1.389   1_554 S
C517   C520    1.417   .     A
C517   C1148   1.425   .     S
C518   C519    1.417   .     A
C518   C1147   1.425   1_554 S
C519   C521    1.386   .     A
C519   H531    1.073   .     S
C520   C522    1.386   .     A
C520   H532    1.073   .     S
C521   H523    1.084   .     S
C521   C1145   1.389   1_554 S
C522   H524    1.084   .     S
C522   C1146   1.389   .     S
H527   C580    1.081   .     S
C533   H535    1.080   .     S
C533   C612    1.399   .     S
C534   H536    1.080   .     S
C534   C118    1.384   1_565 S
C537   H539    1.077   .     S
C537   C541    1.400   .     A
C537   C113    1.384   1_565 S
C538   H540    1.077   .     S
C538   C542    1.400   .     A
C541   C604    1.399   .     S
C543   N548    1.374   .     A
C543   N549    1.428   .     S
C543   C545    1.424   .     A
C544   C546    1.424   .     A
C544   N552    1.428   .     S
C544   N547    1.374   .     A
C545   N547    1.372   .     A
C545   N555    1.428   .     S
C546   N558    1.428   .     S
C546   N548    1.372   .     A
N549   O550    1.297   .     A
N549   O551    1.299   .     A
N552   O553    1.298   .     A
N552   O554    1.299   .     A
N555   O556    1.300   .     A
N555   O557    1.298   .     A
N558   O560    1.298   .     A
N558   O559    1.300   .     A
O561   C565    1.300   .     A
O561   Cu573   1.970   .     S
O562   C566    1.300   .     A
O562   Cu574   1.970   .     S
O563   Cu574   1.970   .     S
O563   C425    1.302   1_655 S
O564   Cu573   1.970   .     S
C565   C612    1.456   .     S
C566   C611    1.456   .     S
C566   O424    1.302   1_655 S
O567   Cu573   1.969   .     S
O568   Cu574   1.969   .     S
O568   C432    1.306   1_655 S
O569   Cu574   1.959   .     S
O569   C571    1.303   .     A
O570   C572    1.303   .     A
O570   Cu573   1.959   .     S
C571   C575    1.473   .     S
C571   O427    1.306   1_655 S
C572   C576    1.473   .     S
Cu573  N617    2.032   .     S
Cu574  N618    2.032   .     S
Cu574  Cu433   2.704   1_655 S
C575   C579    1.399   .     A
C575   C581    1.399   .     A
C576   C580    1.399   .     A
C576   C582    1.399   .     A
C577   C585    1.404   .     A
C577   C579    1.393   .     A
C577   H599    1.083   .     S
C578   C586    1.404   .     A
C578   C580    1.393   .     A
C578   H600    1.083   .     S
C579   H458    1.081   1_655 S
C581   C583    1.404   .     A
C581   H596    1.067   .     S
C582   H595    1.067   .     S
C582   C584    1.404   .     A
C583   C587    1.430   .     A
C583   C585    1.417   .     A
C584   C586    1.417   .     A
C584   C588    1.430   .     A
C585   C1221   1.389   .     S
C586   C1222   1.389   1_554 S
C587   C590    1.417   .     A
C587   C1218   1.425   .     S
C588   C589    1.417   .     A
C588   C1217   1.425   1_554 S
C589   C591    1.386   .     A
C589   H601    1.073   .     S
C590   C592    1.386   .     A
C590   H602    1.073   .     S
C591   H593    1.084   .     S
C591   C1215   1.389   1_554 S
C592   H594    1.084   .     S
C592   C1216   1.389   .     S
H597   C440    1.081   1_655 S
C603   H605    1.080   .     S
C603   C472    1.399   1_655 S
C604   H606    1.080   .     S
C604   C188    1.384   1_565 S
C607   H609    1.077   .     S
C607   C611    1.400   .     A
C607   C183    1.384   1_565 S
C608   H610    1.077   .     S
C608   C612    1.400   .     A
C611   C464    1.399   1_655 S
C613   N618    1.374   .     A
C613   N619    1.428   .     S
C613   C615    1.424   .     A
C614   C616    1.424   .     A
C614   N622    1.428   .     S
C614   N617    1.374   .     A
C615   N617    1.372   .     A
C615   N625    1.428   .     S
C616   N628    1.428   .     S
C616   N618    1.372   .     A
N619   O620    1.297   .     A
N619   O621    1.299   .     A
N622   O623    1.298   .     A
N622   O624    1.299   .     A
N625   O626    1.300   .     A
N625   O627    1.298   .     A
N628   O630    1.298   .     A
N628   O629    1.300   .     A
O631   C635    1.300   .     A
O631   Cu643   1.970   .     S
O632   C636    1.300   .     A
O632   Cu644   1.970   .     S
O633   Cu644   1.970   .     S
O633   C705    1.302   .     S
O634   Cu643   1.970   .     S
O634   C776    1.302   1_455 S
C635   C682    1.456   .     S
C635   O773    1.302   1_455 S
C636   C681    1.456   .     S
C636   O704    1.302   .     S
O637   Cu643   1.969   .     S
O637   C781    1.306   1_455 S
O638   Cu644   1.969   .     S
O638   C712    1.306   .     S
O639   Cu644   1.959   .     S
O639   C641    1.303   .     A
O640   C642    1.303   .     A
O640   Cu643   1.959   .     S
C641   C645    1.473   .     S
C641   O707    1.306   .     S
C642   C646    1.473   .     S
C642   O778    1.306   1_455 S
Cu643  N687    2.032   .     S
Cu643  Cu784   2.704   1_455 S
Cu644  N688    2.032   .     S
Cu644  Cu713   2.704   .     S
C645   C649    1.399   .     A
C645   C651    1.399   .     A
C646   C650    1.399   .     A
C646   C652    1.399   .     A
C647   C655    1.404   .     A
C647   C649    1.393   .     A
C647   H669    1.083   .     S
C648   C656    1.404   .     A
C648   C650    1.393   .     A
C648   H670    1.083   .     S
C649   H738    1.081   .     S
C650   H807    1.081   1_455 S
C651   C653    1.404   .     A
C651   H666    1.067   .     S
C652   H665    1.067   .     S
C652   C654    1.404   .     A
C653   C657    1.430   .     A
C653   C655    1.417   .     A
C654   C656    1.417   .     A
C654   C658    1.430   .     A
C655   C31     1.389   1_556 S
C657   C660    1.417   .     A
C657   C28     1.425   1_556 S
C658   C659    1.417   .     A
C659   C661    1.386   .     A
C659   H671    1.073   .     S
C660   C662    1.386   .     A
C660   H672    1.073   .     S
C661   H663    1.084   .     S
C662   H664    1.084   .     S
C662   C26     1.389   1_556 S
H667   C720    1.081   .     S
H668   C789    1.081   1_455 S
C673   H675    1.080   .     S
C673   C1097   1.384   1_545 S
C673   C752    1.399   .     S
C674   H676    1.080   .     S
C674   C888    1.384   .     S
C674   C821    1.399   1_455 S
C677   H679    1.077   .     S
C677   C681    1.400   .     A
C677   C883    1.384   .     S
C678   H680    1.077   .     S
C678   C682    1.400   .     A
C678   C1094   1.384   1_545 S
C681   C744    1.399   .     S
C682   C813    1.399   1_455 S
C683   N688    1.374   .     A
C683   N689    1.428   .     S
C683   C685    1.424   .     A
C684   C686    1.424   .     A
C684   N692    1.428   .     S
C684   N687    1.374   .     A
C685   N687    1.372   .     A
C685   N695    1.428   .     S
C686   N698    1.428   .     S
C686   N688    1.372   .     A
N689   O690    1.297   .     A
N689   O691    1.299   .     A
N692   O693    1.298   .     A
N692   O694    1.299   .     A
N695   O696    1.300   .     A
N695   O697    1.298   .     A
N698   O700    1.298   .     A
N698   O699    1.300   .     A
O701   C705    1.300   .     A
O701   Cu713   1.970   .     S
O702   C706    1.300   .     A
O702   Cu714   1.970   .     S
O703   Cu714   1.970   .     S
O703   C775    1.302   .     S
O704   Cu713   1.970   .     S
C705   C752    1.456   .     S
C706   C751    1.456   .     S
C706   O774    1.302   .     S
O707   Cu713   1.969   .     S
O708   Cu714   1.969   .     S
O708   C782    1.306   .     S
O709   Cu714   1.959   .     S
O709   C711    1.303   .     A
O710   C712    1.303   .     A
O710   Cu713   1.959   .     S
C711   C715    1.473   .     S
C711   O777    1.306   .     S
C712   C716    1.473   .     S
Cu713  N757    2.032   .     S
Cu714  N758    2.032   .     S
Cu714  Cu783   2.704   .     S
C715   C719    1.399   .     A
C715   C721    1.399   .     A
C716   C720    1.399   .     A
C716   C722    1.399   .     A
C717   C725    1.404   .     A
C717   C719    1.393   .     A
C717   H739    1.083   .     S
C718   C726    1.404   .     A
C718   C720    1.393   .     A
C718   H740    1.083   .     S
C719   H808    1.081   .     S
C721   C723    1.404   .     A
C721   H736    1.067   .     S
C722   H735    1.067   .     S
C722   C724    1.404   .     A
C723   C727    1.430   .     A
C723   C725    1.417   .     A
C724   C726    1.417   .     A
C724   C728    1.430   .     A
C725   C101    1.389   1_556 S
C727   C730    1.417   .     A
C727   C98     1.425   1_556 S
C728   C729    1.417   .     A
C729   C731    1.386   .     A
C729   H741    1.073   .     S
C730   C732    1.386   .     A
C730   H742    1.073   .     S
C731   H733    1.084   .     S
C732   H734    1.084   .     S
C732   C96     1.389   1_556 S
H737   C790    1.081   .     S
C743   H745    1.080   .     S
C743   C1167   1.384   1_545 S
C743   C822    1.399   .     S
C744   H746    1.080   .     S
C744   C958    1.384   .     S
C747   H749    1.077   .     S
C747   C751    1.400   .     A
C747   C953    1.384   .     S
C748   H750    1.077   .     S
C748   C752    1.400   .     A
C748   C1164   1.384   1_545 S
C751   C814    1.399   .     S
C753   N758    1.374   .     A
C753   N759    1.428   .     S
C753   C755    1.424   .     A
C754   C756    1.424   .     A
C754   N762    1.428   .     S
C754   N757    1.374   .     A
C755   N757    1.372   .     A
C755   N765    1.428   .     S
C756   N768    1.428   .     S
C756   N758    1.372   .     A
N759   O760    1.297   .     A
N759   O761    1.299   .     A
N762   O763    1.298   .     A
N762   O764    1.299   .     A
N765   O766    1.300   .     A
N765   O767    1.298   .     A
N768   O770    1.298   .     A
N768   O769    1.300   .     A
O771   C775    1.300   .     A
O771   Cu783   1.970   .     S
O772   C776    1.300   .     A
O772   Cu784   1.970   .     S
O773   Cu784   1.970   .     S
O773   C635    1.302   1_655 S
O774   Cu783   1.970   .     S
C775   C822    1.456   .     S
C776   C821    1.456   .     S
C776   O634    1.302   1_655 S
O777   Cu783   1.969   .     S
O778   Cu784   1.969   .     S
O778   C642    1.306   1_655 S
O779   Cu784   1.959   .     S
O779   C781    1.303   .     A
O780   C782    1.303   .     A
O780   Cu783   1.959   .     S
C781   C785    1.473   .     S
C781   O637    1.306   1_655 S
C782   C786    1.473   .     S
Cu783  N827    2.032   .     S
Cu784  N828    2.032   .     S
Cu784  Cu643   2.704   1_655 S
C785   C789    1.399   .     A
C785   C791    1.399   .     A
C786   C790    1.399   .     A
C786   C792    1.399   .     A
C787   C795    1.404   .     A
C787   C789    1.393   .     A
C787   H809    1.083   .     S
C788   C796    1.404   .     A
C788   C790    1.393   .     A
C788   H810    1.083   .     S
C789   H668    1.081   1_655 S
C791   C793    1.404   .     A
C791   H806    1.067   .     S
C792   H805    1.067   .     S
C792   C794    1.404   .     A
C793   C797    1.430   .     A
C793   C795    1.417   .     A
C794   C796    1.417   .     A
C794   C798    1.430   .     A
C795   C171    1.389   1_556 S
C797   C800    1.417   .     A
C797   C168    1.425   1_556 S
C798   C799    1.417   .     A
C799   C801    1.386   .     A
C799   H811    1.073   .     S
C800   C802    1.386   .     A
C800   H812    1.073   .     S
C801   H803    1.084   .     S
C802   H804    1.084   .     S
C802   C166    1.389   1_556 S
H807   C650    1.081   1_655 S
C813   H815    1.080   .     S
C813   C1237   1.384   1_545 S
C813   C682    1.399   1_655 S
C814   H816    1.080   .     S
C814   C1028   1.384   .     S
C817   H819    1.077   .     S
C817   C821    1.400   .     A
C817   C1023   1.384   .     S
C818   H820    1.077   .     S
C818   C822    1.400   .     A
C818   C1234   1.384   1_545 S
C821   C674    1.399   1_655 S
C823   N828    1.374   .     A
C823   N829    1.428   .     S
C823   C825    1.424   .     A
C824   C826    1.424   .     A
C824   N832    1.428   .     S
C824   N827    1.374   .     A
C825   N827    1.372   .     A
C825   N835    1.428   .     S
C826   N838    1.428   .     S
C826   N828    1.372   .     A
N829   O830    1.297   .     A
N829   O831    1.299   .     A
N832   O833    1.298   .     A
N832   O834    1.299   .     A
N835   O836    1.300   .     A
N835   O837    1.298   .     A
N838   O840    1.298   .     A
N838   O839    1.300   .     A
O841   C845    1.300   .     A
O841   Cu853   1.970   .     S
O842   C846    1.300   .     A
O842   Cu854   1.970   .     S
O843   Cu854   1.970   .     S
O843   C915    1.302   .     S
O844   Cu853   1.970   .     S
O844   C986    1.302   1_455 S
C845   C892    1.456   .     S
C845   O983    1.302   1_455 S
C846   C891    1.456   .     S
C846   O914    1.302   .     S
O847   Cu853   1.969   .     S
O847   C991    1.306   1_455 S
O848   Cu854   1.969   .     S
O848   C922    1.306   .     S
O849   Cu854   1.959   .     S
O849   C851    1.303   .     A
O850   C852    1.303   .     A
O850   Cu853   1.959   .     S
C851   C855    1.473   .     S
C851   O917    1.306   .     S
C852   C856    1.473   .     S
C852   O988    1.306   1_455 S
Cu853  N897    2.032   .     S
Cu853  Cu994   2.704   1_455 S
Cu854  N898    2.032   .     S
Cu854  Cu923   2.704   .     S
C855   C859    1.399   .     A
C855   C861    1.399   .     A
C856   C860    1.399   .     A
C856   C862    1.399   .     A
C857   C865    1.404   .     A
C857   C859    1.393   .     A
C857   H879    1.083   .     S
C858   C866    1.404   .     A
C858   C860    1.393   .     A
C858   H880    1.083   .     S
C859   H948    1.081   .     S
C860   H1017   1.081   1_455 S
C861   C863    1.404   .     A
C861   H876    1.067   .     S
C862   H875    1.067   .     S
C862   C864    1.404   .     A
C863   C867    1.430   .     A
C863   C865    1.417   .     A
C864   C866    1.417   .     A
C864   C868    1.430   .     A
C865   C241    1.389   1_556 S
C867   C870    1.417   .     A
C867   C238    1.425   1_556 S
C868   C869    1.417   .     A
C869   C871    1.386   .     A
C869   H881    1.073   .     S
C870   C872    1.386   .     A
C870   H882    1.073   .     S
C871   H873    1.084   .     S
C872   H874    1.084   .     S
C872   C236    1.389   1_556 S
H877   C930    1.081   .     S
H878   C999    1.081   1_455 S
C883   H885    1.080   .     S
C883   C962    1.399   .     S
C884   H886    1.080   .     S
C884   C1098   1.384   .     S
C884   C1031   1.399   1_455 S
C887   H889    1.077   .     S
C887   C891    1.400   .     A
C887   C1093   1.384   .     S
C888   H890    1.077   .     S
C888   C892    1.400   .     A
C891   C954    1.399   .     S
C892   C1023   1.399   1_455 S
C893   N898    1.374   .     A
C893   N899    1.428   .     S
C893   C895    1.424   .     A
C894   C896    1.424   .     A
C894   N902    1.428   .     S
C894   N897    1.374   .     A
C895   N897    1.372   .     A
C895   N905    1.428   .     S
C896   N908    1.428   .     S
C896   N898    1.372   .     A
N899   O900    1.297   .     A
N899   O901    1.299   .     A
N902   O903    1.298   .     A
N902   O904    1.299   .     A
N905   O906    1.300   .     A
N905   O907    1.298   .     A
N908   O910    1.298   .     A
N908   O909    1.300   .     A
O911   C915    1.300   .     A
O911   Cu923   1.970   .     S
O912   C916    1.300   .     A
O912   Cu924   1.970   .     S
O913   Cu924   1.970   .     S
O913   C985    1.302   .     S
O914   Cu923   1.970   .     S
C915   C962    1.456   .     S
C916   C961    1.456   .     S
C916   O984    1.302   .     S
O917   Cu923   1.969   .     S
O918   Cu924   1.969   .     S
O918   C992    1.306   .     S
O919   Cu924   1.959   .     S
O919   C921    1.303   .     A
O920   C922    1.303   .     A
O920   Cu923   1.959   .     S
C921   C925    1.473   .     S
C921   O987    1.306   .     S
C922   C926    1.473   .     S
Cu923  N967    2.032   .     S
Cu924  N968    2.032   .     S
Cu924  Cu993   2.704   .     S
C925   C929    1.399   .     A
C925   C931    1.399   .     A
C926   C930    1.399   .     A
C926   C932    1.399   .     A
C927   C935    1.404   .     A
C927   C929    1.393   .     A
C927   H949    1.083   .     S
C928   C936    1.404   .     A
C928   C930    1.393   .     A
C928   H950    1.083   .     S
C929   H1018   1.081   .     S
C931   C933    1.404   .     A
C931   H946    1.067   .     S
C932   H945    1.067   .     S
C932   C934    1.404   .     A
C933   C937    1.430   .     A
C933   C935    1.417   .     A
C934   C936    1.417   .     A
C934   C938    1.430   .     A
C935   C311    1.389   1_556 S
C937   C940    1.417   .     A
C937   C308    1.425   1_556 S
C938   C939    1.417   .     A
C939   C941    1.386   .     A
C939   H951    1.073   .     S
C940   C942    1.386   .     A
C940   H952    1.073   .     S
C941   H943    1.084   .     S
C942   H944    1.084   .     S
C942   C306    1.389   1_556 S
H947   C1000   1.081   .     S
C953   H955    1.080   .     S
C953   C1032   1.399   .     S
C954   H956    1.080   .     S
C954   C1168   1.384   .     S
C957   H959    1.077   .     S
C957   C961    1.400   .     A
C957   C1163   1.384   .     S
C958   H960    1.077   .     S
C958   C962    1.400   .     A
C961   C1024   1.399   .     S
C963   N968    1.374   .     A
C963   N969    1.428   .     S
C963   C965    1.424   .     A
C964   C966    1.424   .     A
C964   N972    1.428   .     S
C964   N967    1.374   .     A
C965   N967    1.372   .     A
C965   N975    1.428   .     S
C966   N978    1.428   .     S
C966   N968    1.372   .     A
N969   O970    1.297   .     A
N969   O971    1.299   .     A
N972   O973    1.298   .     A
N972   O974    1.299   .     A
N975   O976    1.300   .     A
N975   O977    1.298   .     A
N978   O980    1.298   .     A
N978   O979    1.300   .     A
O981   C985    1.300   .     A
O981   Cu993   1.970   .     S
O982   C986    1.300   .     A
O982   Cu994   1.970   .     S
O983   Cu994   1.970   .     S
O983   C845    1.302   1_655 S
O984   Cu993   1.970   .     S
C985   C1032   1.456   .     S
C986   C1031   1.456   .     S
C986   O844    1.302   1_655 S
O987   Cu993   1.969   .     S
O988   Cu994   1.969   .     S
O988   C852    1.306   1_655 S
O989   Cu994   1.959   .     S
O989   C991    1.303   .     A
O990   C992    1.303   .     A
O990   Cu993   1.959   .     S
C991   C995    1.473   .     S
C991   O847    1.306   1_655 S
C992   C996    1.473   .     S
Cu993  N1037   2.032   .     S
Cu994  N1038   2.032   .     S
Cu994  Cu853   2.704   1_655 S
C995   C999    1.399   .     A
C995   C1001   1.399   .     A
C996   C1000   1.399   .     A
C996   C1002   1.399   .     A
C997   C1005   1.404   .     A
C997   C999    1.393   .     A
C997   H1019   1.083   .     S
C998   C1006   1.404   .     A
C998   C1000   1.393   .     A
C998   H1020   1.083   .     S
C999   H878    1.081   1_655 S
C1001  C1003   1.404   .     A
C1001  H1016   1.067   .     S
C1002  H1015   1.067   .     S
C1002  C1004   1.404   .     A
C1003  C1007   1.430   .     A
C1003  C1005   1.417   .     A
C1004  C1006   1.417   .     A
C1004  C1008   1.430   .     A
C1005  C381    1.389   1_556 S
C1007  C1010   1.417   .     A
C1007  C378    1.425   1_556 S
C1008  C1009   1.417   .     A
C1009  C1011   1.386   .     A
C1009  H1021   1.073   .     S
C1010  C1012   1.386   .     A
C1010  H1022   1.073   .     S
C1011  H1013   1.084   .     S
C1012  H1014   1.084   .     S
C1012  C376    1.389   1_556 S
H1017  C860    1.081   1_655 S
C1023  H1025   1.080   .     S
C1023  C892    1.399   1_655 S
C1024  H1026   1.080   .     S
C1024  C1238   1.384   .     S
C1027  H1029   1.077   .     S
C1027  C1031   1.400   .     A
C1027  C1233   1.384   .     S
C1028  H1030   1.077   .     S
C1028  C1032   1.400   .     A
C1031  C884    1.399   1_655 S
C1033  N1038   1.374   .     A
C1033  N1039   1.428   .     S
C1033  C1035   1.424   .     A
C1034  C1036   1.424   .     A
C1034  N1042   1.428   .     S
C1034  N1037   1.374   .     A
C1035  N1037   1.372   .     A
C1035  N1045   1.428   .     S
C1036  N1048   1.428   .     S
C1036  N1038   1.372   .     A
N1039  O1040   1.297   .     A
N1039  O1041   1.299   .     A
N1042  O1043   1.298   .     A
N1042  O1044   1.299   .     A
N1045  O1046   1.300   .     A
N1045  O1047   1.298   .     A
N1048  O1050   1.298   .     A
N1048  O1049   1.300   .     A
O1051  C1055   1.300   .     A
O1051  Cu1063  1.970   .     S
O1052  C1056   1.300   .     A
O1052  Cu1064  1.970   .     S
O1053  Cu1064  1.970   .     S
O1053  C1125   1.302   .     S
O1054  Cu1063  1.970   .     S
O1054  C1196   1.302   1_455 S
C1055  C1102   1.456   .     S
C1055  O1193   1.302   1_455 S
C1056  C1101   1.456   .     S
C1056  O1124   1.302   .     S
O1057  Cu1063  1.969   .     S
O1057  C1201   1.306   1_455 S
O1058  Cu1064  1.969   .     S
O1058  C1132   1.306   .     S
O1059  Cu1064  1.959   .     S
O1059  C1061   1.303   .     A
O1060  C1062   1.303   .     A
O1060  Cu1063  1.959   .     S
C1061  C1065   1.473   .     S
C1061  O1127   1.306   .     S
C1062  C1066   1.473   .     S
C1062  O1198   1.306   1_455 S
Cu1063 N1107   2.032   .     S
Cu1063 Cu1204  2.704   1_455 S
Cu1064 N1108   2.032   .     S
Cu1064 Cu1133  2.704   .     S
C1065  C1069   1.399   .     A
C1065  C1071   1.399   .     A
C1066  C1070   1.399   .     A
C1066  C1072   1.399   .     A
C1067  C1075   1.404   .     A
C1067  C1069   1.393   .     A
C1067  H1089   1.083   .     S
C1068  C1076   1.404   .     A
C1068  C1070   1.393   .     A
C1068  H1090   1.083   .     S
C1069  H1158   1.081   .     S
C1070  H1227   1.081   1_455 S
C1071  C1073   1.404   .     A
C1071  H1086   1.067   .     S
C1072  H1085   1.067   .     S
C1072  C1074   1.404   .     A
C1073  C1077   1.430   .     A
C1073  C1075   1.417   .     A
C1074  C1076   1.417   .     A
C1074  C1078   1.430   .     A
C1075  C451    1.389   1_556 S
C1077  C1080   1.417   .     A
C1077  C448    1.425   1_556 S
C1078  C1079   1.417   .     A
C1079  C1081   1.386   .     A
C1079  H1091   1.073   .     S
C1080  C1082   1.386   .     A
C1080  H1092   1.073   .     S
C1081  H1083   1.084   .     S
C1082  H1084   1.084   .     S
C1082  C446    1.389   1_556 S
H1087  C1140   1.081   .     S
H1088  C1209   1.081   1_455 S
C1093  H1095   1.080   .     S
C1093  C1172   1.399   .     S
C1094  H1096   1.080   .     S
C1094  C678    1.384   1_565 S
C1094  C1241   1.399   1_455 S
C1097  H1099   1.077   .     S
C1097  C1101   1.400   .     A
C1097  C673    1.384   1_565 S
C1098  H1100   1.077   .     S
C1098  C1102   1.400   .     A
C1101  C1164   1.399   .     S
C1102  C1233   1.399   1_455 S
C1103  N1108   1.374   .     A
C1103  N1109   1.428   .     S
C1103  C1105   1.424   .     A
C1104  C1106   1.424   .     A
C1104  N1112   1.428   .     S
C1104  N1107   1.374   .     A
C1105  N1107   1.372   .     A
C1105  N1115   1.428   .     S
C1106  N1118   1.428   .     S
C1106  N1108   1.372   .     A
N1109  O1110   1.297   .     A
N1109  O1111   1.299   .     A
N1112  O1113   1.298   .     A
N1112  O1114   1.299   .     A
N1115  O1116   1.300   .     A
N1115  O1117   1.298   .     A
N1118  O1120   1.298   .     A
N1118  O1119   1.300   .     A
O1121  C1125   1.300   .     A
O1121  Cu1133  1.970   .     S
O1122  C1126   1.300   .     A
O1122  Cu1134  1.970   .     S
O1123  Cu1134  1.970   .     S
O1123  C1195   1.302   .     S
O1124  Cu1133  1.970   .     S
C1125  C1172   1.456   .     S
C1126  C1171   1.456   .     S
C1126  O1194   1.302   .     S
O1127  Cu1133  1.969   .     S
O1128  Cu1134  1.969   .     S
O1128  C1202   1.306   .     S
O1129  Cu1134  1.959   .     S
O1129  C1131   1.303   .     A
O1130  C1132   1.303   .     A
O1130  Cu1133  1.959   .     S
C1131  C1135   1.473   .     S
C1131  O1197   1.306   .     S
C1132  C1136   1.473   .     S
Cu1133 N1177   2.032   .     S
Cu1134 N1178   2.032   .     S
Cu1134 Cu1203  2.704   .     S
C1135  C1139   1.399   .     A
C1135  C1141   1.399   .     A
C1136  C1140   1.399   .     A
C1136  C1142   1.399   .     A
C1137  C1145   1.404   .     A
C1137  C1139   1.393   .     A
C1137  H1159   1.083   .     S
C1138  C1146   1.404   .     A
C1138  C1140   1.393   .     A
C1138  H1160   1.083   .     S
C1139  H1228   1.081   .     S
C1141  C1143   1.404   .     A
C1141  H1156   1.067   .     S
C1142  H1155   1.067   .     S
C1142  C1144   1.404   .     A
C1143  C1147   1.430   .     A
C1143  C1145   1.417   .     A
C1144  C1146   1.417   .     A
C1144  C1148   1.430   .     A
C1145  C521    1.389   1_556 S
C1147  C1150   1.417   .     A
C1147  C518    1.425   1_556 S
C1148  C1149   1.417   .     A
C1149  C1151   1.386   .     A
C1149  H1161   1.073   .     S
C1150  C1152   1.386   .     A
C1150  H1162   1.073   .     S
C1151  H1153   1.084   .     S
C1152  H1154   1.084   .     S
C1152  C516    1.389   1_556 S
H1157  C1210   1.081   .     S
C1163  H1165   1.080   .     S
C1163  C1242   1.399   .     S
C1164  H1166   1.080   .     S
C1164  C748    1.384   1_565 S
C1167  H1169   1.077   .     S
C1167  C1171   1.400   .     A
C1167  C743    1.384   1_565 S
C1168  H1170   1.077   .     S
C1168  C1172   1.400   .     A
C1171  C1234   1.399   .     S
C1173  N1178   1.374   .     A
C1173  N1179   1.428   .     S
C1173  C1175   1.424   .     A
C1174  C1176   1.424   .     A
C1174  N1182   1.428   .     S
C1174  N1177   1.374   .     A
C1175  N1177   1.372   .     A
C1175  N1185   1.428   .     S
C1176  N1188   1.428   .     S
C1176  N1178   1.372   .     A
N1179  O1180   1.297   .     A
N1179  O1181   1.299   .     A
N1182  O1183   1.298   .     A
N1182  O1184   1.299   .     A
N1185  O1186   1.300   .     A
N1185  O1187   1.298   .     A
N1188  O1190   1.298   .     A
N1188  O1189   1.300   .     A
O1191  C1195   1.300   .     A
O1191  Cu1203  1.970   .     S
O1192  C1196   1.300   .     A
O1192  Cu1204  1.970   .     S
O1193  Cu1204  1.970   .     S
O1193  C1055   1.302   1_655 S
O1194  Cu1203  1.970   .     S
C1195  C1242   1.456   .     S
C1196  C1241   1.456   .     S
C1196  O1054   1.302   1_655 S
O1197  Cu1203  1.969   .     S
O1198  Cu1204  1.969   .     S
O1198  C1062   1.306   1_655 S
O1199  Cu1204  1.959   .     S
O1199  C1201   1.303   .     A
O1200  C1202   1.303   .     A
O1200  Cu1203  1.959   .     S
C1201  C1205   1.473   .     S
C1201  O1057   1.306   1_655 S
C1202  C1206   1.473   .     S
Cu1203 N1247   2.032   .     S
Cu1204 N1248   2.032   .     S
Cu1204 Cu1063  2.704   1_655 S
C1205  C1209   1.399   .     A
C1205  C1211   1.399   .     A
C1206  C1210   1.399   .     A
C1206  C1212   1.399   .     A
C1207  C1215   1.404   .     A
C1207  C1209   1.393   .     A
C1207  H1229   1.083   .     S
C1208  C1216   1.404   .     A
C1208  C1210   1.393   .     A
C1208  H1230   1.083   .     S
C1209  H1088   1.081   1_655 S
C1211  C1213   1.404   .     A
C1211  H1226   1.067   .     S
C1212  H1225   1.067   .     S
C1212  C1214   1.404   .     A
C1213  C1217   1.430   .     A
C1213  C1215   1.417   .     A
C1214  C1216   1.417   .     A
C1214  C1218   1.430   .     A
C1215  C591    1.389   1_556 S
C1217  C1220   1.417   .     A
C1217  C588    1.425   1_556 S
C1218  C1219   1.417   .     A
C1219  C1221   1.386   .     A
C1219  H1231   1.073   .     S
C1220  C1222   1.386   .     A
C1220  H1232   1.073   .     S
C1221  H1223   1.084   .     S
C1222  H1224   1.084   .     S
C1222  C586    1.389   1_556 S
H1227  C1070   1.081   1_655 S
C1233  H1235   1.080   .     S
C1233  C1102   1.399   1_655 S
C1234  H1236   1.080   .     S
C1234  C818    1.384   1_565 S
C1237  H1239   1.077   .     S
C1237  C1241   1.400   .     A
C1237  C813    1.384   1_565 S
C1238  H1240   1.077   .     S
C1238  C1242   1.400   .     A
C1241  C1094   1.399   1_655 S
C1243  N1248   1.374   .     A
C1243  N1249   1.428   .     S
C1243  C1245   1.424   .     A
C1244  C1246   1.424   .     A
C1244  N1252   1.428   .     S
C1244  N1247   1.374   .     A
C1245  N1247   1.372   .     A
C1245  N1255   1.428   .     S
C1246  N1258   1.428   .     S
C1246  N1248   1.372   .     A
N1249  O1250   1.297   .     A
N1249  O1251   1.299   .     A
N1252  O1253   1.298   .     A
N1252  O1254   1.299   .     A
N1255  O1256   1.300   .     A
N1255  O1257   1.298   .     A
N1258  O1260   1.298   .     A
N1258  O1259   1.300   .     A
