data_str_m2_o2_o10_pcu_sym.213
_audit_creation_date              2020-01-03
_audit_creation_method            'Materials Studio'
_symmetry_space_group_name_H-M    'P1'
_symmetry_Int_Tables_number       1
_symmetry_cell_setting            triclinic
loop_
_symmetry_equiv_pos_as_xyz
  x,y,z
_cell_length_a                    26.1380
_cell_length_b                    30.2235
_cell_length_c                    27.7987
_cell_angle_alpha                 89.9598
_cell_angle_beta                  98.1681
_cell_angle_gamma                 90.5012
loop_
_atom_site_label
_atom_site_type_symbol
_atom_site_fract_x
_atom_site_fract_y
_atom_site_fract_z
_atom_site_U_iso_or_equiv
_atom_site_adp_type
_atom_site_occupancy
O1     O     0.16667   0.18572   0.29071   0.00000  Uiso   1.00
O2     O     0.16666   0.31427   0.20928   0.00000  Uiso   1.00
O3     O     0.16667   0.18573   0.20928   0.00000  Uiso   1.00
O4     O     0.16666   0.31427   0.29072   0.00000  Uiso   1.00
C5     C     0.16551   0.16501   0.24989   0.00000  Uiso   1.00
C6     C     0.16538   0.33506   0.24975   0.00000  Uiso   1.00
O7     O     0.09161   0.24999   0.28132   0.00000  Uiso   1.00
O8     O     0.24172   0.25000   0.21868   0.00000  Uiso   1.00
O9     O     0.09161   0.25000   0.19988   0.00000  Uiso   1.00
O10    O     0.24172   0.25000   0.30011   0.00000  Uiso   1.00
C11    C     0.06790   0.24997   0.23751   0.00000  Uiso   1.00
C12    C     0.26544   0.24989   0.26249   0.00000  Uiso   1.00
Cu13   Cu    0.16667   0.24999   0.29821   0.00000  Uiso   1.00
Cu14   Cu    0.16667   0.25000   0.20178   0.00000  Uiso   1.00
C15    C     0.01255   0.25006   0.23067   0.00000  Uiso   1.00
C16    C     0.32080   0.24954   0.26932   0.00000  Uiso   1.00
H17    H     0.32573   0.25067   0.19366   0.00000  Uiso   1.00
H18    H     0.00766   0.24880   0.30630   0.00000  Uiso   1.00
C19    C     0.12908   0.04831   0.28042   0.00000  Uiso   1.00
C20    C     0.13498   0.45181   0.20652   0.00000  Uiso   1.00
C21    C     0.13193   0.09459   0.28100   0.00000  Uiso   1.00
C22    C     0.13785   0.40558   0.20668   0.00000  Uiso   1.00
C23    C     0.16118   0.11684   0.24937   0.00000  Uiso   1.00
C24    C     0.16085   0.38332   0.24891   0.00000  Uiso   1.00
C25    C     0.18569   0.09298   0.21631   0.00000  Uiso   1.00
C26    C     0.17888   0.40734   0.29099   0.00000  Uiso   1.00
C27    C     0.18412   0.04694   0.21605   0.00000  Uiso   1.00
C28    C     0.17738   0.45335   0.29094   0.00000  Uiso   1.00
C29    C     0.15576   0.02438   0.24811   0.00000  Uiso   1.00
C30    C     0.15553   0.47584   0.24862   0.00000  Uiso   1.00
C31    C     0.19301   0.28313   0.05783   0.00000  Uiso   1.00
C32    C     0.12694   0.22860   0.44037   0.00000  Uiso   1.00
H33    H     0.21354   0.31003   0.04330   0.00000  Uiso   1.00
H34    H     0.09476   0.21203   0.45330   0.00000  Uiso   1.00
C35    C     0.19351   0.28176   0.10843   0.00000  Uiso   1.00
C36    C     0.12861   0.22816   0.39005   0.00000  Uiso   1.00
N37    N     0.16667   0.25001   0.12934   0.00000  Uiso   1.00
N38    N     0.16667   0.24999   0.37065   0.00000  Uiso   1.00
C39    C     0.13889   0.21844   0.10127   0.00000  Uiso   1.00
C40    C     0.20451   0.27251   0.40022   0.00000  Uiso   1.00
C41    C     0.13819   0.21861   0.05014   0.00000  Uiso   1.00
C42    C     0.20427   0.27307   0.45120   0.00000  Uiso   1.00
C43    C     0.16555   0.25096   0.02728   0.00000  Uiso   1.00
C44    C     0.16547   0.25087   0.47247   0.00000  Uiso   1.00
O45    O     0.10345   0.02725   0.31449   0.00000  Uiso   1.00
C46    C     0.05644   0.00864   0.29169   0.00000  Uiso   1.00
H47    H     0.06246   0.47418   0.28015   0.00000  Uiso   1.00
H48    H     0.03764   0.02830   0.26026   0.00000  Uiso   1.00
H49    H     0.02901   0.00715   0.31865   0.00000  Uiso   1.00
O50    O     0.11576   0.47281   0.16344   0.00000  Uiso   1.00
C51    C     0.06673   0.49086   0.16683   0.00000  Uiso   1.00
H52    H     0.07088   0.02530   0.18068   0.00000  Uiso   1.00
H53    H     0.04338   0.47078   0.18953   0.00000  Uiso   1.00
H54    H     0.04453   0.49231   0.12978   0.00000  Uiso   1.00
O55    O     0.10783   0.11774   0.31430   0.00000  Uiso   1.00
C56    C     0.05878   0.13137   0.29151   0.00000  Uiso   1.00
H57    H     0.06121   0.15095   0.25798   0.00000  Uiso   1.00
H58    H     0.04142   0.15295   0.31699   0.00000  Uiso   1.00
H59    H     0.03236   0.10261   0.28299   0.00000  Uiso   1.00
O60    O     0.12042   0.38263   0.16436   0.00000  Uiso   1.00
C61    C     0.06912   0.36829   0.16582   0.00000  Uiso   1.00
H62    H     0.06510   0.34931   0.19945   0.00000  Uiso   1.00
H63    H     0.05742   0.34586   0.13454   0.00000  Uiso   1.00
H64    H     0.04217   0.39665   0.16216   0.00000  Uiso   1.00
H65    H     0.20720   0.11007   0.19123   0.00000  Uiso   1.00
H66    H     0.19555   0.39049   0.32387   0.00000  Uiso   1.00
O67    O     0.20764   0.02418   0.18210   0.00000  Uiso   1.00
C68    C     0.26056   0.01937   0.19983   0.00000  Uiso   1.00
H69    H     0.26599   0.49494   0.22994   0.00000  Uiso   1.00
H70    H     0.27962   0.05147   0.21155   0.00000  Uiso   1.00
H71    H     0.28025   0.00621   0.17012   0.00000  Uiso   1.00
O72    O     0.19477   0.47595   0.33346   0.00000  Uiso   1.00
C73    C     0.24787   0.48547   0.33500   0.00000  Uiso   1.00
H74    H     0.25375   0.01287   0.30968   0.00000  Uiso   1.00
H75    H     0.27046   0.45586   0.32718   0.00000  Uiso   1.00
H76    H     0.26337   0.49689   0.37218   0.00000  Uiso   1.00
H77    H     0.21501   0.30668   0.13100   0.00000  Uiso   1.00
H78    H     0.09874   0.21069   0.36637   0.00000  Uiso   1.00
O79    O     0.10796   0.18946   0.12335   0.00000  Uiso   1.00
C80    C     0.11483   0.14527   0.10919   0.00000  Uiso   1.00
H81    H     0.10221   0.12298   0.13707   0.00000  Uiso   1.00
H82    H     0.15603   0.13760   0.10682   0.00000  Uiso   1.00
H83    H     0.08995   0.13769   0.07434   0.00000  Uiso   1.00
O84    O     0.23964   0.29797   0.37903   0.00000  Uiso   1.00
C85    C     0.29092   0.28845   0.39971   0.00000  Uiso   1.00
H86    H     0.31726   0.29962   0.37408   0.00000  Uiso   1.00
H87    H     0.29732   0.25233   0.40575   0.00000  Uiso   1.00
H88    H     0.30189   0.30724   0.43397   0.00000  Uiso   1.00
H89    H     0.11604   0.19351   0.02871   0.00000  Uiso   1.00
H90    H     0.23440   0.29110   0.47368   0.00000  Uiso   1.00
O91    O     0.50000   0.18572   0.29071   0.00000  Uiso   1.00
O92    O     0.50000   0.31427   0.20928   0.00000  Uiso   1.00
O93    O     0.50000   0.18573   0.20928   0.00000  Uiso   1.00
O94    O     0.50000   0.31427   0.29072   0.00000  Uiso   1.00
C95    C     0.49885   0.16501   0.24989   0.00000  Uiso   1.00
C96    C     0.49871   0.33506   0.24975   0.00000  Uiso   1.00
O97    O     0.42495   0.24999   0.28132   0.00000  Uiso   1.00
O98    O     0.57505   0.25000   0.21868   0.00000  Uiso   1.00
O99    O     0.42495   0.25000   0.19988   0.00000  Uiso   1.00
O100   O     0.57505   0.25000   0.30011   0.00000  Uiso   1.00
C101   C     0.40123   0.24997   0.23751   0.00000  Uiso   1.00
C102   C     0.59878   0.24989   0.26249   0.00000  Uiso   1.00
Cu103  Cu    0.50000   0.24999   0.29821   0.00000  Uiso   1.00
Cu104  Cu    0.50000   0.25000   0.20178   0.00000  Uiso   1.00
C105   C     0.34588   0.25006   0.23067   0.00000  Uiso   1.00
C106   C     0.65413   0.24954   0.26932   0.00000  Uiso   1.00
H107   H     0.65906   0.25067   0.19366   0.00000  Uiso   1.00
H108   H     0.34099   0.24880   0.30630   0.00000  Uiso   1.00
C109   C     0.46242   0.04831   0.28042   0.00000  Uiso   1.00
C110   C     0.46832   0.45181   0.20652   0.00000  Uiso   1.00
C111   C     0.46526   0.09459   0.28100   0.00000  Uiso   1.00
C112   C     0.47118   0.40558   0.20668   0.00000  Uiso   1.00
C113   C     0.49451   0.11684   0.24937   0.00000  Uiso   1.00
C114   C     0.49419   0.38332   0.24891   0.00000  Uiso   1.00
C115   C     0.51902   0.09298   0.21631   0.00000  Uiso   1.00
C116   C     0.51221   0.40734   0.29099   0.00000  Uiso   1.00
C117   C     0.51745   0.04694   0.21605   0.00000  Uiso   1.00
C118   C     0.51071   0.45335   0.29094   0.00000  Uiso   1.00
C119   C     0.48910   0.02438   0.24811   0.00000  Uiso   1.00
C120   C     0.48886   0.47584   0.24862   0.00000  Uiso   1.00
C121   C     0.52634   0.28313   0.05783   0.00000  Uiso   1.00
C122   C     0.46027   0.22860   0.44037   0.00000  Uiso   1.00
H123   H     0.54688   0.31003   0.04330   0.00000  Uiso   1.00
H124   H     0.42810   0.21203   0.45330   0.00000  Uiso   1.00
C125   C     0.52684   0.28176   0.10843   0.00000  Uiso   1.00
C126   C     0.46194   0.22816   0.39005   0.00000  Uiso   1.00
N127   N     0.50000   0.25001   0.12934   0.00000  Uiso   1.00
N128   N     0.50000   0.24999   0.37065   0.00000  Uiso   1.00
C129   C     0.47223   0.21844   0.10127   0.00000  Uiso   1.00
C130   C     0.53784   0.27251   0.40022   0.00000  Uiso   1.00
C131   C     0.47153   0.21861   0.05014   0.00000  Uiso   1.00
C132   C     0.53760   0.27307   0.45120   0.00000  Uiso   1.00
C133   C     0.49889   0.25096   0.02728   0.00000  Uiso   1.00
C134   C     0.49881   0.25087   0.47247   0.00000  Uiso   1.00
O135   O     0.43678   0.02725   0.31449   0.00000  Uiso   1.00
C136   C     0.38977   0.00864   0.29169   0.00000  Uiso   1.00
H137   H     0.39579   0.47418   0.28015   0.00000  Uiso   1.00
H138   H     0.37098   0.02830   0.26026   0.00000  Uiso   1.00
H139   H     0.36234   0.00715   0.31865   0.00000  Uiso   1.00
O140   O     0.44909   0.47281   0.16344   0.00000  Uiso   1.00
C141   C     0.40006   0.49086   0.16683   0.00000  Uiso   1.00
H142   H     0.40422   0.02530   0.18068   0.00000  Uiso   1.00
H143   H     0.37671   0.47078   0.18953   0.00000  Uiso   1.00
H144   H     0.37786   0.49231   0.12978   0.00000  Uiso   1.00
O145   O     0.44116   0.11774   0.31430   0.00000  Uiso   1.00
C146   C     0.39211   0.13137   0.29151   0.00000  Uiso   1.00
H147   H     0.39454   0.15095   0.25798   0.00000  Uiso   1.00
H148   H     0.37475   0.15295   0.31699   0.00000  Uiso   1.00
H149   H     0.36569   0.10261   0.28299   0.00000  Uiso   1.00
O150   O     0.45375   0.38263   0.16436   0.00000  Uiso   1.00
C151   C     0.40246   0.36829   0.16582   0.00000  Uiso   1.00
H152   H     0.39843   0.34931   0.19945   0.00000  Uiso   1.00
H153   H     0.39075   0.34586   0.13454   0.00000  Uiso   1.00
H154   H     0.37551   0.39665   0.16216   0.00000  Uiso   1.00
H155   H     0.54053   0.11007   0.19123   0.00000  Uiso   1.00
H156   H     0.52889   0.39049   0.32387   0.00000  Uiso   1.00
O157   O     0.54097   0.02418   0.18210   0.00000  Uiso   1.00
C158   C     0.59389   0.01937   0.19983   0.00000  Uiso   1.00
H159   H     0.59933   0.49494   0.22994   0.00000  Uiso   1.00
H160   H     0.61295   0.05147   0.21155   0.00000  Uiso   1.00
H161   H     0.61358   0.00621   0.17012   0.00000  Uiso   1.00
O162   O     0.52811   0.47595   0.33346   0.00000  Uiso   1.00
C163   C     0.58120   0.48547   0.33500   0.00000  Uiso   1.00
H164   H     0.58708   0.01287   0.30968   0.00000  Uiso   1.00
H165   H     0.60380   0.45586   0.32718   0.00000  Uiso   1.00
H166   H     0.59671   0.49689   0.37218   0.00000  Uiso   1.00
H167   H     0.54834   0.30668   0.13100   0.00000  Uiso   1.00
H168   H     0.43208   0.21069   0.36637   0.00000  Uiso   1.00
O169   O     0.44129   0.18946   0.12335   0.00000  Uiso   1.00
C170   C     0.44816   0.14527   0.10919   0.00000  Uiso   1.00
H171   H     0.43554   0.12298   0.13707   0.00000  Uiso   1.00
H172   H     0.48936   0.13760   0.10682   0.00000  Uiso   1.00
H173   H     0.42329   0.13769   0.07434   0.00000  Uiso   1.00
O174   O     0.57298   0.29797   0.37903   0.00000  Uiso   1.00
C175   C     0.62425   0.28845   0.39971   0.00000  Uiso   1.00
H176   H     0.65059   0.29962   0.37408   0.00000  Uiso   1.00
H177   H     0.63065   0.25233   0.40575   0.00000  Uiso   1.00
H178   H     0.63522   0.30724   0.43397   0.00000  Uiso   1.00
H179   H     0.44938   0.19351   0.02871   0.00000  Uiso   1.00
H180   H     0.56773   0.29110   0.47368   0.00000  Uiso   1.00
O181   O     0.83334   0.18572   0.29071   0.00000  Uiso   1.00
O182   O     0.83333   0.31427   0.20928   0.00000  Uiso   1.00
O183   O     0.83334   0.18573   0.20928   0.00000  Uiso   1.00
O184   O     0.83333   0.31427   0.29072   0.00000  Uiso   1.00
C185   C     0.83218   0.16501   0.24989   0.00000  Uiso   1.00
C186   C     0.83205   0.33506   0.24975   0.00000  Uiso   1.00
O187   O     0.75828   0.24999   0.28132   0.00000  Uiso   1.00
O188   O     0.90839   0.25000   0.21868   0.00000  Uiso   1.00
O189   O     0.75828   0.25000   0.19988   0.00000  Uiso   1.00
O190   O     0.90839   0.25000   0.30011   0.00000  Uiso   1.00
C191   C     0.73456   0.24997   0.23751   0.00000  Uiso   1.00
C192   C     0.93211   0.24989   0.26249   0.00000  Uiso   1.00
Cu193  Cu    0.83333   0.24999   0.29821   0.00000  Uiso   1.00
Cu194  Cu    0.83333   0.25000   0.20178   0.00000  Uiso   1.00
C195   C     0.67922   0.25006   0.23067   0.00000  Uiso   1.00
C196   C     0.98747   0.24954   0.26932   0.00000  Uiso   1.00
H197   H     0.99239   0.25067   0.19366   0.00000  Uiso   1.00
H198   H     0.67432   0.24880   0.30630   0.00000  Uiso   1.00
C199   C     0.79575   0.04831   0.28042   0.00000  Uiso   1.00
C200   C     0.80165   0.45181   0.20652   0.00000  Uiso   1.00
C201   C     0.79859   0.09459   0.28100   0.00000  Uiso   1.00
C202   C     0.80451   0.40558   0.20668   0.00000  Uiso   1.00
C203   C     0.82785   0.11684   0.24937   0.00000  Uiso   1.00
C204   C     0.82752   0.38332   0.24891   0.00000  Uiso   1.00
C205   C     0.85235   0.09298   0.21631   0.00000  Uiso   1.00
C206   C     0.84554   0.40734   0.29099   0.00000  Uiso   1.00
C207   C     0.85079   0.04694   0.21605   0.00000  Uiso   1.00
C208   C     0.84405   0.45335   0.29094   0.00000  Uiso   1.00
C209   C     0.82243   0.02438   0.24811   0.00000  Uiso   1.00
C210   C     0.82219   0.47584   0.24862   0.00000  Uiso   1.00
C211   C     0.85968   0.28313   0.05783   0.00000  Uiso   1.00
C212   C     0.79360   0.22860   0.44037   0.00000  Uiso   1.00
H213   H     0.88021   0.31003   0.04330   0.00000  Uiso   1.00
H214   H     0.76143   0.21203   0.45330   0.00000  Uiso   1.00
C215   C     0.86017   0.28176   0.10843   0.00000  Uiso   1.00
C216   C     0.79527   0.22816   0.39005   0.00000  Uiso   1.00
N217   N     0.83333   0.25001   0.12934   0.00000  Uiso   1.00
N218   N     0.83333   0.24999   0.37065   0.00000  Uiso   1.00
C219   C     0.80556   0.21844   0.10127   0.00000  Uiso   1.00
C220   C     0.87118   0.27251   0.40022   0.00000  Uiso   1.00
C221   C     0.80486   0.21861   0.05014   0.00000  Uiso   1.00
C222   C     0.87093   0.27307   0.45120   0.00000  Uiso   1.00
C223   C     0.83222   0.25096   0.02728   0.00000  Uiso   1.00
C224   C     0.83214   0.25087   0.47247   0.00000  Uiso   1.00
O225   O     0.77012   0.02725   0.31449   0.00000  Uiso   1.00
C226   C     0.72311   0.00864   0.29169   0.00000  Uiso   1.00
H227   H     0.72912   0.47418   0.28015   0.00000  Uiso   1.00
H228   H     0.70431   0.02830   0.26026   0.00000  Uiso   1.00
H229   H     0.69568   0.00715   0.31865   0.00000  Uiso   1.00
O230   O     0.78242   0.47281   0.16344   0.00000  Uiso   1.00
C231   C     0.73340   0.49086   0.16683   0.00000  Uiso   1.00
H232   H     0.73755   0.02530   0.18068   0.00000  Uiso   1.00
H233   H     0.71005   0.47078   0.18953   0.00000  Uiso   1.00
H234   H     0.71120   0.49231   0.12978   0.00000  Uiso   1.00
O235   O     0.77450   0.11774   0.31430   0.00000  Uiso   1.00
C236   C     0.72544   0.13137   0.29151   0.00000  Uiso   1.00
H237   H     0.72787   0.15095   0.25798   0.00000  Uiso   1.00
H238   H     0.70809   0.15295   0.31699   0.00000  Uiso   1.00
H239   H     0.69903   0.10261   0.28299   0.00000  Uiso   1.00
O240   O     0.78708   0.38263   0.16436   0.00000  Uiso   1.00
C241   C     0.73579   0.36829   0.16582   0.00000  Uiso   1.00
H242   H     0.73176   0.34931   0.19945   0.00000  Uiso   1.00
H243   H     0.72409   0.34586   0.13454   0.00000  Uiso   1.00
H244   H     0.70884   0.39665   0.16216   0.00000  Uiso   1.00
H245   H     0.87386   0.11007   0.19123   0.00000  Uiso   1.00
H246   H     0.86222   0.39049   0.32387   0.00000  Uiso   1.00
O247   O     0.87430   0.02418   0.18210   0.00000  Uiso   1.00
C248   C     0.92722   0.01937   0.19983   0.00000  Uiso   1.00
H249   H     0.93266   0.49494   0.22994   0.00000  Uiso   1.00
H250   H     0.94628   0.05147   0.21155   0.00000  Uiso   1.00
H251   H     0.94691   0.00621   0.17012   0.00000  Uiso   1.00
O252   O     0.86144   0.47595   0.33346   0.00000  Uiso   1.00
C253   C     0.91454   0.48547   0.33500   0.00000  Uiso   1.00
H254   H     0.92042   0.01287   0.30968   0.00000  Uiso   1.00
H255   H     0.93713   0.45586   0.32718   0.00000  Uiso   1.00
H256   H     0.93004   0.49689   0.37218   0.00000  Uiso   1.00
H257   H     0.88167   0.30668   0.13100   0.00000  Uiso   1.00
H258   H     0.76541   0.21069   0.36637   0.00000  Uiso   1.00
O259   O     0.77463   0.18946   0.12335   0.00000  Uiso   1.00
C260   C     0.78150   0.14527   0.10919   0.00000  Uiso   1.00
H261   H     0.76887   0.12298   0.13707   0.00000  Uiso   1.00
H262   H     0.82270   0.13760   0.10682   0.00000  Uiso   1.00
H263   H     0.75662   0.13769   0.07434   0.00000  Uiso   1.00
O264   O     0.90631   0.29797   0.37903   0.00000  Uiso   1.00
C265   C     0.95758   0.28845   0.39971   0.00000  Uiso   1.00
H266   H     0.98392   0.29962   0.37408   0.00000  Uiso   1.00
H267   H     0.96399   0.25233   0.40575   0.00000  Uiso   1.00
H268   H     0.96855   0.30724   0.43397   0.00000  Uiso   1.00
H269   H     0.78271   0.19351   0.02871   0.00000  Uiso   1.00
H270   H     0.90106   0.29110   0.47368   0.00000  Uiso   1.00
O271   O     0.16667   0.68572   0.29071   0.00000  Uiso   1.00
O272   O     0.16666   0.81427   0.20928   0.00000  Uiso   1.00
O273   O     0.16667   0.68573   0.20928   0.00000  Uiso   1.00
O274   O     0.16666   0.81427   0.29072   0.00000  Uiso   1.00
C275   C     0.16551   0.66501   0.24989   0.00000  Uiso   1.00
C276   C     0.16538   0.83506   0.24975   0.00000  Uiso   1.00
O277   O     0.09161   0.74999   0.28132   0.00000  Uiso   1.00
O278   O     0.24172   0.75000   0.21868   0.00000  Uiso   1.00
O279   O     0.09161   0.75000   0.19988   0.00000  Uiso   1.00
O280   O     0.24172   0.75000   0.30011   0.00000  Uiso   1.00
C281   C     0.06790   0.74997   0.23751   0.00000  Uiso   1.00
C282   C     0.26544   0.74989   0.26249   0.00000  Uiso   1.00
Cu283  Cu    0.16667   0.74999   0.29821   0.00000  Uiso   1.00
Cu284  Cu    0.16667   0.75000   0.20178   0.00000  Uiso   1.00
C285   C     0.01255   0.75006   0.23067   0.00000  Uiso   1.00
C286   C     0.32080   0.74954   0.26932   0.00000  Uiso   1.00
H287   H     0.32573   0.75067   0.19366   0.00000  Uiso   1.00
H288   H     0.00766   0.74880   0.30630   0.00000  Uiso   1.00
C289   C     0.12908   0.54831   0.28042   0.00000  Uiso   1.00
C290   C     0.13498   0.95181   0.20652   0.00000  Uiso   1.00
C291   C     0.13193   0.59459   0.28100   0.00000  Uiso   1.00
C292   C     0.13785   0.90558   0.20668   0.00000  Uiso   1.00
C293   C     0.16118   0.61684   0.24937   0.00000  Uiso   1.00
C294   C     0.16085   0.88332   0.24891   0.00000  Uiso   1.00
C295   C     0.18569   0.59298   0.21631   0.00000  Uiso   1.00
C296   C     0.17888   0.90734   0.29099   0.00000  Uiso   1.00
C297   C     0.18412   0.54694   0.21605   0.00000  Uiso   1.00
C298   C     0.17738   0.95335   0.29094   0.00000  Uiso   1.00
C299   C     0.15576   0.52438   0.24811   0.00000  Uiso   1.00
C300   C     0.15553   0.97584   0.24862   0.00000  Uiso   1.00
C301   C     0.19301   0.78313   0.05783   0.00000  Uiso   1.00
C302   C     0.12694   0.72860   0.44037   0.00000  Uiso   1.00
H303   H     0.21354   0.81003   0.04330   0.00000  Uiso   1.00
H304   H     0.09476   0.71203   0.45330   0.00000  Uiso   1.00
C305   C     0.19351   0.78176   0.10843   0.00000  Uiso   1.00
C306   C     0.12861   0.72816   0.39005   0.00000  Uiso   1.00
N307   N     0.16667   0.75001   0.12934   0.00000  Uiso   1.00
N308   N     0.16667   0.74999   0.37065   0.00000  Uiso   1.00
C309   C     0.13889   0.71844   0.10127   0.00000  Uiso   1.00
C310   C     0.20451   0.77251   0.40022   0.00000  Uiso   1.00
C311   C     0.13819   0.71861   0.05014   0.00000  Uiso   1.00
C312   C     0.20427   0.77307   0.45120   0.00000  Uiso   1.00
C313   C     0.16555   0.75096   0.02728   0.00000  Uiso   1.00
C314   C     0.16547   0.75087   0.47247   0.00000  Uiso   1.00
O315   O     0.10345   0.52725   0.31449   0.00000  Uiso   1.00
C316   C     0.05644   0.50864   0.29169   0.00000  Uiso   1.00
H317   H     0.06246   0.97418   0.28015   0.00000  Uiso   1.00
H318   H     0.03764   0.52830   0.26026   0.00000  Uiso   1.00
H319   H     0.02901   0.50715   0.31865   0.00000  Uiso   1.00
O320   O     0.11576   0.97281   0.16344   0.00000  Uiso   1.00
C321   C     0.06673   0.99086   0.16683   0.00000  Uiso   1.00
H322   H     0.07088   0.52530   0.18068   0.00000  Uiso   1.00
H323   H     0.04338   0.97078   0.18953   0.00000  Uiso   1.00
H324   H     0.04453   0.99231   0.12978   0.00000  Uiso   1.00
O325   O     0.10783   0.61774   0.31430   0.00000  Uiso   1.00
C326   C     0.05878   0.63137   0.29151   0.00000  Uiso   1.00
H327   H     0.06121   0.65095   0.25798   0.00000  Uiso   1.00
H328   H     0.04142   0.65295   0.31699   0.00000  Uiso   1.00
H329   H     0.03236   0.60261   0.28299   0.00000  Uiso   1.00
O330   O     0.12042   0.88263   0.16436   0.00000  Uiso   1.00
C331   C     0.06912   0.86829   0.16582   0.00000  Uiso   1.00
H332   H     0.06510   0.84931   0.19945   0.00000  Uiso   1.00
H333   H     0.05742   0.84586   0.13454   0.00000  Uiso   1.00
H334   H     0.04217   0.89665   0.16216   0.00000  Uiso   1.00
H335   H     0.20720   0.61007   0.19123   0.00000  Uiso   1.00
H336   H     0.19555   0.89049   0.32387   0.00000  Uiso   1.00
O337   O     0.20764   0.52418   0.18210   0.00000  Uiso   1.00
C338   C     0.26056   0.51937   0.19983   0.00000  Uiso   1.00
H339   H     0.26599   0.99494   0.22994   0.00000  Uiso   1.00
H340   H     0.27962   0.55147   0.21155   0.00000  Uiso   1.00
H341   H     0.28025   0.50621   0.17012   0.00000  Uiso   1.00
O342   O     0.19477   0.97595   0.33346   0.00000  Uiso   1.00
C343   C     0.24787   0.98547   0.33500   0.00000  Uiso   1.00
H344   H     0.25375   0.51287   0.30968   0.00000  Uiso   1.00
H345   H     0.27046   0.95586   0.32718   0.00000  Uiso   1.00
H346   H     0.26337   0.99689   0.37218   0.00000  Uiso   1.00
H347   H     0.21501   0.80668   0.13100   0.00000  Uiso   1.00
H348   H     0.09874   0.71069   0.36637   0.00000  Uiso   1.00
O349   O     0.10796   0.68946   0.12335   0.00000  Uiso   1.00
C350   C     0.11483   0.64527   0.10919   0.00000  Uiso   1.00
H351   H     0.10221   0.62298   0.13707   0.00000  Uiso   1.00
H352   H     0.15603   0.63760   0.10682   0.00000  Uiso   1.00
H353   H     0.08995   0.63769   0.07434   0.00000  Uiso   1.00
O354   O     0.23964   0.79797   0.37903   0.00000  Uiso   1.00
C355   C     0.29092   0.78845   0.39971   0.00000  Uiso   1.00
H356   H     0.31726   0.79962   0.37408   0.00000  Uiso   1.00
H357   H     0.29732   0.75233   0.40575   0.00000  Uiso   1.00
H358   H     0.30189   0.80724   0.43397   0.00000  Uiso   1.00
H359   H     0.11604   0.69351   0.02871   0.00000  Uiso   1.00
H360   H     0.23440   0.79110   0.47368   0.00000  Uiso   1.00
O361   O     0.50000   0.68572   0.29071   0.00000  Uiso   1.00
O362   O     0.50000   0.81427   0.20928   0.00000  Uiso   1.00
O363   O     0.50000   0.68573   0.20928   0.00000  Uiso   1.00
O364   O     0.50000   0.81427   0.29072   0.00000  Uiso   1.00
C365   C     0.49885   0.66501   0.24989   0.00000  Uiso   1.00
C366   C     0.49871   0.83506   0.24975   0.00000  Uiso   1.00
O367   O     0.42495   0.74999   0.28132   0.00000  Uiso   1.00
O368   O     0.57505   0.75000   0.21868   0.00000  Uiso   1.00
O369   O     0.42495   0.75000   0.19988   0.00000  Uiso   1.00
O370   O     0.57505   0.75000   0.30011   0.00000  Uiso   1.00
C371   C     0.40123   0.74997   0.23751   0.00000  Uiso   1.00
C372   C     0.59878   0.74989   0.26249   0.00000  Uiso   1.00
Cu373  Cu    0.50000   0.74999   0.29821   0.00000  Uiso   1.00
Cu374  Cu    0.50000   0.75000   0.20178   0.00000  Uiso   1.00
C375   C     0.34588   0.75006   0.23067   0.00000  Uiso   1.00
C376   C     0.65413   0.74954   0.26932   0.00000  Uiso   1.00
H377   H     0.65906   0.75067   0.19366   0.00000  Uiso   1.00
H378   H     0.34099   0.74880   0.30630   0.00000  Uiso   1.00
C379   C     0.46242   0.54831   0.28042   0.00000  Uiso   1.00
C380   C     0.46832   0.95181   0.20652   0.00000  Uiso   1.00
C381   C     0.46526   0.59459   0.28100   0.00000  Uiso   1.00
C382   C     0.47118   0.90558   0.20668   0.00000  Uiso   1.00
C383   C     0.49451   0.61684   0.24937   0.00000  Uiso   1.00
C384   C     0.49419   0.88332   0.24891   0.00000  Uiso   1.00
C385   C     0.51902   0.59298   0.21631   0.00000  Uiso   1.00
C386   C     0.51221   0.90734   0.29099   0.00000  Uiso   1.00
C387   C     0.51745   0.54694   0.21605   0.00000  Uiso   1.00
C388   C     0.51071   0.95335   0.29094   0.00000  Uiso   1.00
C389   C     0.48910   0.52438   0.24811   0.00000  Uiso   1.00
C390   C     0.48886   0.97584   0.24862   0.00000  Uiso   1.00
C391   C     0.52634   0.78313   0.05783   0.00000  Uiso   1.00
C392   C     0.46027   0.72860   0.44037   0.00000  Uiso   1.00
H393   H     0.54688   0.81003   0.04330   0.00000  Uiso   1.00
H394   H     0.42810   0.71203   0.45330   0.00000  Uiso   1.00
C395   C     0.52684   0.78176   0.10843   0.00000  Uiso   1.00
C396   C     0.46194   0.72816   0.39005   0.00000  Uiso   1.00
N397   N     0.50000   0.75001   0.12934   0.00000  Uiso   1.00
N398   N     0.50000   0.74999   0.37065   0.00000  Uiso   1.00
C399   C     0.47223   0.71844   0.10127   0.00000  Uiso   1.00
C400   C     0.53784   0.77251   0.40022   0.00000  Uiso   1.00
C401   C     0.47153   0.71861   0.05014   0.00000  Uiso   1.00
C402   C     0.53760   0.77307   0.45120   0.00000  Uiso   1.00
C403   C     0.49889   0.75096   0.02728   0.00000  Uiso   1.00
C404   C     0.49881   0.75087   0.47247   0.00000  Uiso   1.00
O405   O     0.43678   0.52725   0.31449   0.00000  Uiso   1.00
C406   C     0.38977   0.50864   0.29169   0.00000  Uiso   1.00
H407   H     0.39579   0.97418   0.28015   0.00000  Uiso   1.00
H408   H     0.37098   0.52830   0.26026   0.00000  Uiso   1.00
H409   H     0.36234   0.50715   0.31865   0.00000  Uiso   1.00
O410   O     0.44909   0.97281   0.16344   0.00000  Uiso   1.00
C411   C     0.40006   0.99086   0.16683   0.00000  Uiso   1.00
H412   H     0.40422   0.52530   0.18068   0.00000  Uiso   1.00
H413   H     0.37671   0.97078   0.18953   0.00000  Uiso   1.00
H414   H     0.37786   0.99231   0.12978   0.00000  Uiso   1.00
O415   O     0.44116   0.61774   0.31430   0.00000  Uiso   1.00
C416   C     0.39211   0.63137   0.29151   0.00000  Uiso   1.00
H417   H     0.39454   0.65095   0.25798   0.00000  Uiso   1.00
H418   H     0.37475   0.65295   0.31699   0.00000  Uiso   1.00
H419   H     0.36569   0.60261   0.28299   0.00000  Uiso   1.00
O420   O     0.45375   0.88263   0.16436   0.00000  Uiso   1.00
C421   C     0.40246   0.86829   0.16582   0.00000  Uiso   1.00
H422   H     0.39843   0.84931   0.19945   0.00000  Uiso   1.00
H423   H     0.39075   0.84586   0.13454   0.00000  Uiso   1.00
H424   H     0.37551   0.89665   0.16216   0.00000  Uiso   1.00
H425   H     0.54053   0.61007   0.19123   0.00000  Uiso   1.00
H426   H     0.52889   0.89049   0.32387   0.00000  Uiso   1.00
O427   O     0.54097   0.52418   0.18210   0.00000  Uiso   1.00
C428   C     0.59389   0.51937   0.19983   0.00000  Uiso   1.00
H429   H     0.59933   0.99494   0.22994   0.00000  Uiso   1.00
H430   H     0.61295   0.55147   0.21155   0.00000  Uiso   1.00
H431   H     0.61358   0.50621   0.17012   0.00000  Uiso   1.00
O432   O     0.52811   0.97595   0.33346   0.00000  Uiso   1.00
C433   C     0.58120   0.98547   0.33500   0.00000  Uiso   1.00
H434   H     0.58708   0.51287   0.30968   0.00000  Uiso   1.00
H435   H     0.60380   0.95586   0.32718   0.00000  Uiso   1.00
H436   H     0.59671   0.99689   0.37218   0.00000  Uiso   1.00
H437   H     0.54834   0.80668   0.13100   0.00000  Uiso   1.00
H438   H     0.43208   0.71069   0.36637   0.00000  Uiso   1.00
O439   O     0.44129   0.68946   0.12335   0.00000  Uiso   1.00
C440   C     0.44816   0.64527   0.10919   0.00000  Uiso   1.00
H441   H     0.43554   0.62298   0.13707   0.00000  Uiso   1.00
H442   H     0.48936   0.63760   0.10682   0.00000  Uiso   1.00
H443   H     0.42329   0.63769   0.07434   0.00000  Uiso   1.00
O444   O     0.57298   0.79797   0.37903   0.00000  Uiso   1.00
C445   C     0.62425   0.78845   0.39971   0.00000  Uiso   1.00
H446   H     0.65059   0.79962   0.37408   0.00000  Uiso   1.00
H447   H     0.63065   0.75233   0.40575   0.00000  Uiso   1.00
H448   H     0.63522   0.80724   0.43397   0.00000  Uiso   1.00
H449   H     0.44938   0.69351   0.02871   0.00000  Uiso   1.00
H450   H     0.56773   0.79110   0.47368   0.00000  Uiso   1.00
O451   O     0.83334   0.68572   0.29071   0.00000  Uiso   1.00
O452   O     0.83333   0.81427   0.20928   0.00000  Uiso   1.00
O453   O     0.83334   0.68573   0.20928   0.00000  Uiso   1.00
O454   O     0.83333   0.81427   0.29072   0.00000  Uiso   1.00
C455   C     0.83218   0.66501   0.24989   0.00000  Uiso   1.00
C456   C     0.83205   0.83506   0.24975   0.00000  Uiso   1.00
O457   O     0.75828   0.74999   0.28132   0.00000  Uiso   1.00
O458   O     0.90839   0.75000   0.21868   0.00000  Uiso   1.00
O459   O     0.75828   0.75000   0.19988   0.00000  Uiso   1.00
O460   O     0.90839   0.75000   0.30011   0.00000  Uiso   1.00
C461   C     0.73456   0.74997   0.23751   0.00000  Uiso   1.00
C462   C     0.93211   0.74989   0.26249   0.00000  Uiso   1.00
Cu463  Cu    0.83333   0.74999   0.29821   0.00000  Uiso   1.00
Cu464  Cu    0.83333   0.75000   0.20178   0.00000  Uiso   1.00
C465   C     0.67922   0.75006   0.23067   0.00000  Uiso   1.00
C466   C     0.98747   0.74954   0.26932   0.00000  Uiso   1.00
H467   H     0.99239   0.75067   0.19366   0.00000  Uiso   1.00
H468   H     0.67432   0.74880   0.30630   0.00000  Uiso   1.00
C469   C     0.79575   0.54831   0.28042   0.00000  Uiso   1.00
C470   C     0.80165   0.95181   0.20652   0.00000  Uiso   1.00
C471   C     0.79859   0.59459   0.28100   0.00000  Uiso   1.00
C472   C     0.80451   0.90558   0.20668   0.00000  Uiso   1.00
C473   C     0.82785   0.61684   0.24937   0.00000  Uiso   1.00
C474   C     0.82752   0.88332   0.24891   0.00000  Uiso   1.00
C475   C     0.85235   0.59298   0.21631   0.00000  Uiso   1.00
C476   C     0.84554   0.90734   0.29099   0.00000  Uiso   1.00
C477   C     0.85079   0.54694   0.21605   0.00000  Uiso   1.00
C478   C     0.84405   0.95335   0.29094   0.00000  Uiso   1.00
C479   C     0.82243   0.52438   0.24811   0.00000  Uiso   1.00
C480   C     0.82219   0.97584   0.24862   0.00000  Uiso   1.00
C481   C     0.85968   0.78313   0.05783   0.00000  Uiso   1.00
C482   C     0.79360   0.72860   0.44037   0.00000  Uiso   1.00
H483   H     0.88021   0.81003   0.04330   0.00000  Uiso   1.00
H484   H     0.76143   0.71203   0.45330   0.00000  Uiso   1.00
C485   C     0.86017   0.78176   0.10843   0.00000  Uiso   1.00
C486   C     0.79527   0.72816   0.39005   0.00000  Uiso   1.00
N487   N     0.83333   0.75001   0.12934   0.00000  Uiso   1.00
N488   N     0.83333   0.74999   0.37065   0.00000  Uiso   1.00
C489   C     0.80556   0.71844   0.10127   0.00000  Uiso   1.00
C490   C     0.87118   0.77251   0.40022   0.00000  Uiso   1.00
C491   C     0.80486   0.71861   0.05014   0.00000  Uiso   1.00
C492   C     0.87093   0.77307   0.45120   0.00000  Uiso   1.00
C493   C     0.83222   0.75096   0.02728   0.00000  Uiso   1.00
C494   C     0.83214   0.75087   0.47247   0.00000  Uiso   1.00
O495   O     0.77012   0.52725   0.31449   0.00000  Uiso   1.00
C496   C     0.72311   0.50864   0.29169   0.00000  Uiso   1.00
H497   H     0.72912   0.97418   0.28015   0.00000  Uiso   1.00
H498   H     0.70431   0.52830   0.26026   0.00000  Uiso   1.00
H499   H     0.69568   0.50715   0.31865   0.00000  Uiso   1.00
O500   O     0.78242   0.97281   0.16344   0.00000  Uiso   1.00
C501   C     0.73340   0.99086   0.16683   0.00000  Uiso   1.00
H502   H     0.73755   0.52530   0.18068   0.00000  Uiso   1.00
H503   H     0.71005   0.97078   0.18953   0.00000  Uiso   1.00
H504   H     0.71120   0.99231   0.12978   0.00000  Uiso   1.00
O505   O     0.77450   0.61774   0.31430   0.00000  Uiso   1.00
C506   C     0.72544   0.63137   0.29151   0.00000  Uiso   1.00
H507   H     0.72787   0.65095   0.25798   0.00000  Uiso   1.00
H508   H     0.70809   0.65295   0.31699   0.00000  Uiso   1.00
H509   H     0.69903   0.60261   0.28299   0.00000  Uiso   1.00
O510   O     0.78708   0.88263   0.16436   0.00000  Uiso   1.00
C511   C     0.73579   0.86829   0.16582   0.00000  Uiso   1.00
H512   H     0.73176   0.84931   0.19945   0.00000  Uiso   1.00
H513   H     0.72409   0.84586   0.13454   0.00000  Uiso   1.00
H514   H     0.70884   0.89665   0.16216   0.00000  Uiso   1.00
H515   H     0.87386   0.61007   0.19123   0.00000  Uiso   1.00
H516   H     0.86222   0.89049   0.32387   0.00000  Uiso   1.00
O517   O     0.87430   0.52418   0.18210   0.00000  Uiso   1.00
C518   C     0.92722   0.51937   0.19983   0.00000  Uiso   1.00
H519   H     0.93266   0.99494   0.22994   0.00000  Uiso   1.00
H520   H     0.94628   0.55147   0.21155   0.00000  Uiso   1.00
H521   H     0.94691   0.50621   0.17012   0.00000  Uiso   1.00
O522   O     0.86144   0.97595   0.33346   0.00000  Uiso   1.00
C523   C     0.91454   0.98547   0.33500   0.00000  Uiso   1.00
H524   H     0.92042   0.51287   0.30968   0.00000  Uiso   1.00
H525   H     0.93713   0.95586   0.32718   0.00000  Uiso   1.00
H526   H     0.93004   0.99689   0.37218   0.00000  Uiso   1.00
H527   H     0.88167   0.80668   0.13100   0.00000  Uiso   1.00
H528   H     0.76541   0.71069   0.36637   0.00000  Uiso   1.00
O529   O     0.77463   0.68946   0.12335   0.00000  Uiso   1.00
C530   C     0.78150   0.64527   0.10919   0.00000  Uiso   1.00
H531   H     0.76887   0.62298   0.13707   0.00000  Uiso   1.00
H532   H     0.82270   0.63760   0.10682   0.00000  Uiso   1.00
H533   H     0.75662   0.63769   0.07434   0.00000  Uiso   1.00
O534   O     0.90631   0.79797   0.37903   0.00000  Uiso   1.00
C535   C     0.95758   0.78845   0.39971   0.00000  Uiso   1.00
H536   H     0.98392   0.79962   0.37408   0.00000  Uiso   1.00
H537   H     0.96399   0.75233   0.40575   0.00000  Uiso   1.00
H538   H     0.96855   0.80724   0.43397   0.00000  Uiso   1.00
H539   H     0.78271   0.69351   0.02871   0.00000  Uiso   1.00
H540   H     0.90106   0.79110   0.47368   0.00000  Uiso   1.00
O541   O     0.16667   0.18572   0.79071   0.00000  Uiso   1.00
O542   O     0.16666   0.31427   0.70928   0.00000  Uiso   1.00
O543   O     0.16667   0.18573   0.70928   0.00000  Uiso   1.00
O544   O     0.16666   0.31427   0.79072   0.00000  Uiso   1.00
C545   C     0.16551   0.16501   0.74989   0.00000  Uiso   1.00
C546   C     0.16538   0.33506   0.74975   0.00000  Uiso   1.00
O547   O     0.09161   0.24999   0.78132   0.00000  Uiso   1.00
O548   O     0.24172   0.25000   0.71868   0.00000  Uiso   1.00
O549   O     0.09161   0.25000   0.69988   0.00000  Uiso   1.00
O550   O     0.24172   0.25000   0.80011   0.00000  Uiso   1.00
C551   C     0.06790   0.24997   0.73751   0.00000  Uiso   1.00
C552   C     0.26544   0.24989   0.76249   0.00000  Uiso   1.00
Cu553  Cu    0.16667   0.24999   0.79821   0.00000  Uiso   1.00
Cu554  Cu    0.16667   0.25000   0.70178   0.00000  Uiso   1.00
C555   C     0.01255   0.25006   0.73067   0.00000  Uiso   1.00
C556   C     0.32080   0.24954   0.76932   0.00000  Uiso   1.00
H557   H     0.32573   0.25067   0.69366   0.00000  Uiso   1.00
H558   H     0.00766   0.24880   0.80630   0.00000  Uiso   1.00
C559   C     0.12908   0.04831   0.78042   0.00000  Uiso   1.00
C560   C     0.13498   0.45181   0.70652   0.00000  Uiso   1.00
C561   C     0.13193   0.09459   0.78100   0.00000  Uiso   1.00
C562   C     0.13785   0.40558   0.70668   0.00000  Uiso   1.00
C563   C     0.16118   0.11684   0.74937   0.00000  Uiso   1.00
C564   C     0.16085   0.38332   0.74891   0.00000  Uiso   1.00
C565   C     0.18569   0.09298   0.71631   0.00000  Uiso   1.00
C566   C     0.17888   0.40734   0.79099   0.00000  Uiso   1.00
C567   C     0.18412   0.04694   0.71605   0.00000  Uiso   1.00
C568   C     0.17738   0.45335   0.79094   0.00000  Uiso   1.00
C569   C     0.15576   0.02438   0.74811   0.00000  Uiso   1.00
C570   C     0.15553   0.47584   0.74862   0.00000  Uiso   1.00
C571   C     0.19301   0.28313   0.55783   0.00000  Uiso   1.00
C572   C     0.12694   0.22860   0.94037   0.00000  Uiso   1.00
H573   H     0.21354   0.31003   0.54330   0.00000  Uiso   1.00
H574   H     0.09476   0.21203   0.95330   0.00000  Uiso   1.00
C575   C     0.19351   0.28176   0.60843   0.00000  Uiso   1.00
C576   C     0.12861   0.22816   0.89005   0.00000  Uiso   1.00
N577   N     0.16667   0.25001   0.62934   0.00000  Uiso   1.00
N578   N     0.16667   0.24999   0.87065   0.00000  Uiso   1.00
C579   C     0.13889   0.21844   0.60127   0.00000  Uiso   1.00
C580   C     0.20451   0.27251   0.90022   0.00000  Uiso   1.00
C581   C     0.13819   0.21861   0.55014   0.00000  Uiso   1.00
C582   C     0.20427   0.27307   0.95120   0.00000  Uiso   1.00
C583   C     0.16555   0.25096   0.52728   0.00000  Uiso   1.00
C584   C     0.16547   0.25087   0.97247   0.00000  Uiso   1.00
O585   O     0.10345   0.02725   0.81449   0.00000  Uiso   1.00
C586   C     0.05644   0.00864   0.79169   0.00000  Uiso   1.00
H587   H     0.06246   0.47418   0.78015   0.00000  Uiso   1.00
H588   H     0.03764   0.02830   0.76026   0.00000  Uiso   1.00
H589   H     0.02901   0.00715   0.81865   0.00000  Uiso   1.00
O590   O     0.11576   0.47281   0.66344   0.00000  Uiso   1.00
C591   C     0.06673   0.49086   0.66683   0.00000  Uiso   1.00
H592   H     0.07088   0.02530   0.68068   0.00000  Uiso   1.00
H593   H     0.04338   0.47078   0.68953   0.00000  Uiso   1.00
H594   H     0.04453   0.49231   0.62978   0.00000  Uiso   1.00
O595   O     0.10783   0.11774   0.81430   0.00000  Uiso   1.00
C596   C     0.05878   0.13137   0.79151   0.00000  Uiso   1.00
H597   H     0.06121   0.15095   0.75798   0.00000  Uiso   1.00
H598   H     0.04142   0.15295   0.81699   0.00000  Uiso   1.00
H599   H     0.03236   0.10261   0.78299   0.00000  Uiso   1.00
O600   O     0.12042   0.38263   0.66436   0.00000  Uiso   1.00
C601   C     0.06912   0.36829   0.66582   0.00000  Uiso   1.00
H602   H     0.06510   0.34931   0.69945   0.00000  Uiso   1.00
H603   H     0.05742   0.34586   0.63454   0.00000  Uiso   1.00
H604   H     0.04217   0.39665   0.66216   0.00000  Uiso   1.00
H605   H     0.20720   0.11007   0.69123   0.00000  Uiso   1.00
H606   H     0.19555   0.39049   0.82387   0.00000  Uiso   1.00
O607   O     0.20764   0.02418   0.68210   0.00000  Uiso   1.00
C608   C     0.26056   0.01937   0.69983   0.00000  Uiso   1.00
H609   H     0.26599   0.49494   0.72994   0.00000  Uiso   1.00
H610   H     0.27962   0.05147   0.71155   0.00000  Uiso   1.00
H611   H     0.28025   0.00621   0.67012   0.00000  Uiso   1.00
O612   O     0.19477   0.47595   0.83346   0.00000  Uiso   1.00
C613   C     0.24787   0.48547   0.83500   0.00000  Uiso   1.00
H614   H     0.25375   0.01287   0.80968   0.00000  Uiso   1.00
H615   H     0.27046   0.45586   0.82718   0.00000  Uiso   1.00
H616   H     0.26337   0.49689   0.87218   0.00000  Uiso   1.00
H617   H     0.21501   0.30668   0.63100   0.00000  Uiso   1.00
H618   H     0.09874   0.21069   0.86637   0.00000  Uiso   1.00
O619   O     0.10796   0.18946   0.62335   0.00000  Uiso   1.00
C620   C     0.11483   0.14527   0.60919   0.00000  Uiso   1.00
H621   H     0.10221   0.12298   0.63707   0.00000  Uiso   1.00
H622   H     0.15603   0.13760   0.60682   0.00000  Uiso   1.00
H623   H     0.08995   0.13769   0.57434   0.00000  Uiso   1.00
O624   O     0.23964   0.29797   0.87903   0.00000  Uiso   1.00
C625   C     0.29092   0.28845   0.89971   0.00000  Uiso   1.00
H626   H     0.31726   0.29962   0.87408   0.00000  Uiso   1.00
H627   H     0.29732   0.25233   0.90575   0.00000  Uiso   1.00
H628   H     0.30189   0.30724   0.93397   0.00000  Uiso   1.00
H629   H     0.11604   0.19351   0.52871   0.00000  Uiso   1.00
H630   H     0.23440   0.29110   0.97368   0.00000  Uiso   1.00
O631   O     0.50000   0.18572   0.79071   0.00000  Uiso   1.00
O632   O     0.50000   0.31427   0.70928   0.00000  Uiso   1.00
O633   O     0.50000   0.18573   0.70928   0.00000  Uiso   1.00
O634   O     0.50000   0.31427   0.79072   0.00000  Uiso   1.00
C635   C     0.49885   0.16501   0.74989   0.00000  Uiso   1.00
C636   C     0.49871   0.33506   0.74975   0.00000  Uiso   1.00
O637   O     0.42495   0.24999   0.78132   0.00000  Uiso   1.00
O638   O     0.57505   0.25000   0.71868   0.00000  Uiso   1.00
O639   O     0.42495   0.25000   0.69988   0.00000  Uiso   1.00
O640   O     0.57505   0.25000   0.80011   0.00000  Uiso   1.00
C641   C     0.40123   0.24997   0.73751   0.00000  Uiso   1.00
C642   C     0.59878   0.24989   0.76249   0.00000  Uiso   1.00
Cu643  Cu    0.50000   0.24999   0.79821   0.00000  Uiso   1.00
Cu644  Cu    0.50000   0.25000   0.70178   0.00000  Uiso   1.00
C645   C     0.34588   0.25006   0.73067   0.00000  Uiso   1.00
C646   C     0.65413   0.24954   0.76932   0.00000  Uiso   1.00
H647   H     0.65906   0.25067   0.69366   0.00000  Uiso   1.00
H648   H     0.34099   0.24880   0.80630   0.00000  Uiso   1.00
C649   C     0.46242   0.04831   0.78042   0.00000  Uiso   1.00
C650   C     0.46832   0.45181   0.70652   0.00000  Uiso   1.00
C651   C     0.46526   0.09459   0.78100   0.00000  Uiso   1.00
C652   C     0.47118   0.40558   0.70668   0.00000  Uiso   1.00
C653   C     0.49451   0.11684   0.74937   0.00000  Uiso   1.00
C654   C     0.49419   0.38332   0.74891   0.00000  Uiso   1.00
C655   C     0.51902   0.09298   0.71631   0.00000  Uiso   1.00
C656   C     0.51221   0.40734   0.79099   0.00000  Uiso   1.00
C657   C     0.51745   0.04694   0.71605   0.00000  Uiso   1.00
C658   C     0.51071   0.45335   0.79094   0.00000  Uiso   1.00
C659   C     0.48910   0.02438   0.74811   0.00000  Uiso   1.00
C660   C     0.48886   0.47584   0.74862   0.00000  Uiso   1.00
C661   C     0.52634   0.28313   0.55783   0.00000  Uiso   1.00
C662   C     0.46027   0.22860   0.94037   0.00000  Uiso   1.00
H663   H     0.54688   0.31003   0.54330   0.00000  Uiso   1.00
H664   H     0.42810   0.21203   0.95330   0.00000  Uiso   1.00
C665   C     0.52684   0.28176   0.60843   0.00000  Uiso   1.00
C666   C     0.46194   0.22816   0.89005   0.00000  Uiso   1.00
N667   N     0.50000   0.25001   0.62934   0.00000  Uiso   1.00
N668   N     0.50000   0.24999   0.87065   0.00000  Uiso   1.00
C669   C     0.47223   0.21844   0.60127   0.00000  Uiso   1.00
C670   C     0.53784   0.27251   0.90022   0.00000  Uiso   1.00
C671   C     0.47153   0.21861   0.55014   0.00000  Uiso   1.00
C672   C     0.53760   0.27307   0.95120   0.00000  Uiso   1.00
C673   C     0.49889   0.25096   0.52728   0.00000  Uiso   1.00
C674   C     0.49881   0.25087   0.97247   0.00000  Uiso   1.00
O675   O     0.43678   0.02725   0.81449   0.00000  Uiso   1.00
C676   C     0.38977   0.00864   0.79169   0.00000  Uiso   1.00
H677   H     0.39579   0.47418   0.78015   0.00000  Uiso   1.00
H678   H     0.37098   0.02830   0.76026   0.00000  Uiso   1.00
H679   H     0.36234   0.00715   0.81865   0.00000  Uiso   1.00
O680   O     0.44909   0.47281   0.66344   0.00000  Uiso   1.00
C681   C     0.40006   0.49086   0.66683   0.00000  Uiso   1.00
H682   H     0.40422   0.02530   0.68068   0.00000  Uiso   1.00
H683   H     0.37671   0.47078   0.68953   0.00000  Uiso   1.00
H684   H     0.37786   0.49231   0.62978   0.00000  Uiso   1.00
O685   O     0.44116   0.11774   0.81430   0.00000  Uiso   1.00
C686   C     0.39211   0.13137   0.79151   0.00000  Uiso   1.00
H687   H     0.39454   0.15095   0.75798   0.00000  Uiso   1.00
H688   H     0.37475   0.15295   0.81699   0.00000  Uiso   1.00
H689   H     0.36569   0.10261   0.78299   0.00000  Uiso   1.00
O690   O     0.45375   0.38263   0.66436   0.00000  Uiso   1.00
C691   C     0.40246   0.36829   0.66582   0.00000  Uiso   1.00
H692   H     0.39843   0.34931   0.69945   0.00000  Uiso   1.00
H693   H     0.39075   0.34586   0.63454   0.00000  Uiso   1.00
H694   H     0.37551   0.39665   0.66216   0.00000  Uiso   1.00
H695   H     0.54053   0.11007   0.69123   0.00000  Uiso   1.00
H696   H     0.52889   0.39049   0.82387   0.00000  Uiso   1.00
O697   O     0.54097   0.02418   0.68210   0.00000  Uiso   1.00
C698   C     0.59389   0.01937   0.69983   0.00000  Uiso   1.00
H699   H     0.59933   0.49494   0.72994   0.00000  Uiso   1.00
H700   H     0.61295   0.05147   0.71155   0.00000  Uiso   1.00
H701   H     0.61358   0.00621   0.67012   0.00000  Uiso   1.00
O702   O     0.52811   0.47595   0.83346   0.00000  Uiso   1.00
C703   C     0.58120   0.48547   0.83500   0.00000  Uiso   1.00
H704   H     0.58708   0.01287   0.80968   0.00000  Uiso   1.00
H705   H     0.60380   0.45586   0.82718   0.00000  Uiso   1.00
H706   H     0.59671   0.49689   0.87218   0.00000  Uiso   1.00
H707   H     0.54834   0.30668   0.63100   0.00000  Uiso   1.00
H708   H     0.43208   0.21069   0.86637   0.00000  Uiso   1.00
O709   O     0.44129   0.18946   0.62335   0.00000  Uiso   1.00
C710   C     0.44816   0.14527   0.60919   0.00000  Uiso   1.00
H711   H     0.43554   0.12298   0.63707   0.00000  Uiso   1.00
H712   H     0.48936   0.13760   0.60682   0.00000  Uiso   1.00
H713   H     0.42329   0.13769   0.57434   0.00000  Uiso   1.00
O714   O     0.57298   0.29797   0.87903   0.00000  Uiso   1.00
C715   C     0.62425   0.28845   0.89971   0.00000  Uiso   1.00
H716   H     0.65059   0.29962   0.87408   0.00000  Uiso   1.00
H717   H     0.63065   0.25233   0.90575   0.00000  Uiso   1.00
H718   H     0.63522   0.30724   0.93397   0.00000  Uiso   1.00
H719   H     0.44938   0.19351   0.52871   0.00000  Uiso   1.00
H720   H     0.56773   0.29110   0.97368   0.00000  Uiso   1.00
O721   O     0.83334   0.18572   0.79071   0.00000  Uiso   1.00
O722   O     0.83333   0.31427   0.70928   0.00000  Uiso   1.00
O723   O     0.83334   0.18573   0.70928   0.00000  Uiso   1.00
O724   O     0.83333   0.31427   0.79072   0.00000  Uiso   1.00
C725   C     0.83218   0.16501   0.74989   0.00000  Uiso   1.00
C726   C     0.83205   0.33506   0.74975   0.00000  Uiso   1.00
O727   O     0.75828   0.24999   0.78132   0.00000  Uiso   1.00
O728   O     0.90839   0.25000   0.71868   0.00000  Uiso   1.00
O729   O     0.75828   0.25000   0.69988   0.00000  Uiso   1.00
O730   O     0.90839   0.25000   0.80011   0.00000  Uiso   1.00
C731   C     0.73456   0.24997   0.73751   0.00000  Uiso   1.00
C732   C     0.93211   0.24989   0.76249   0.00000  Uiso   1.00
Cu733  Cu    0.83333   0.24999   0.79821   0.00000  Uiso   1.00
Cu734  Cu    0.83333   0.25000   0.70178   0.00000  Uiso   1.00
C735   C     0.67922   0.25006   0.73067   0.00000  Uiso   1.00
C736   C     0.98747   0.24954   0.76932   0.00000  Uiso   1.00
H737   H     0.99239   0.25067   0.69366   0.00000  Uiso   1.00
H738   H     0.67432   0.24880   0.80630   0.00000  Uiso   1.00
C739   C     0.79575   0.04831   0.78042   0.00000  Uiso   1.00
C740   C     0.80165   0.45181   0.70652   0.00000  Uiso   1.00
C741   C     0.79859   0.09459   0.78100   0.00000  Uiso   1.00
C742   C     0.80451   0.40558   0.70668   0.00000  Uiso   1.00
C743   C     0.82785   0.11684   0.74937   0.00000  Uiso   1.00
C744   C     0.82752   0.38332   0.74891   0.00000  Uiso   1.00
C745   C     0.85235   0.09298   0.71631   0.00000  Uiso   1.00
C746   C     0.84554   0.40734   0.79099   0.00000  Uiso   1.00
C747   C     0.85079   0.04694   0.71605   0.00000  Uiso   1.00
C748   C     0.84405   0.45335   0.79094   0.00000  Uiso   1.00
C749   C     0.82243   0.02438   0.74811   0.00000  Uiso   1.00
C750   C     0.82219   0.47584   0.74862   0.00000  Uiso   1.00
C751   C     0.85968   0.28313   0.55783   0.00000  Uiso   1.00
C752   C     0.79360   0.22860   0.94037   0.00000  Uiso   1.00
H753   H     0.88021   0.31003   0.54330   0.00000  Uiso   1.00
H754   H     0.76143   0.21203   0.95330   0.00000  Uiso   1.00
C755   C     0.86017   0.28176   0.60843   0.00000  Uiso   1.00
C756   C     0.79527   0.22816   0.89005   0.00000  Uiso   1.00
N757   N     0.83333   0.25001   0.62934   0.00000  Uiso   1.00
N758   N     0.83333   0.24999   0.87065   0.00000  Uiso   1.00
C759   C     0.80556   0.21844   0.60127   0.00000  Uiso   1.00
C760   C     0.87118   0.27251   0.90022   0.00000  Uiso   1.00
C761   C     0.80486   0.21861   0.55014   0.00000  Uiso   1.00
C762   C     0.87093   0.27307   0.95120   0.00000  Uiso   1.00
C763   C     0.83222   0.25096   0.52728   0.00000  Uiso   1.00
C764   C     0.83214   0.25087   0.97247   0.00000  Uiso   1.00
O765   O     0.77012   0.02725   0.81449   0.00000  Uiso   1.00
C766   C     0.72311   0.00864   0.79169   0.00000  Uiso   1.00
H767   H     0.72912   0.47418   0.78015   0.00000  Uiso   1.00
H768   H     0.70431   0.02830   0.76026   0.00000  Uiso   1.00
H769   H     0.69568   0.00715   0.81865   0.00000  Uiso   1.00
O770   O     0.78242   0.47281   0.66344   0.00000  Uiso   1.00
C771   C     0.73340   0.49086   0.66683   0.00000  Uiso   1.00
H772   H     0.73755   0.02530   0.68068   0.00000  Uiso   1.00
H773   H     0.71005   0.47078   0.68953   0.00000  Uiso   1.00
H774   H     0.71120   0.49231   0.62978   0.00000  Uiso   1.00
O775   O     0.77450   0.11774   0.81430   0.00000  Uiso   1.00
C776   C     0.72544   0.13137   0.79151   0.00000  Uiso   1.00
H777   H     0.72787   0.15095   0.75798   0.00000  Uiso   1.00
H778   H     0.70809   0.15295   0.81699   0.00000  Uiso   1.00
H779   H     0.69903   0.10261   0.78299   0.00000  Uiso   1.00
O780   O     0.78708   0.38263   0.66436   0.00000  Uiso   1.00
C781   C     0.73579   0.36829   0.66582   0.00000  Uiso   1.00
H782   H     0.73176   0.34931   0.69945   0.00000  Uiso   1.00
H783   H     0.72409   0.34586   0.63454   0.00000  Uiso   1.00
H784   H     0.70884   0.39665   0.66216   0.00000  Uiso   1.00
H785   H     0.87386   0.11007   0.69123   0.00000  Uiso   1.00
H786   H     0.86222   0.39049   0.82387   0.00000  Uiso   1.00
O787   O     0.87430   0.02418   0.68210   0.00000  Uiso   1.00
C788   C     0.92722   0.01937   0.69983   0.00000  Uiso   1.00
H789   H     0.93266   0.49494   0.72994   0.00000  Uiso   1.00
H790   H     0.94628   0.05147   0.71155   0.00000  Uiso   1.00
H791   H     0.94691   0.00621   0.67012   0.00000  Uiso   1.00
O792   O     0.86144   0.47595   0.83346   0.00000  Uiso   1.00
C793   C     0.91454   0.48547   0.83500   0.00000  Uiso   1.00
H794   H     0.92042   0.01287   0.80968   0.00000  Uiso   1.00
H795   H     0.93713   0.45586   0.82718   0.00000  Uiso   1.00
H796   H     0.93004   0.49689   0.87218   0.00000  Uiso   1.00
H797   H     0.88167   0.30668   0.63100   0.00000  Uiso   1.00
H798   H     0.76541   0.21069   0.86637   0.00000  Uiso   1.00
O799   O     0.77463   0.18946   0.62335   0.00000  Uiso   1.00
C800   C     0.78150   0.14527   0.60919   0.00000  Uiso   1.00
H801   H     0.76887   0.12298   0.63707   0.00000  Uiso   1.00
H802   H     0.82270   0.13760   0.60682   0.00000  Uiso   1.00
H803   H     0.75662   0.13769   0.57434   0.00000  Uiso   1.00
O804   O     0.90631   0.29797   0.87903   0.00000  Uiso   1.00
C805   C     0.95758   0.28845   0.89971   0.00000  Uiso   1.00
H806   H     0.98392   0.29962   0.87408   0.00000  Uiso   1.00
H807   H     0.96399   0.25233   0.90575   0.00000  Uiso   1.00
H808   H     0.96855   0.30724   0.93397   0.00000  Uiso   1.00
H809   H     0.78271   0.19351   0.52871   0.00000  Uiso   1.00
H810   H     0.90106   0.29110   0.97368   0.00000  Uiso   1.00
O811   O     0.16667   0.68572   0.79071   0.00000  Uiso   1.00
O812   O     0.16666   0.81427   0.70928   0.00000  Uiso   1.00
O813   O     0.16667   0.68573   0.70928   0.00000  Uiso   1.00
O814   O     0.16666   0.81427   0.79072   0.00000  Uiso   1.00
C815   C     0.16551   0.66501   0.74989   0.00000  Uiso   1.00
C816   C     0.16538   0.83506   0.74975   0.00000  Uiso   1.00
O817   O     0.09161   0.74999   0.78132   0.00000  Uiso   1.00
O818   O     0.24172   0.75000   0.71868   0.00000  Uiso   1.00
O819   O     0.09161   0.75000   0.69988   0.00000  Uiso   1.00
O820   O     0.24172   0.75000   0.80011   0.00000  Uiso   1.00
C821   C     0.06790   0.74997   0.73751   0.00000  Uiso   1.00
C822   C     0.26544   0.74989   0.76249   0.00000  Uiso   1.00
Cu823  Cu    0.16667   0.74999   0.79821   0.00000  Uiso   1.00
Cu824  Cu    0.16667   0.75000   0.70178   0.00000  Uiso   1.00
C825   C     0.01255   0.75006   0.73067   0.00000  Uiso   1.00
C826   C     0.32080   0.74954   0.76932   0.00000  Uiso   1.00
H827   H     0.32573   0.75067   0.69366   0.00000  Uiso   1.00
H828   H     0.00766   0.74880   0.80630   0.00000  Uiso   1.00
C829   C     0.12908   0.54831   0.78042   0.00000  Uiso   1.00
C830   C     0.13498   0.95181   0.70652   0.00000  Uiso   1.00
C831   C     0.13193   0.59459   0.78100   0.00000  Uiso   1.00
C832   C     0.13785   0.90558   0.70668   0.00000  Uiso   1.00
C833   C     0.16118   0.61684   0.74937   0.00000  Uiso   1.00
C834   C     0.16085   0.88332   0.74891   0.00000  Uiso   1.00
C835   C     0.18569   0.59298   0.71631   0.00000  Uiso   1.00
C836   C     0.17888   0.90734   0.79099   0.00000  Uiso   1.00
C837   C     0.18412   0.54694   0.71605   0.00000  Uiso   1.00
C838   C     0.17738   0.95335   0.79094   0.00000  Uiso   1.00
C839   C     0.15576   0.52438   0.74811   0.00000  Uiso   1.00
C840   C     0.15553   0.97584   0.74862   0.00000  Uiso   1.00
C841   C     0.19301   0.78313   0.55783   0.00000  Uiso   1.00
C842   C     0.12694   0.72860   0.94037   0.00000  Uiso   1.00
H843   H     0.21354   0.81003   0.54330   0.00000  Uiso   1.00
H844   H     0.09476   0.71203   0.95330   0.00000  Uiso   1.00
C845   C     0.19351   0.78176   0.60843   0.00000  Uiso   1.00
C846   C     0.12861   0.72816   0.89005   0.00000  Uiso   1.00
N847   N     0.16667   0.75001   0.62934   0.00000  Uiso   1.00
N848   N     0.16667   0.74999   0.87065   0.00000  Uiso   1.00
C849   C     0.13889   0.71844   0.60127   0.00000  Uiso   1.00
C850   C     0.20451   0.77251   0.90022   0.00000  Uiso   1.00
C851   C     0.13819   0.71861   0.55014   0.00000  Uiso   1.00
C852   C     0.20427   0.77307   0.95120   0.00000  Uiso   1.00
C853   C     0.16555   0.75096   0.52728   0.00000  Uiso   1.00
C854   C     0.16547   0.75087   0.97247   0.00000  Uiso   1.00
O855   O     0.10345   0.52725   0.81449   0.00000  Uiso   1.00
C856   C     0.05644   0.50864   0.79169   0.00000  Uiso   1.00
H857   H     0.06246   0.97418   0.78015   0.00000  Uiso   1.00
H858   H     0.03764   0.52830   0.76026   0.00000  Uiso   1.00
H859   H     0.02901   0.50715   0.81865   0.00000  Uiso   1.00
O860   O     0.11576   0.97281   0.66344   0.00000  Uiso   1.00
C861   C     0.06673   0.99086   0.66683   0.00000  Uiso   1.00
H862   H     0.07088   0.52530   0.68068   0.00000  Uiso   1.00
H863   H     0.04338   0.97078   0.68953   0.00000  Uiso   1.00
H864   H     0.04453   0.99231   0.62978   0.00000  Uiso   1.00
O865   O     0.10783   0.61774   0.81430   0.00000  Uiso   1.00
C866   C     0.05878   0.63137   0.79151   0.00000  Uiso   1.00
H867   H     0.06121   0.65095   0.75798   0.00000  Uiso   1.00
H868   H     0.04142   0.65295   0.81699   0.00000  Uiso   1.00
H869   H     0.03236   0.60261   0.78299   0.00000  Uiso   1.00
O870   O     0.12042   0.88263   0.66436   0.00000  Uiso   1.00
C871   C     0.06912   0.86829   0.66582   0.00000  Uiso   1.00
H872   H     0.06510   0.84931   0.69945   0.00000  Uiso   1.00
H873   H     0.05742   0.84586   0.63454   0.00000  Uiso   1.00
H874   H     0.04217   0.89665   0.66216   0.00000  Uiso   1.00
H875   H     0.20720   0.61007   0.69123   0.00000  Uiso   1.00
H876   H     0.19555   0.89049   0.82387   0.00000  Uiso   1.00
O877   O     0.20764   0.52418   0.68210   0.00000  Uiso   1.00
C878   C     0.26056   0.51937   0.69983   0.00000  Uiso   1.00
H879   H     0.26599   0.99494   0.72994   0.00000  Uiso   1.00
H880   H     0.27962   0.55147   0.71155   0.00000  Uiso   1.00
H881   H     0.28025   0.50621   0.67012   0.00000  Uiso   1.00
O882   O     0.19477   0.97595   0.83346   0.00000  Uiso   1.00
C883   C     0.24787   0.98547   0.83500   0.00000  Uiso   1.00
H884   H     0.25375   0.51287   0.80968   0.00000  Uiso   1.00
H885   H     0.27046   0.95586   0.82718   0.00000  Uiso   1.00
H886   H     0.26337   0.99689   0.87218   0.00000  Uiso   1.00
H887   H     0.21501   0.80668   0.63100   0.00000  Uiso   1.00
H888   H     0.09874   0.71069   0.86637   0.00000  Uiso   1.00
O889   O     0.10796   0.68946   0.62335   0.00000  Uiso   1.00
C890   C     0.11483   0.64527   0.60919   0.00000  Uiso   1.00
H891   H     0.10221   0.62298   0.63707   0.00000  Uiso   1.00
H892   H     0.15603   0.63760   0.60682   0.00000  Uiso   1.00
H893   H     0.08995   0.63769   0.57434   0.00000  Uiso   1.00
O894   O     0.23964   0.79797   0.87903   0.00000  Uiso   1.00
C895   C     0.29092   0.78845   0.89971   0.00000  Uiso   1.00
H896   H     0.31726   0.79962   0.87408   0.00000  Uiso   1.00
H897   H     0.29732   0.75233   0.90575   0.00000  Uiso   1.00
H898   H     0.30189   0.80724   0.93397   0.00000  Uiso   1.00
H899   H     0.11604   0.69351   0.52871   0.00000  Uiso   1.00
H900   H     0.23440   0.79110   0.97368   0.00000  Uiso   1.00
O901   O     0.50000   0.68572   0.79071   0.00000  Uiso   1.00
O902   O     0.50000   0.81427   0.70928   0.00000  Uiso   1.00
O903   O     0.50000   0.68573   0.70928   0.00000  Uiso   1.00
O904   O     0.50000   0.81427   0.79072   0.00000  Uiso   1.00
C905   C     0.49885   0.66501   0.74989   0.00000  Uiso   1.00
C906   C     0.49871   0.83506   0.74975   0.00000  Uiso   1.00
O907   O     0.42495   0.74999   0.78132   0.00000  Uiso   1.00
O908   O     0.57505   0.75000   0.71868   0.00000  Uiso   1.00
O909   O     0.42495   0.75000   0.69988   0.00000  Uiso   1.00
O910   O     0.57505   0.75000   0.80011   0.00000  Uiso   1.00
C911   C     0.40123   0.74997   0.73751   0.00000  Uiso   1.00
C912   C     0.59878   0.74989   0.76249   0.00000  Uiso   1.00
Cu913  Cu    0.50000   0.74999   0.79821   0.00000  Uiso   1.00
Cu914  Cu    0.50000   0.75000   0.70178   0.00000  Uiso   1.00
C915   C     0.34588   0.75006   0.73067   0.00000  Uiso   1.00
C916   C     0.65413   0.74954   0.76932   0.00000  Uiso   1.00
H917   H     0.65906   0.75067   0.69366   0.00000  Uiso   1.00
H918   H     0.34099   0.74880   0.80630   0.00000  Uiso   1.00
C919   C     0.46242   0.54831   0.78042   0.00000  Uiso   1.00
C920   C     0.46832   0.95181   0.70652   0.00000  Uiso   1.00
C921   C     0.46526   0.59459   0.78100   0.00000  Uiso   1.00
C922   C     0.47118   0.90558   0.70668   0.00000  Uiso   1.00
C923   C     0.49451   0.61684   0.74937   0.00000  Uiso   1.00
C924   C     0.49419   0.88332   0.74891   0.00000  Uiso   1.00
C925   C     0.51902   0.59298   0.71631   0.00000  Uiso   1.00
C926   C     0.51221   0.90734   0.79099   0.00000  Uiso   1.00
C927   C     0.51745   0.54694   0.71605   0.00000  Uiso   1.00
C928   C     0.51071   0.95335   0.79094   0.00000  Uiso   1.00
C929   C     0.48910   0.52438   0.74811   0.00000  Uiso   1.00
C930   C     0.48886   0.97584   0.74862   0.00000  Uiso   1.00
C931   C     0.52634   0.78313   0.55783   0.00000  Uiso   1.00
C932   C     0.46027   0.72860   0.94037   0.00000  Uiso   1.00
H933   H     0.54688   0.81003   0.54330   0.00000  Uiso   1.00
H934   H     0.42810   0.71203   0.95330   0.00000  Uiso   1.00
C935   C     0.52684   0.78176   0.60843   0.00000  Uiso   1.00
C936   C     0.46194   0.72816   0.89005   0.00000  Uiso   1.00
N937   N     0.50000   0.75001   0.62934   0.00000  Uiso   1.00
N938   N     0.50000   0.74999   0.87065   0.00000  Uiso   1.00
C939   C     0.47223   0.71844   0.60127   0.00000  Uiso   1.00
C940   C     0.53784   0.77251   0.90022   0.00000  Uiso   1.00
C941   C     0.47153   0.71861   0.55014   0.00000  Uiso   1.00
C942   C     0.53760   0.77307   0.95120   0.00000  Uiso   1.00
C943   C     0.49889   0.75096   0.52728   0.00000  Uiso   1.00
C944   C     0.49881   0.75087   0.97247   0.00000  Uiso   1.00
O945   O     0.43678   0.52725   0.81449   0.00000  Uiso   1.00
C946   C     0.38977   0.50864   0.79169   0.00000  Uiso   1.00
H947   H     0.39579   0.97418   0.78015   0.00000  Uiso   1.00
H948   H     0.37098   0.52830   0.76026   0.00000  Uiso   1.00
H949   H     0.36234   0.50715   0.81865   0.00000  Uiso   1.00
O950   O     0.44909   0.97281   0.66344   0.00000  Uiso   1.00
C951   C     0.40006   0.99086   0.66683   0.00000  Uiso   1.00
H952   H     0.40422   0.52530   0.68068   0.00000  Uiso   1.00
H953   H     0.37671   0.97078   0.68953   0.00000  Uiso   1.00
H954   H     0.37786   0.99231   0.62978   0.00000  Uiso   1.00
O955   O     0.44116   0.61774   0.81430   0.00000  Uiso   1.00
C956   C     0.39211   0.63137   0.79151   0.00000  Uiso   1.00
H957   H     0.39454   0.65095   0.75798   0.00000  Uiso   1.00
H958   H     0.37475   0.65295   0.81699   0.00000  Uiso   1.00
H959   H     0.36569   0.60261   0.78299   0.00000  Uiso   1.00
O960   O     0.45375   0.88263   0.66436   0.00000  Uiso   1.00
C961   C     0.40246   0.86829   0.66582   0.00000  Uiso   1.00
H962   H     0.39843   0.84931   0.69945   0.00000  Uiso   1.00
H963   H     0.39075   0.84586   0.63454   0.00000  Uiso   1.00
H964   H     0.37551   0.89665   0.66216   0.00000  Uiso   1.00
H965   H     0.54053   0.61007   0.69123   0.00000  Uiso   1.00
H966   H     0.52889   0.89049   0.82387   0.00000  Uiso   1.00
O967   O     0.54097   0.52418   0.68210   0.00000  Uiso   1.00
C968   C     0.59389   0.51937   0.69983   0.00000  Uiso   1.00
H969   H     0.59933   0.99494   0.72994   0.00000  Uiso   1.00
H970   H     0.61295   0.55147   0.71155   0.00000  Uiso   1.00
H971   H     0.61358   0.50621   0.67012   0.00000  Uiso   1.00
O972   O     0.52811   0.97595   0.83346   0.00000  Uiso   1.00
C973   C     0.58120   0.98547   0.83500   0.00000  Uiso   1.00
H974   H     0.58708   0.51287   0.80968   0.00000  Uiso   1.00
H975   H     0.60380   0.95586   0.82718   0.00000  Uiso   1.00
H976   H     0.59671   0.99689   0.87218   0.00000  Uiso   1.00
H977   H     0.54834   0.80668   0.63100   0.00000  Uiso   1.00
H978   H     0.43208   0.71069   0.86637   0.00000  Uiso   1.00
O979   O     0.44129   0.68946   0.62335   0.00000  Uiso   1.00
C980   C     0.44816   0.64527   0.60919   0.00000  Uiso   1.00
H981   H     0.43554   0.62298   0.63707   0.00000  Uiso   1.00
H982   H     0.48936   0.63760   0.60682   0.00000  Uiso   1.00
H983   H     0.42329   0.63769   0.57434   0.00000  Uiso   1.00
O984   O     0.57298   0.79797   0.87903   0.00000  Uiso   1.00
C985   C     0.62425   0.78845   0.89971   0.00000  Uiso   1.00
H986   H     0.65059   0.79962   0.87408   0.00000  Uiso   1.00
H987   H     0.63065   0.75233   0.90575   0.00000  Uiso   1.00
H988   H     0.63522   0.80724   0.93397   0.00000  Uiso   1.00
H989   H     0.44938   0.69351   0.52871   0.00000  Uiso   1.00
H990   H     0.56773   0.79110   0.97368   0.00000  Uiso   1.00
O991   O     0.83334   0.68572   0.79071   0.00000  Uiso   1.00
O992   O     0.83333   0.81427   0.70928   0.00000  Uiso   1.00
O993   O     0.83334   0.68573   0.70928   0.00000  Uiso   1.00
O994   O     0.83333   0.81427   0.79072   0.00000  Uiso   1.00
C995   C     0.83218   0.66501   0.74989   0.00000  Uiso   1.00
C996   C     0.83205   0.83506   0.74975   0.00000  Uiso   1.00
O997   O     0.75828   0.74999   0.78132   0.00000  Uiso   1.00
O998   O     0.90839   0.75000   0.71868   0.00000  Uiso   1.00
O999   O     0.75828   0.75000   0.69988   0.00000  Uiso   1.00
O1000  O     0.90839   0.75000   0.80011   0.00000  Uiso   1.00
C1001  C     0.73456   0.74997   0.73751   0.00000  Uiso   1.00
C1002  C     0.93211   0.74989   0.76249   0.00000  Uiso   1.00
Cu1003 Cu    0.83333   0.74999   0.79821   0.00000  Uiso   1.00
Cu1004 Cu    0.83333   0.75000   0.70178   0.00000  Uiso   1.00
C1005  C     0.67922   0.75006   0.73067   0.00000  Uiso   1.00
C1006  C     0.98747   0.74954   0.76932   0.00000  Uiso   1.00
H1007  H     0.99239   0.75067   0.69366   0.00000  Uiso   1.00
H1008  H     0.67432   0.74880   0.80630   0.00000  Uiso   1.00
C1009  C     0.79575   0.54831   0.78042   0.00000  Uiso   1.00
C1010  C     0.80165   0.95181   0.70652   0.00000  Uiso   1.00
C1011  C     0.79859   0.59459   0.78100   0.00000  Uiso   1.00
C1012  C     0.80451   0.90558   0.70668   0.00000  Uiso   1.00
C1013  C     0.82785   0.61684   0.74937   0.00000  Uiso   1.00
C1014  C     0.82752   0.88332   0.74891   0.00000  Uiso   1.00
C1015  C     0.85235   0.59298   0.71631   0.00000  Uiso   1.00
C1016  C     0.84554   0.90734   0.79099   0.00000  Uiso   1.00
C1017  C     0.85079   0.54694   0.71605   0.00000  Uiso   1.00
C1018  C     0.84405   0.95335   0.79094   0.00000  Uiso   1.00
C1019  C     0.82243   0.52438   0.74811   0.00000  Uiso   1.00
C1020  C     0.82219   0.97584   0.74862   0.00000  Uiso   1.00
C1021  C     0.85968   0.78313   0.55783   0.00000  Uiso   1.00
C1022  C     0.79360   0.72860   0.94037   0.00000  Uiso   1.00
H1023  H     0.88021   0.81003   0.54330   0.00000  Uiso   1.00
H1024  H     0.76143   0.71203   0.95330   0.00000  Uiso   1.00
C1025  C     0.86017   0.78176   0.60843   0.00000  Uiso   1.00
C1026  C     0.79527   0.72816   0.89005   0.00000  Uiso   1.00
N1027  N     0.83333   0.75001   0.62934   0.00000  Uiso   1.00
N1028  N     0.83333   0.74999   0.87065   0.00000  Uiso   1.00
C1029  C     0.80556   0.71844   0.60127   0.00000  Uiso   1.00
C1030  C     0.87118   0.77251   0.90022   0.00000  Uiso   1.00
C1031  C     0.80486   0.71861   0.55014   0.00000  Uiso   1.00
C1032  C     0.87093   0.77307   0.95120   0.00000  Uiso   1.00
C1033  C     0.83222   0.75096   0.52728   0.00000  Uiso   1.00
C1034  C     0.83214   0.75087   0.97247   0.00000  Uiso   1.00
O1035  O     0.77012   0.52725   0.81449   0.00000  Uiso   1.00
C1036  C     0.72311   0.50864   0.79169   0.00000  Uiso   1.00
H1037  H     0.72912   0.97418   0.78015   0.00000  Uiso   1.00
H1038  H     0.70431   0.52830   0.76026   0.00000  Uiso   1.00
H1039  H     0.69568   0.50715   0.81865   0.00000  Uiso   1.00
O1040  O     0.78242   0.97281   0.66344   0.00000  Uiso   1.00
C1041  C     0.73340   0.99086   0.66683   0.00000  Uiso   1.00
H1042  H     0.73755   0.52530   0.68068   0.00000  Uiso   1.00
H1043  H     0.71005   0.97078   0.68953   0.00000  Uiso   1.00
H1044  H     0.71120   0.99231   0.62978   0.00000  Uiso   1.00
O1045  O     0.77450   0.61774   0.81430   0.00000  Uiso   1.00
C1046  C     0.72544   0.63137   0.79151   0.00000  Uiso   1.00
H1047  H     0.72787   0.65095   0.75798   0.00000  Uiso   1.00
H1048  H     0.70809   0.65295   0.81699   0.00000  Uiso   1.00
H1049  H     0.69903   0.60261   0.78299   0.00000  Uiso   1.00
O1050  O     0.78708   0.88263   0.66436   0.00000  Uiso   1.00
C1051  C     0.73579   0.86829   0.66582   0.00000  Uiso   1.00
H1052  H     0.73176   0.84931   0.69945   0.00000  Uiso   1.00
H1053  H     0.72409   0.84586   0.63454   0.00000  Uiso   1.00
H1054  H     0.70884   0.89665   0.66216   0.00000  Uiso   1.00
H1055  H     0.87386   0.61007   0.69123   0.00000  Uiso   1.00
H1056  H     0.86222   0.89049   0.82387   0.00000  Uiso   1.00
O1057  O     0.87430   0.52418   0.68210   0.00000  Uiso   1.00
C1058  C     0.92722   0.51937   0.69983   0.00000  Uiso   1.00
H1059  H     0.93266   0.99494   0.72994   0.00000  Uiso   1.00
H1060  H     0.94628   0.55147   0.71155   0.00000  Uiso   1.00
H1061  H     0.94691   0.50621   0.67012   0.00000  Uiso   1.00
O1062  O     0.86144   0.97595   0.83346   0.00000  Uiso   1.00
C1063  C     0.91454   0.98547   0.83500   0.00000  Uiso   1.00
H1064  H     0.92042   0.51287   0.80968   0.00000  Uiso   1.00
H1065  H     0.93713   0.95586   0.82718   0.00000  Uiso   1.00
H1066  H     0.93004   0.99689   0.87218   0.00000  Uiso   1.00
H1067  H     0.88167   0.80668   0.63100   0.00000  Uiso   1.00
H1068  H     0.76541   0.71069   0.86637   0.00000  Uiso   1.00
O1069  O     0.77463   0.68946   0.62335   0.00000  Uiso   1.00
C1070  C     0.78150   0.64527   0.60919   0.00000  Uiso   1.00
H1071  H     0.76887   0.62298   0.63707   0.00000  Uiso   1.00
H1072  H     0.82270   0.63760   0.60682   0.00000  Uiso   1.00
H1073  H     0.75662   0.63769   0.57434   0.00000  Uiso   1.00
O1074  O     0.90631   0.79797   0.87903   0.00000  Uiso   1.00
C1075  C     0.95758   0.78845   0.89971   0.00000  Uiso   1.00
H1076  H     0.98392   0.79962   0.87408   0.00000  Uiso   1.00
H1077  H     0.96399   0.75233   0.90575   0.00000  Uiso   1.00
H1078  H     0.96855   0.80724   0.93397   0.00000  Uiso   1.00
H1079  H     0.78271   0.69351   0.52871   0.00000  Uiso   1.00
H1080  H     0.90106   0.79110   0.97368   0.00000  Uiso   1.00
loop_
_geom_bond_atom_site_label_1
_geom_bond_atom_site_label_2
_geom_bond_distance
_geom_bond_site_symmetry_2
_ccdc_geom_bond_type
O1     C5      1.293   .     A
O1     Cu13    1.954   .     S
O2     C6      1.293   .     A
O2     Cu14    1.954   .     S
O3     Cu14    1.954   .     S
O3     C5      1.294   .     A
O4     Cu13    1.954   .     S
O4     C6      1.297   .     A
C5     C23     1.459   .     S
C6     C24     1.465   .     S
O7     C11     1.286   .     A
O7     Cu13    1.951   .     S
O8     C12     1.286   .     A
O8     Cu14    1.951   .     S
O9     Cu14    1.955   .     S
O9     C11     1.289   .     A
O10    C12     1.290   .     A
O10    Cu13    1.955   .     S
C11    C15     1.432   .     S
C12    C16     1.433   .     S
Cu13   Cu14    2.681   .     S
Cu13   N38     2.014   .     S
Cu14   N37     2.014   .     S
C15    C196    1.336   1_455 S
C15    H197    1.087   1_455 S
C16    C105    1.336   .     S
C16    H108    1.087   .     S
H17    C105    1.087   .     S
H18    C196    1.087   1_455 S
C19    C29     1.415   .     A
C19    C21     1.400   .     A
C19    O45     1.387   .     S
C20    C30     1.415   .     A
C20    O50     1.387   .     S
C20    C22     1.400   .     A
C21    O55     1.385   .     S
C21    C23     1.411   .     A
C22    O60     1.384   .     S
C22    C24     1.413   .     A
C23    C25     1.397   .     A
C24    C26     1.399   .     A
C25    H65     1.084   .     S
C25    C27     1.392   .     A
C26    H66     1.084   .     S
C26    C28     1.391   .     A
C27    C29     1.410   .     A
C27    O67     1.384   .     S
C28    C30     1.409   .     A
C28    O72     1.383   .     S
C29    C300    1.467   1_545 S
C30    C299    1.467   .     S
C31    C43     1.413   .     A
C31    H33     1.080   .     S
C31    C35     1.405   .     A
C32    C36     1.406   .     A
C32    C44     1.413   .     A
C32    H34     1.080   .     S
C35    N37     1.362   .     A
C35    H77     1.082   .     S
C36    H78     1.081   .     S
C36    N38     1.362   .     A
N37    C39     1.369   .     A
N38    C40     1.369   .     A
C39    C41     1.419   .     A
C39    O79     1.388   .     S
C40    O84     1.387   .     S
C40    C42     1.418   .     A
C41    H89     1.077   .     S
C41    C43     1.410   .     A
C42    C44     1.409   .     A
C42    H90     1.077   .     S
C43    C584    1.523   1_554 S
C44    C583    1.523   .     S
O45    C46     1.412   .     S
C46    H49     1.109   .     S
C46    H48     1.114   .     S
C46    H317    1.109   1_545 S
H47    C316    1.109   .     S
O50    C51     1.412   .     S
C51    H53     1.114   .     S
C51    H54     1.109   .     S
C51    H322    1.109   .     S
H52    C321    1.109   1_545 S
O55    C56     1.412   .     S
C56    H57     1.113   .     S
C56    H59     1.110   .     S
C56    H58     1.109   .     S
O60    C61     1.411   .     S
C61    H63     1.109   .     S
C61    H64     1.110   .     S
C61    H62     1.114   .     S
O67    C68     1.410   .     S
C68    H71     1.109   .     S
C68    H70     1.114   .     S
C68    H339    1.110   1_545 S
H69    C338    1.110   .     S
O72    C73     1.410   .     S
C73    H75     1.115   .     S
C73    H76     1.109   .     S
C73    H344    1.110   .     S
H74    C343    1.110   1_545 S
O79    C80     1.413   .     S
C80    H83     1.110   .     S
C80    H81     1.109   .     S
C80    H82     1.115   .     S
O84    C85     1.413   .     S
C85    H87     1.115   .     S
C85    H86     1.109   .     S
C85    H88     1.110   .     S
O91    C95     1.293   .     A
O91    Cu103   1.954   .     S
O92    C96     1.293   .     A
O92    Cu104   1.954   .     S
O93    Cu104   1.954   .     S
O93    C95     1.294   .     A
O94    Cu103   1.954   .     S
O94    C96     1.297   .     A
C95    C113    1.459   .     S
C96    C114    1.465   .     S
O97    C101    1.286   .     A
O97    Cu103   1.951   .     S
O98    C102    1.286   .     A
O98    Cu104   1.951   .     S
O99    Cu104   1.955   .     S
O99    C101    1.289   .     A
O100   C102    1.290   .     A
O100   Cu103   1.955   .     S
C101   C105    1.432   .     S
C102   C106    1.433   .     S
Cu103  Cu104   2.681   .     S
Cu103  N128    2.014   .     S
Cu104  N127    2.014   .     S
C106   C195    1.336   .     S
C106   H198    1.087   .     S
H107   C195    1.087   .     S
C109   C119    1.415   .     A
C109   C111    1.400   .     A
C109   O135    1.387   .     S
C110   C120    1.415   .     A
C110   O140    1.387   .     S
C110   C112    1.400   .     A
C111   O145    1.385   .     S
C111   C113    1.411   .     A
C112   O150    1.384   .     S
C112   C114    1.413   .     A
C113   C115    1.397   .     A
C114   C116    1.399   .     A
C115   H155    1.084   .     S
C115   C117    1.392   .     A
C116   H156    1.084   .     S
C116   C118    1.391   .     A
C117   C119    1.410   .     A
C117   O157    1.384   .     S
C118   C120    1.409   .     A
C118   O162    1.383   .     S
C119   C390    1.467   1_545 S
C120   C389    1.467   .     S
C121   C133    1.413   .     A
C121   H123    1.080   .     S
C121   C125    1.405   .     A
C122   C126    1.406   .     A
C122   C134    1.413   .     A
C122   H124    1.080   .     S
C125   N127    1.362   .     A
C125   H167    1.082   .     S
C126   H168    1.081   .     S
C126   N128    1.362   .     A
N127   C129    1.369   .     A
N128   C130    1.369   .     A
C129   C131    1.419   .     A
C129   O169    1.388   .     S
C130   O174    1.387   .     S
C130   C132    1.418   .     A
C131   H179    1.077   .     S
C131   C133    1.410   .     A
C132   C134    1.409   .     A
C132   H180    1.077   .     S
C133   C674    1.523   1_554 S
C134   C673    1.523   .     S
O135   C136    1.412   .     S
C136   H139    1.109   .     S
C136   H138    1.114   .     S
C136   H407    1.109   1_545 S
H137   C406    1.109   .     S
O140   C141    1.412   .     S
C141   H143    1.114   .     S
C141   H144    1.109   .     S
C141   H412    1.109   .     S
H142   C411    1.109   1_545 S
O145   C146    1.412   .     S
C146   H147    1.113   .     S
C146   H149    1.110   .     S
C146   H148    1.109   .     S
O150   C151    1.411   .     S
C151   H153    1.109   .     S
C151   H154    1.110   .     S
C151   H152    1.114   .     S
O157   C158    1.410   .     S
C158   H161    1.109   .     S
C158   H160    1.114   .     S
C158   H429    1.110   1_545 S
H159   C428    1.110   .     S
O162   C163    1.410   .     S
C163   H165    1.115   .     S
C163   H166    1.109   .     S
C163   H434    1.110   .     S
H164   C433    1.110   1_545 S
O169   C170    1.413   .     S
C170   H173    1.110   .     S
C170   H171    1.109   .     S
C170   H172    1.115   .     S
O174   C175    1.413   .     S
C175   H177    1.115   .     S
C175   H176    1.109   .     S
C175   H178    1.110   .     S
O181   C185    1.293   .     A
O181   Cu193   1.954   .     S
O182   C186    1.293   .     A
O182   Cu194   1.954   .     S
O183   Cu194   1.954   .     S
O183   C185    1.294   .     A
O184   Cu193   1.954   .     S
O184   C186    1.297   .     A
C185   C203    1.459   .     S
C186   C204    1.465   .     S
O187   C191    1.286   .     A
O187   Cu193   1.951   .     S
O188   C192    1.286   .     A
O188   Cu194   1.951   .     S
O189   Cu194   1.955   .     S
O189   C191    1.289   .     A
O190   C192    1.290   .     A
O190   Cu193   1.955   .     S
C191   C195    1.432   .     S
C192   C196    1.433   .     S
Cu193  Cu194   2.681   .     S
Cu193  N218    2.014   .     S
Cu194  N217    2.014   .     S
C196   C15     1.336   1_655 S
C196   H18     1.087   1_655 S
H197   C15     1.087   1_655 S
C199   C209    1.415   .     A
C199   C201    1.400   .     A
C199   O225    1.387   .     S
C200   C210    1.415   .     A
C200   O230    1.387   .     S
C200   C202    1.400   .     A
C201   O235    1.385   .     S
C201   C203    1.411   .     A
C202   O240    1.384   .     S
C202   C204    1.413   .     A
C203   C205    1.397   .     A
C204   C206    1.399   .     A
C205   H245    1.084   .     S
C205   C207    1.392   .     A
C206   H246    1.084   .     S
C206   C208    1.391   .     A
C207   C209    1.410   .     A
C207   O247    1.384   .     S
C208   C210    1.409   .     A
C208   O252    1.383   .     S
C209   C480    1.467   1_545 S
C210   C479    1.467   .     S
C211   C223    1.413   .     A
C211   H213    1.080   .     S
C211   C215    1.405   .     A
C212   C216    1.406   .     A
C212   C224    1.413   .     A
C212   H214    1.080   .     S
C215   N217    1.362   .     A
C215   H257    1.082   .     S
C216   H258    1.081   .     S
C216   N218    1.362   .     A
N217   C219    1.369   .     A
N218   C220    1.369   .     A
C219   C221    1.419   .     A
C219   O259    1.388   .     S
C220   O264    1.387   .     S
C220   C222    1.418   .     A
C221   H269    1.077   .     S
C221   C223    1.410   .     A
C222   C224    1.409   .     A
C222   H270    1.077   .     S
C223   C764    1.523   1_554 S
C224   C763    1.523   .     S
O225   C226    1.412   .     S
C226   H229    1.109   .     S
C226   H228    1.114   .     S
C226   H497    1.109   1_545 S
H227   C496    1.109   .     S
O230   C231    1.412   .     S
C231   H233    1.114   .     S
C231   H234    1.109   .     S
C231   H502    1.109   .     S
H232   C501    1.109   1_545 S
O235   C236    1.412   .     S
C236   H237    1.113   .     S
C236   H239    1.110   .     S
C236   H238    1.109   .     S
O240   C241    1.411   .     S
C241   H243    1.109   .     S
C241   H244    1.110   .     S
C241   H242    1.114   .     S
O247   C248    1.410   .     S
C248   H251    1.109   .     S
C248   H250    1.114   .     S
C248   H519    1.110   1_545 S
H249   C518    1.110   .     S
O252   C253    1.410   .     S
C253   H255    1.115   .     S
C253   H256    1.109   .     S
C253   H524    1.110   .     S
H254   C523    1.110   1_545 S
O259   C260    1.413   .     S
C260   H263    1.110   .     S
C260   H261    1.109   .     S
C260   H262    1.115   .     S
O264   C265    1.413   .     S
C265   H267    1.115   .     S
C265   H266    1.109   .     S
C265   H268    1.110   .     S
O271   C275    1.293   .     A
O271   Cu283   1.954   .     S
O272   C276    1.293   .     A
O272   Cu284   1.954   .     S
O273   Cu284   1.954   .     S
O273   C275    1.294   .     A
O274   Cu283   1.954   .     S
O274   C276    1.297   .     A
C275   C293    1.459   .     S
C276   C294    1.465   .     S
O277   C281    1.286   .     A
O277   Cu283   1.951   .     S
O278   C282    1.286   .     A
O278   Cu284   1.951   .     S
O279   Cu284   1.955   .     S
O279   C281    1.289   .     A
O280   C282    1.290   .     A
O280   Cu283   1.955   .     S
C281   C285    1.432   .     S
C282   C286    1.433   .     S
Cu283  Cu284   2.681   .     S
Cu283  N308    2.014   .     S
Cu284  N307    2.014   .     S
C285   C466    1.336   1_455 S
C285   H467    1.087   1_455 S
C286   C375    1.336   .     S
C286   H378    1.087   .     S
H287   C375    1.087   .     S
H288   C466    1.087   1_455 S
C289   C299    1.415   .     A
C289   C291    1.400   .     A
C289   O315    1.387   .     S
C290   C300    1.415   .     A
C290   O320    1.387   .     S
C290   C292    1.400   .     A
C291   O325    1.385   .     S
C291   C293    1.411   .     A
C292   O330    1.384   .     S
C292   C294    1.413   .     A
C293   C295    1.397   .     A
C294   C296    1.399   .     A
C295   H335    1.084   .     S
C295   C297    1.392   .     A
C296   H336    1.084   .     S
C296   C298    1.391   .     A
C297   C299    1.410   .     A
C297   O337    1.384   .     S
C298   C300    1.409   .     A
C298   O342    1.383   .     S
C300   C29     1.467   1_565 S
C301   C313    1.413   .     A
C301   H303    1.080   .     S
C301   C305    1.405   .     A
C302   C306    1.406   .     A
C302   C314    1.413   .     A
C302   H304    1.080   .     S
C305   N307    1.362   .     A
C305   H347    1.082   .     S
C306   H348    1.081   .     S
C306   N308    1.362   .     A
N307   C309    1.369   .     A
N308   C310    1.369   .     A
C309   C311    1.419   .     A
C309   O349    1.388   .     S
C310   O354    1.387   .     S
C310   C312    1.418   .     A
C311   H359    1.077   .     S
C311   C313    1.410   .     A
C312   C314    1.409   .     A
C312   H360    1.077   .     S
C313   C854    1.523   1_554 S
C314   C853    1.523   .     S
O315   C316    1.412   .     S
C316   H319    1.109   .     S
C316   H318    1.114   .     S
H317   C46     1.109   1_565 S
O320   C321    1.412   .     S
C321   H323    1.114   .     S
C321   H324    1.109   .     S
C321   H52     1.109   1_565 S
O325   C326    1.412   .     S
C326   H327    1.113   .     S
C326   H329    1.110   .     S
C326   H328    1.109   .     S
O330   C331    1.411   .     S
C331   H333    1.109   .     S
C331   H334    1.110   .     S
C331   H332    1.114   .     S
O337   C338    1.410   .     S
C338   H341    1.109   .     S
C338   H340    1.114   .     S
H339   C68     1.110   1_565 S
O342   C343    1.410   .     S
C343   H345    1.115   .     S
C343   H346    1.109   .     S
C343   H74     1.110   1_565 S
O349   C350    1.413   .     S
C350   H353    1.110   .     S
C350   H351    1.109   .     S
C350   H352    1.115   .     S
O354   C355    1.413   .     S
C355   H357    1.115   .     S
C355   H356    1.109   .     S
C355   H358    1.110   .     S
O361   C365    1.293   .     A
O361   Cu373   1.954   .     S
O362   C366    1.293   .     A
O362   Cu374   1.954   .     S
O363   Cu374   1.954   .     S
O363   C365    1.294   .     A
O364   Cu373   1.954   .     S
O364   C366    1.297   .     A
C365   C383    1.459   .     S
C366   C384    1.465   .     S
O367   C371    1.286   .     A
O367   Cu373   1.951   .     S
O368   C372    1.286   .     A
O368   Cu374   1.951   .     S
O369   Cu374   1.955   .     S
O369   C371    1.289   .     A
O370   C372    1.290   .     A
O370   Cu373   1.955   .     S
C371   C375    1.432   .     S
C372   C376    1.433   .     S
Cu373  Cu374   2.681   .     S
Cu373  N398    2.014   .     S
Cu374  N397    2.014   .     S
C376   C465    1.336   .     S
C376   H468    1.087   .     S
H377   C465    1.087   .     S
C379   C389    1.415   .     A
C379   C381    1.400   .     A
C379   O405    1.387   .     S
C380   C390    1.415   .     A
C380   O410    1.387   .     S
C380   C382    1.400   .     A
C381   O415    1.385   .     S
C381   C383    1.411   .     A
C382   O420    1.384   .     S
C382   C384    1.413   .     A
C383   C385    1.397   .     A
C384   C386    1.399   .     A
C385   H425    1.084   .     S
C385   C387    1.392   .     A
C386   H426    1.084   .     S
C386   C388    1.391   .     A
C387   C389    1.410   .     A
C387   O427    1.384   .     S
C388   C390    1.409   .     A
C388   O432    1.383   .     S
C390   C119    1.467   1_565 S
C391   C403    1.413   .     A
C391   H393    1.080   .     S
C391   C395    1.405   .     A
C392   C396    1.406   .     A
C392   C404    1.413   .     A
C392   H394    1.080   .     S
C395   N397    1.362   .     A
C395   H437    1.082   .     S
C396   H438    1.081   .     S
C396   N398    1.362   .     A
N397   C399    1.369   .     A
N398   C400    1.369   .     A
C399   C401    1.419   .     A
C399   O439    1.388   .     S
C400   O444    1.387   .     S
C400   C402    1.418   .     A
C401   H449    1.077   .     S
C401   C403    1.410   .     A
C402   C404    1.409   .     A
C402   H450    1.077   .     S
C403   C944    1.523   1_554 S
C404   C943    1.523   .     S
O405   C406    1.412   .     S
C406   H409    1.109   .     S
C406   H408    1.114   .     S
H407   C136    1.109   1_565 S
O410   C411    1.412   .     S
C411   H413    1.114   .     S
C411   H414    1.109   .     S
C411   H142    1.109   1_565 S
O415   C416    1.412   .     S
C416   H417    1.113   .     S
C416   H419    1.110   .     S
C416   H418    1.109   .     S
O420   C421    1.411   .     S
C421   H423    1.109   .     S
C421   H424    1.110   .     S
C421   H422    1.114   .     S
O427   C428    1.410   .     S
C428   H431    1.109   .     S
C428   H430    1.114   .     S
H429   C158    1.110   1_565 S
O432   C433    1.410   .     S
C433   H435    1.115   .     S
C433   H436    1.109   .     S
C433   H164    1.110   1_565 S
O439   C440    1.413   .     S
C440   H443    1.110   .     S
C440   H441    1.109   .     S
C440   H442    1.115   .     S
O444   C445    1.413   .     S
C445   H447    1.115   .     S
C445   H446    1.109   .     S
C445   H448    1.110   .     S
O451   C455    1.293   .     A
O451   Cu463   1.954   .     S
O452   C456    1.293   .     A
O452   Cu464   1.954   .     S
O453   Cu464   1.954   .     S
O453   C455    1.294   .     A
O454   Cu463   1.954   .     S
O454   C456    1.297   .     A
C455   C473    1.459   .     S
C456   C474    1.465   .     S
O457   C461    1.286   .     A
O457   Cu463   1.951   .     S
O458   C462    1.286   .     A
O458   Cu464   1.951   .     S
O459   Cu464   1.955   .     S
O459   C461    1.289   .     A
O460   C462    1.290   .     A
O460   Cu463   1.955   .     S
C461   C465    1.432   .     S
C462   C466    1.433   .     S
Cu463  Cu464   2.681   .     S
Cu463  N488    2.014   .     S
Cu464  N487    2.014   .     S
C466   C285    1.336   1_655 S
C466   H288    1.087   1_655 S
H467   C285    1.087   1_655 S
C469   C479    1.415   .     A
C469   C471    1.400   .     A
C469   O495    1.387   .     S
C470   C480    1.415   .     A
C470   O500    1.387   .     S
C470   C472    1.400   .     A
C471   O505    1.385   .     S
C471   C473    1.411   .     A
C472   O510    1.384   .     S
C472   C474    1.413   .     A
C473   C475    1.397   .     A
C474   C476    1.399   .     A
C475   H515    1.084   .     S
C475   C477    1.392   .     A
C476   H516    1.084   .     S
C476   C478    1.391   .     A
C477   C479    1.410   .     A
C477   O517    1.384   .     S
C478   C480    1.409   .     A
C478   O522    1.383   .     S
C480   C209    1.467   1_565 S
C481   C493    1.413   .     A
C481   H483    1.080   .     S
C481   C485    1.405   .     A
C482   C486    1.406   .     A
C482   C494    1.413   .     A
C482   H484    1.080   .     S
C485   N487    1.362   .     A
C485   H527    1.082   .     S
C486   H528    1.081   .     S
C486   N488    1.362   .     A
N487   C489    1.369   .     A
N488   C490    1.369   .     A
C489   C491    1.419   .     A
C489   O529    1.388   .     S
C490   O534    1.387   .     S
C490   C492    1.418   .     A
C491   H539    1.077   .     S
C491   C493    1.410   .     A
C492   C494    1.409   .     A
C492   H540    1.077   .     S
C493   C1034   1.523   1_554 S
C494   C1033   1.523   .     S
O495   C496    1.412   .     S
C496   H499    1.109   .     S
C496   H498    1.114   .     S
H497   C226    1.109   1_565 S
O500   C501    1.412   .     S
C501   H503    1.114   .     S
C501   H504    1.109   .     S
C501   H232    1.109   1_565 S
O505   C506    1.412   .     S
C506   H507    1.113   .     S
C506   H509    1.110   .     S
C506   H508    1.109   .     S
O510   C511    1.411   .     S
C511   H513    1.109   .     S
C511   H514    1.110   .     S
C511   H512    1.114   .     S
O517   C518    1.410   .     S
C518   H521    1.109   .     S
C518   H520    1.114   .     S
H519   C248    1.110   1_565 S
O522   C523    1.410   .     S
C523   H525    1.115   .     S
C523   H526    1.109   .     S
C523   H254    1.110   1_565 S
O529   C530    1.413   .     S
C530   H533    1.110   .     S
C530   H531    1.109   .     S
C530   H532    1.115   .     S
O534   C535    1.413   .     S
C535   H537    1.115   .     S
C535   H536    1.109   .     S
C535   H538    1.110   .     S
O541   C545    1.293   .     A
O541   Cu553   1.954   .     S
O542   C546    1.293   .     A
O542   Cu554   1.954   .     S
O543   Cu554   1.954   .     S
O543   C545    1.294   .     A
O544   Cu553   1.954   .     S
O544   C546    1.297   .     A
C545   C563    1.459   .     S
C546   C564    1.465   .     S
O547   C551    1.286   .     A
O547   Cu553   1.951   .     S
O548   C552    1.286   .     A
O548   Cu554   1.951   .     S
O549   Cu554   1.955   .     S
O549   C551    1.289   .     A
O550   C552    1.290   .     A
O550   Cu553   1.955   .     S
C551   C555    1.432   .     S
C552   C556    1.433   .     S
Cu553  Cu554   2.681   .     S
Cu553  N578    2.014   .     S
Cu554  N577    2.014   .     S
C555   C736    1.336   1_455 S
C555   H737    1.087   1_455 S
C556   C645    1.336   .     S
C556   H648    1.087   .     S
H557   C645    1.087   .     S
H558   C736    1.087   1_455 S
C559   C569    1.415   .     A
C559   C561    1.400   .     A
C559   O585    1.387   .     S
C560   C570    1.415   .     A
C560   O590    1.387   .     S
C560   C562    1.400   .     A
C561   O595    1.385   .     S
C561   C563    1.411   .     A
C562   O600    1.384   .     S
C562   C564    1.413   .     A
C563   C565    1.397   .     A
C564   C566    1.399   .     A
C565   H605    1.084   .     S
C565   C567    1.392   .     A
C566   H606    1.084   .     S
C566   C568    1.391   .     A
C567   C569    1.410   .     A
C567   O607    1.384   .     S
C568   C570    1.409   .     A
C568   O612    1.383   .     S
C569   C840    1.467   1_545 S
C570   C839    1.467   .     S
C571   C583    1.413   .     A
C571   H573    1.080   .     S
C571   C575    1.405   .     A
C572   C576    1.406   .     A
C572   C584    1.413   .     A
C572   H574    1.080   .     S
C575   N577    1.362   .     A
C575   H617    1.082   .     S
C576   H618    1.081   .     S
C576   N578    1.362   .     A
N577   C579    1.369   .     A
N578   C580    1.369   .     A
C579   C581    1.419   .     A
C579   O619    1.388   .     S
C580   O624    1.387   .     S
C580   C582    1.418   .     A
C581   H629    1.077   .     S
C581   C583    1.410   .     A
C582   C584    1.409   .     A
C582   H630    1.077   .     S
C584   C43     1.523   1_556 S
O585   C586    1.412   .     S
C586   H589    1.109   .     S
C586   H588    1.114   .     S
C586   H857    1.109   1_545 S
H587   C856    1.109   .     S
O590   C591    1.412   .     S
C591   H593    1.114   .     S
C591   H594    1.109   .     S
C591   H862    1.109   .     S
H592   C861    1.109   1_545 S
O595   C596    1.412   .     S
C596   H597    1.113   .     S
C596   H599    1.110   .     S
C596   H598    1.109   .     S
O600   C601    1.411   .     S
C601   H603    1.109   .     S
C601   H604    1.110   .     S
C601   H602    1.114   .     S
O607   C608    1.410   .     S
C608   H611    1.109   .     S
C608   H610    1.114   .     S
C608   H879    1.110   1_545 S
H609   C878    1.110   .     S
O612   C613    1.410   .     S
C613   H615    1.115   .     S
C613   H616    1.109   .     S
C613   H884    1.110   .     S
H614   C883    1.110   1_545 S
O619   C620    1.413   .     S
C620   H623    1.110   .     S
C620   H621    1.109   .     S
C620   H622    1.115   .     S
O624   C625    1.413   .     S
C625   H627    1.115   .     S
C625   H626    1.109   .     S
C625   H628    1.110   .     S
O631   C635    1.293   .     A
O631   Cu643   1.954   .     S
O632   C636    1.293   .     A
O632   Cu644   1.954   .     S
O633   Cu644   1.954   .     S
O633   C635    1.294   .     A
O634   Cu643   1.954   .     S
O634   C636    1.297   .     A
C635   C653    1.459   .     S
C636   C654    1.465   .     S
O637   C641    1.286   .     A
O637   Cu643   1.951   .     S
O638   C642    1.286   .     A
O638   Cu644   1.951   .     S
O639   Cu644   1.955   .     S
O639   C641    1.289   .     A
O640   C642    1.290   .     A
O640   Cu643   1.955   .     S
C641   C645    1.432   .     S
C642   C646    1.433   .     S
Cu643  Cu644   2.681   .     S
Cu643  N668    2.014   .     S
Cu644  N667    2.014   .     S
C646   C735    1.336   .     S
C646   H738    1.087   .     S
H647   C735    1.087   .     S
C649   C659    1.415   .     A
C649   C651    1.400   .     A
C649   O675    1.387   .     S
C650   C660    1.415   .     A
C650   O680    1.387   .     S
C650   C652    1.400   .     A
C651   O685    1.385   .     S
C651   C653    1.411   .     A
C652   O690    1.384   .     S
C652   C654    1.413   .     A
C653   C655    1.397   .     A
C654   C656    1.399   .     A
C655   H695    1.084   .     S
C655   C657    1.392   .     A
C656   H696    1.084   .     S
C656   C658    1.391   .     A
C657   C659    1.410   .     A
C657   O697    1.384   .     S
C658   C660    1.409   .     A
C658   O702    1.383   .     S
C659   C930    1.467   1_545 S
C660   C929    1.467   .     S
C661   C673    1.413   .     A
C661   H663    1.080   .     S
C661   C665    1.405   .     A
C662   C666    1.406   .     A
C662   C674    1.413   .     A
C662   H664    1.080   .     S
C665   N667    1.362   .     A
C665   H707    1.082   .     S
C666   H708    1.081   .     S
C666   N668    1.362   .     A
N667   C669    1.369   .     A
N668   C670    1.369   .     A
C669   C671    1.419   .     A
C669   O709    1.388   .     S
C670   O714    1.387   .     S
C670   C672    1.418   .     A
C671   H719    1.077   .     S
C671   C673    1.410   .     A
C672   C674    1.409   .     A
C672   H720    1.077   .     S
C674   C133    1.523   1_556 S
O675   C676    1.412   .     S
C676   H679    1.109   .     S
C676   H678    1.114   .     S
C676   H947    1.109   1_545 S
H677   C946    1.109   .     S
O680   C681    1.412   .     S
C681   H683    1.114   .     S
C681   H684    1.109   .     S
C681   H952    1.109   .     S
H682   C951    1.109   1_545 S
O685   C686    1.412   .     S
C686   H687    1.113   .     S
C686   H689    1.110   .     S
C686   H688    1.109   .     S
O690   C691    1.411   .     S
C691   H693    1.109   .     S
C691   H694    1.110   .     S
C691   H692    1.114   .     S
O697   C698    1.410   .     S
C698   H701    1.109   .     S
C698   H700    1.114   .     S
C698   H969    1.110   1_545 S
H699   C968    1.110   .     S
O702   C703    1.410   .     S
C703   H705    1.115   .     S
C703   H706    1.109   .     S
C703   H974    1.110   .     S
H704   C973    1.110   1_545 S
O709   C710    1.413   .     S
C710   H713    1.110   .     S
C710   H711    1.109   .     S
C710   H712    1.115   .     S
O714   C715    1.413   .     S
C715   H717    1.115   .     S
C715   H716    1.109   .     S
C715   H718    1.110   .     S
O721   C725    1.293   .     A
O721   Cu733   1.954   .     S
O722   C726    1.293   .     A
O722   Cu734   1.954   .     S
O723   Cu734   1.954   .     S
O723   C725    1.294   .     A
O724   Cu733   1.954   .     S
O724   C726    1.297   .     A
C725   C743    1.459   .     S
C726   C744    1.465   .     S
O727   C731    1.286   .     A
O727   Cu733   1.951   .     S
O728   C732    1.286   .     A
O728   Cu734   1.951   .     S
O729   Cu734   1.955   .     S
O729   C731    1.289   .     A
O730   C732    1.290   .     A
O730   Cu733   1.955   .     S
C731   C735    1.432   .     S
C732   C736    1.433   .     S
Cu733  Cu734   2.681   .     S
Cu733  N758    2.014   .     S
Cu734  N757    2.014   .     S
C736   C555    1.336   1_655 S
C736   H558    1.087   1_655 S
H737   C555    1.087   1_655 S
C739   C749    1.415   .     A
C739   C741    1.400   .     A
C739   O765    1.387   .     S
C740   C750    1.415   .     A
C740   O770    1.387   .     S
C740   C742    1.400   .     A
C741   O775    1.385   .     S
C741   C743    1.411   .     A
C742   O780    1.384   .     S
C742   C744    1.413   .     A
C743   C745    1.397   .     A
C744   C746    1.399   .     A
C745   H785    1.084   .     S
C745   C747    1.392   .     A
C746   H786    1.084   .     S
C746   C748    1.391   .     A
C747   C749    1.410   .     A
C747   O787    1.384   .     S
C748   C750    1.409   .     A
C748   O792    1.383   .     S
C749   C1020   1.467   1_545 S
C750   C1019   1.467   .     S
C751   C763    1.413   .     A
C751   H753    1.080   .     S
C751   C755    1.405   .     A
C752   C756    1.406   .     A
C752   C764    1.413   .     A
C752   H754    1.080   .     S
C755   N757    1.362   .     A
C755   H797    1.082   .     S
C756   H798    1.081   .     S
C756   N758    1.362   .     A
N757   C759    1.369   .     A
N758   C760    1.369   .     A
C759   C761    1.419   .     A
C759   O799    1.388   .     S
C760   O804    1.387   .     S
C760   C762    1.418   .     A
C761   H809    1.077   .     S
C761   C763    1.410   .     A
C762   C764    1.409   .     A
C762   H810    1.077   .     S
C764   C223    1.523   1_556 S
O765   C766    1.412   .     S
C766   H769    1.109   .     S
C766   H768    1.114   .     S
C766   H1037   1.109   1_545 S
H767   C1036   1.109   .     S
O770   C771    1.412   .     S
C771   H773    1.114   .     S
C771   H774    1.109   .     S
C771   H1042   1.109   .     S
H772   C1041   1.109   1_545 S
O775   C776    1.412   .     S
C776   H777    1.113   .     S
C776   H779    1.110   .     S
C776   H778    1.109   .     S
O780   C781    1.411   .     S
C781   H783    1.109   .     S
C781   H784    1.110   .     S
C781   H782    1.114   .     S
O787   C788    1.410   .     S
C788   H791    1.109   .     S
C788   H790    1.114   .     S
C788   H1059   1.110   1_545 S
H789   C1058   1.110   .     S
O792   C793    1.410   .     S
C793   H795    1.115   .     S
C793   H796    1.109   .     S
C793   H1064   1.110   .     S
H794   C1063   1.110   1_545 S
O799   C800    1.413   .     S
C800   H803    1.110   .     S
C800   H801    1.109   .     S
C800   H802    1.115   .     S
O804   C805    1.413   .     S
C805   H807    1.115   .     S
C805   H806    1.109   .     S
C805   H808    1.110   .     S
O811   C815    1.293   .     A
O811   Cu823   1.954   .     S
O812   C816    1.293   .     A
O812   Cu824   1.954   .     S
O813   Cu824   1.954   .     S
O813   C815    1.294   .     A
O814   Cu823   1.954   .     S
O814   C816    1.297   .     A
C815   C833    1.459   .     S
C816   C834    1.465   .     S
O817   C821    1.286   .     A
O817   Cu823   1.951   .     S
O818   C822    1.286   .     A
O818   Cu824   1.951   .     S
O819   Cu824   1.955   .     S
O819   C821    1.289   .     A
O820   C822    1.290   .     A
O820   Cu823   1.955   .     S
C821   C825    1.432   .     S
C822   C826    1.433   .     S
Cu823  Cu824   2.681   .     S
Cu823  N848    2.014   .     S
Cu824  N847    2.014   .     S
C825   C1006   1.336   1_455 S
C825   H1007   1.087   1_455 S
C826   C915    1.336   .     S
C826   H918    1.087   .     S
H827   C915    1.087   .     S
H828   C1006   1.087   1_455 S
C829   C839    1.415   .     A
C829   C831    1.400   .     A
C829   O855    1.387   .     S
C830   C840    1.415   .     A
C830   O860    1.387   .     S
C830   C832    1.400   .     A
C831   O865    1.385   .     S
C831   C833    1.411   .     A
C832   O870    1.384   .     S
C832   C834    1.413   .     A
C833   C835    1.397   .     A
C834   C836    1.399   .     A
C835   H875    1.084   .     S
C835   C837    1.392   .     A
C836   H876    1.084   .     S
C836   C838    1.391   .     A
C837   C839    1.410   .     A
C837   O877    1.384   .     S
C838   C840    1.409   .     A
C838   O882    1.383   .     S
C840   C569    1.467   1_565 S
C841   C853    1.413   .     A
C841   H843    1.080   .     S
C841   C845    1.405   .     A
C842   C846    1.406   .     A
C842   C854    1.413   .     A
C842   H844    1.080   .     S
C845   N847    1.362   .     A
C845   H887    1.082   .     S
C846   H888    1.081   .     S
C846   N848    1.362   .     A
N847   C849    1.369   .     A
N848   C850    1.369   .     A
C849   C851    1.419   .     A
C849   O889    1.388   .     S
C850   O894    1.387   .     S
C850   C852    1.418   .     A
C851   H899    1.077   .     S
C851   C853    1.410   .     A
C852   C854    1.409   .     A
C852   H900    1.077   .     S
C854   C313    1.523   1_556 S
O855   C856    1.412   .     S
C856   H859    1.109   .     S
C856   H858    1.114   .     S
H857   C586    1.109   1_565 S
O860   C861    1.412   .     S
C861   H863    1.114   .     S
C861   H864    1.109   .     S
C861   H592    1.109   1_565 S
O865   C866    1.412   .     S
C866   H867    1.113   .     S
C866   H869    1.110   .     S
C866   H868    1.109   .     S
O870   C871    1.411   .     S
C871   H873    1.109   .     S
C871   H874    1.110   .     S
C871   H872    1.114   .     S
O877   C878    1.410   .     S
C878   H881    1.109   .     S
C878   H880    1.114   .     S
H879   C608    1.110   1_565 S
O882   C883    1.410   .     S
C883   H885    1.115   .     S
C883   H886    1.109   .     S
C883   H614    1.110   1_565 S
O889   C890    1.413   .     S
C890   H893    1.110   .     S
C890   H891    1.109   .     S
C890   H892    1.115   .     S
O894   C895    1.413   .     S
C895   H897    1.115   .     S
C895   H896    1.109   .     S
C895   H898    1.110   .     S
O901   C905    1.293   .     A
O901   Cu913   1.954   .     S
O902   C906    1.293   .     A
O902   Cu914   1.954   .     S
O903   Cu914   1.954   .     S
O903   C905    1.294   .     A
O904   Cu913   1.954   .     S
O904   C906    1.297   .     A
C905   C923    1.459   .     S
C906   C924    1.465   .     S
O907   C911    1.286   .     A
O907   Cu913   1.951   .     S
O908   C912    1.286   .     A
O908   Cu914   1.951   .     S
O909   Cu914   1.955   .     S
O909   C911    1.289   .     A
O910   C912    1.290   .     A
O910   Cu913   1.955   .     S
C911   C915    1.432   .     S
C912   C916    1.433   .     S
Cu913  Cu914   2.681   .     S
Cu913  N938    2.014   .     S
Cu914  N937    2.014   .     S
C916   C1005   1.336   .     S
C916   H1008   1.087   .     S
H917   C1005   1.087   .     S
C919   C929    1.415   .     A
C919   C921    1.400   .     A
C919   O945    1.387   .     S
C920   C930    1.415   .     A
C920   O950    1.387   .     S
C920   C922    1.400   .     A
C921   O955    1.385   .     S
C921   C923    1.411   .     A
C922   O960    1.384   .     S
C922   C924    1.413   .     A
C923   C925    1.397   .     A
C924   C926    1.399   .     A
C925   H965    1.084   .     S
C925   C927    1.392   .     A
C926   H966    1.084   .     S
C926   C928    1.391   .     A
C927   C929    1.410   .     A
C927   O967    1.384   .     S
C928   C930    1.409   .     A
C928   O972    1.383   .     S
C930   C659    1.467   1_565 S
C931   C943    1.413   .     A
C931   H933    1.080   .     S
C931   C935    1.405   .     A
C932   C936    1.406   .     A
C932   C944    1.413   .     A
C932   H934    1.080   .     S
C935   N937    1.362   .     A
C935   H977    1.082   .     S
C936   H978    1.081   .     S
C936   N938    1.362   .     A
N937   C939    1.369   .     A
N938   C940    1.369   .     A
C939   C941    1.419   .     A
C939   O979    1.388   .     S
C940   O984    1.387   .     S
C940   C942    1.418   .     A
C941   H989    1.077   .     S
C941   C943    1.410   .     A
C942   C944    1.409   .     A
C942   H990    1.077   .     S
C944   C403    1.523   1_556 S
O945   C946    1.412   .     S
C946   H949    1.109   .     S
C946   H948    1.114   .     S
H947   C676    1.109   1_565 S
O950   C951    1.412   .     S
C951   H953    1.114   .     S
C951   H954    1.109   .     S
C951   H682    1.109   1_565 S
O955   C956    1.412   .     S
C956   H957    1.113   .     S
C956   H959    1.110   .     S
C956   H958    1.109   .     S
O960   C961    1.411   .     S
C961   H963    1.109   .     S
C961   H964    1.110   .     S
C961   H962    1.114   .     S
O967   C968    1.410   .     S
C968   H971    1.109   .     S
C968   H970    1.114   .     S
H969   C698    1.110   1_565 S
O972   C973    1.410   .     S
C973   H975    1.115   .     S
C973   H976    1.109   .     S
C973   H704    1.110   1_565 S
O979   C980    1.413   .     S
C980   H983    1.110   .     S
C980   H981    1.109   .     S
C980   H982    1.115   .     S
O984   C985    1.413   .     S
C985   H987    1.115   .     S
C985   H986    1.109   .     S
C985   H988    1.110   .     S
O991   C995    1.293   .     A
O991   Cu1003  1.954   .     S
O992   C996    1.293   .     A
O992   Cu1004  1.954   .     S
O993   Cu1004  1.954   .     S
O993   C995    1.294   .     A
O994   Cu1003  1.954   .     S
O994   C996    1.297   .     A
C995   C1013   1.459   .     S
C996   C1014   1.465   .     S
O997   C1001   1.286   .     A
O997   Cu1003  1.951   .     S
O998   C1002   1.286   .     A
O998   Cu1004  1.951   .     S
O999   Cu1004  1.955   .     S
O999   C1001   1.289   .     A
O1000  C1002   1.290   .     A
O1000  Cu1003  1.955   .     S
C1001  C1005   1.432   .     S
C1002  C1006   1.433   .     S
Cu1003 Cu1004  2.681   .     S
Cu1003 N1028   2.014   .     S
Cu1004 N1027   2.014   .     S
C1006  C825    1.336   1_655 S
C1006  H828    1.087   1_655 S
H1007  C825    1.087   1_655 S
C1009  C1019   1.415   .     A
C1009  C1011   1.400   .     A
C1009  O1035   1.387   .     S
C1010  C1020   1.415   .     A
C1010  O1040   1.387   .     S
C1010  C1012   1.400   .     A
C1011  O1045   1.385   .     S
C1011  C1013   1.411   .     A
C1012  O1050   1.384   .     S
C1012  C1014   1.413   .     A
C1013  C1015   1.397   .     A
C1014  C1016   1.399   .     A
C1015  H1055   1.084   .     S
C1015  C1017   1.392   .     A
C1016  H1056   1.084   .     S
C1016  C1018   1.391   .     A
C1017  C1019   1.410   .     A
C1017  O1057   1.384   .     S
C1018  C1020   1.409   .     A
C1018  O1062   1.383   .     S
C1020  C749    1.467   1_565 S
C1021  C1033   1.413   .     A
C1021  H1023   1.080   .     S
C1021  C1025   1.405   .     A
C1022  C1026   1.406   .     A
C1022  C1034   1.413   .     A
C1022  H1024   1.080   .     S
C1025  N1027   1.362   .     A
C1025  H1067   1.082   .     S
C1026  H1068   1.081   .     S
C1026  N1028   1.362   .     A
N1027  C1029   1.369   .     A
N1028  C1030   1.369   .     A
C1029  C1031   1.419   .     A
C1029  O1069   1.388   .     S
C1030  O1074   1.387   .     S
C1030  C1032   1.418   .     A
C1031  H1079   1.077   .     S
C1031  C1033   1.410   .     A
C1032  C1034   1.409   .     A
C1032  H1080   1.077   .     S
C1034  C493    1.523   1_556 S
O1035  C1036   1.412   .     S
C1036  H1039   1.109   .     S
C1036  H1038   1.114   .     S
H1037  C766    1.109   1_565 S
O1040  C1041   1.412   .     S
C1041  H1043   1.114   .     S
C1041  H1044   1.109   .     S
C1041  H772    1.109   1_565 S
O1045  C1046   1.412   .     S
C1046  H1047   1.113   .     S
C1046  H1049   1.110   .     S
C1046  H1048   1.109   .     S
O1050  C1051   1.411   .     S
C1051  H1053   1.109   .     S
C1051  H1054   1.110   .     S
C1051  H1052   1.114   .     S
O1057  C1058   1.410   .     S
C1058  H1061   1.109   .     S
C1058  H1060   1.114   .     S
H1059  C788    1.110   1_565 S
O1062  C1063   1.410   .     S
C1063  H1065   1.115   .     S
C1063  H1066   1.109   .     S
C1063  H794    1.110   1_565 S
O1069  C1070   1.413   .     S
C1070  H1073   1.110   .     S
C1070  H1071   1.109   .     S
C1070  H1072   1.115   .     S
O1074  C1075   1.413   .     S
C1075  H1077   1.115   .     S
C1075  H1076   1.109   .     S
C1075  H1078   1.110   .     S
