data_str_m2_o1_o2_pcu_sym.4
_audit_creation_date              2020-01-03
_audit_creation_method            'Materials Studio'
_symmetry_space_group_name_H-M    'P1'
_symmetry_Int_Tables_number       1
_symmetry_cell_setting            triclinic
loop_
_symmetry_equiv_pos_as_xyz
  x,y,z
_cell_length_a                    32.3247
_cell_length_b                    28.5274
_cell_length_c                    30.4181
_cell_angle_alpha                 89.1239
_cell_angle_beta                  90.0948
_cell_angle_gamma                 90.0812
loop_
_atom_site_label
_atom_site_type_symbol
_atom_site_fract_x
_atom_site_fract_y
_atom_site_fract_z
_atom_site_U_iso_or_equiv
_atom_site_adp_type
_atom_site_occupancy
O1     O     0.10655   0.20625   0.25000   0.00000  Uiso   1.00
O2     O     0.22679   0.12709   0.25001   0.00000  Uiso   1.00
O3     O     0.22679   0.20625   0.25001   0.00000  Uiso   1.00
O4     O     0.10655   0.12709   0.25000   0.00000  Uiso   1.00
N5     N     0.16667   0.28402   0.25000   0.00000  Uiso   1.00
N6     N     0.16667   0.04931   0.25000   0.00000  Uiso   1.00
C7     C     0.08747   0.16664   0.25005   0.00000  Uiso   1.00
C8     C     0.24590   0.16668   0.25010   0.00000  Uiso   1.00
O9     O     0.16666   0.20626   0.18573   0.00000  Uiso   1.00
O10    O     0.16667   0.12707   0.31427   0.00000  Uiso   1.00
O11    O     0.16667   0.20626   0.31427   0.00000  Uiso   1.00
O12    O     0.16666   0.12707   0.18573   0.00000  Uiso   1.00
C13    C     0.16520   0.16719   0.16487   0.00000  Uiso   1.00
C14    C     0.16505   0.16616   0.33511   0.00000  Uiso   1.00
Cu15   Cu    0.16667   0.21355   0.25000   0.00000  Uiso   1.00
Cu16   Cu    0.16667   0.11978   0.25000   0.00000  Uiso   1.00
H17    H     0.11445   0.04397   0.20807   0.00000  Uiso   1.00
H18    H     0.21832   0.28921   0.29280   0.00000  Uiso   1.00
H19    H     0.21835   0.04291   0.29276   0.00000  Uiso   1.00
H20    H     0.11454   0.29043   0.20789   0.00000  Uiso   1.00
C21    C     0.13773   0.02511   0.22664   0.00000  Uiso   1.00
C22    C     0.19539   0.30818   0.27372   0.00000  Uiso   1.00
C23    C     0.19541   0.02448   0.27369   0.00000  Uiso   1.00
C24    C     0.13773   0.30885   0.22663   0.00000  Uiso   1.00
C25    C     0.02171   0.14804   0.28669   0.00000  Uiso   1.00
C26    C     0.31182   0.18491   0.21344   0.00000  Uiso   1.00
C27    C     0.31187   0.14838   0.28681   0.00000  Uiso   1.00
C28    C     0.02164   0.18526   0.21354   0.00000  Uiso   1.00
C29    C     0.17868   0.20610   0.04612   0.00000  Uiso   1.00
C30    C     0.17671   0.12604   0.45371   0.00000  Uiso   1.00
C31    C     0.15043   0.20529   0.45222   0.00000  Uiso   1.00
C32    C     0.14914   0.12826   0.04788   0.00000  Uiso   1.00
H33    H     0.19020   0.23617   0.02767   0.00000  Uiso   1.00
H34    H     0.18705   0.09534   0.47204   0.00000  Uiso   1.00
H35    H     0.13913   0.23560   0.46953   0.00000  Uiso   1.00
H36    H     0.13647   0.09849   0.03069   0.00000  Uiso   1.00
C37    C     0.17674   0.20814   0.09176   0.00000  Uiso   1.00
C38    C     0.17468   0.12438   0.40805   0.00000  Uiso   1.00
C39    C     0.14828   0.20490   0.40644   0.00000  Uiso   1.00
C40    C     0.14703   0.12909   0.09364   0.00000  Uiso   1.00
C41    C     0.16247   0.16851   0.11637   0.00000  Uiso   1.00
C42    C     0.16209   0.16484   0.38357   0.00000  Uiso   1.00
C43    C     0.16503   0.16647   0.02408   0.00000  Uiso   1.00
C44    C     0.16480   0.16622   0.47589   0.00000  Uiso   1.00
C45    C     0.29054   0.16670   0.25014   0.00000  Uiso   1.00
C46    C     0.04292   0.16661   0.25009   0.00000  Uiso   1.00
N47    N     0.18775   0.25155   0.11189   0.00000  Uiso   1.00
O48    O     0.22243   0.27186   0.10116   0.00000  Uiso   1.00
O49    O     0.15867   0.27688   0.12901   0.00000  Uiso   1.00
N50    N     0.18414   0.08069   0.38768   0.00000  Uiso   1.00
O51    O     0.15428   0.05669   0.37012   0.00000  Uiso   1.00
O52    O     0.21849   0.05929   0.39763   0.00000  Uiso   1.00
N53    N     0.12963   0.24430   0.38414   0.00000  Uiso   1.00
O54    O     0.09923   0.23769   0.35680   0.00000  Uiso   1.00
O55    O     0.13755   0.28665   0.39705   0.00000  Uiso   1.00
N56    N     0.12617   0.09130   0.11608   0.00000  Uiso   1.00
O57    O     0.09547   0.10038   0.14222   0.00000  Uiso   1.00
O58    O     0.13225   0.04826   0.10409   0.00000  Uiso   1.00
Br59   Br    0.05174   0.12395   0.33715   0.00000  Uiso   1.00
Br60   Br    0.28194   0.20716   0.16237   0.00000  Uiso   1.00
Br61   Br    0.28203   0.12573   0.33776   0.00000  Uiso   1.00
Br62   Br    0.05153   0.20965   0.16315   0.00000  Uiso   1.00
O63    O     0.43988   0.20625   0.25000   0.00000  Uiso   1.00
O64    O     0.56012   0.12709   0.25001   0.00000  Uiso   1.00
O65    O     0.56012   0.20625   0.25001   0.00000  Uiso   1.00
O66    O     0.43988   0.12709   0.25000   0.00000  Uiso   1.00
N67    N     0.50000   0.28402   0.25000   0.00000  Uiso   1.00
N68    N     0.50000   0.04931   0.25000   0.00000  Uiso   1.00
C69    C     0.42081   0.16664   0.25005   0.00000  Uiso   1.00
C70    C     0.57923   0.16668   0.25010   0.00000  Uiso   1.00
O71    O     0.50000   0.20626   0.18573   0.00000  Uiso   1.00
O72    O     0.50000   0.12707   0.31427   0.00000  Uiso   1.00
O73    O     0.50000   0.20626   0.31427   0.00000  Uiso   1.00
O74    O     0.50000   0.12707   0.18573   0.00000  Uiso   1.00
C75    C     0.49854   0.16719   0.16487   0.00000  Uiso   1.00
C76    C     0.49838   0.16616   0.33511   0.00000  Uiso   1.00
Cu77   Cu    0.50000   0.21355   0.25000   0.00000  Uiso   1.00
Cu78   Cu    0.50000   0.11978   0.25000   0.00000  Uiso   1.00
H79    H     0.44778   0.04397   0.20807   0.00000  Uiso   1.00
H80    H     0.55166   0.28921   0.29280   0.00000  Uiso   1.00
H81    H     0.55168   0.04291   0.29276   0.00000  Uiso   1.00
H82    H     0.44787   0.29043   0.20789   0.00000  Uiso   1.00
C83    C     0.47107   0.02511   0.22664   0.00000  Uiso   1.00
C84    C     0.52872   0.30818   0.27372   0.00000  Uiso   1.00
C85    C     0.52874   0.02448   0.27369   0.00000  Uiso   1.00
C86    C     0.47106   0.30885   0.22663   0.00000  Uiso   1.00
C87    C     0.35504   0.14804   0.28669   0.00000  Uiso   1.00
C88    C     0.64515   0.18491   0.21344   0.00000  Uiso   1.00
C89    C     0.64520   0.14838   0.28681   0.00000  Uiso   1.00
C90    C     0.35497   0.18526   0.21354   0.00000  Uiso   1.00
C91    C     0.51202   0.20610   0.04612   0.00000  Uiso   1.00
C92    C     0.51004   0.12604   0.45371   0.00000  Uiso   1.00
C93    C     0.48376   0.20529   0.45222   0.00000  Uiso   1.00
C94    C     0.48248   0.12826   0.04788   0.00000  Uiso   1.00
H95    H     0.52354   0.23617   0.02767   0.00000  Uiso   1.00
H96    H     0.52038   0.09534   0.47204   0.00000  Uiso   1.00
H97    H     0.47246   0.23560   0.46953   0.00000  Uiso   1.00
H98    H     0.46980   0.09849   0.03069   0.00000  Uiso   1.00
C99    C     0.51008   0.20814   0.09176   0.00000  Uiso   1.00
C100   C     0.50801   0.12438   0.40805   0.00000  Uiso   1.00
C101   C     0.48161   0.20490   0.40644   0.00000  Uiso   1.00
C102   C     0.48036   0.12909   0.09364   0.00000  Uiso   1.00
C103   C     0.49580   0.16851   0.11637   0.00000  Uiso   1.00
C104   C     0.49542   0.16484   0.38357   0.00000  Uiso   1.00
C105   C     0.49836   0.16647   0.02408   0.00000  Uiso   1.00
C106   C     0.49814   0.16622   0.47589   0.00000  Uiso   1.00
C107   C     0.62388   0.16670   0.25014   0.00000  Uiso   1.00
C108   C     0.37625   0.16661   0.25009   0.00000  Uiso   1.00
N109   N     0.52108   0.25155   0.11189   0.00000  Uiso   1.00
O110   O     0.55576   0.27186   0.10116   0.00000  Uiso   1.00
O111   O     0.49200   0.27688   0.12901   0.00000  Uiso   1.00
N112   N     0.51747   0.08069   0.38768   0.00000  Uiso   1.00
O113   O     0.48761   0.05669   0.37012   0.00000  Uiso   1.00
O114   O     0.55182   0.05929   0.39763   0.00000  Uiso   1.00
N115   N     0.46296   0.24430   0.38414   0.00000  Uiso   1.00
O116   O     0.43257   0.23769   0.35680   0.00000  Uiso   1.00
O117   O     0.47089   0.28665   0.39705   0.00000  Uiso   1.00
N118   N     0.45950   0.09130   0.11608   0.00000  Uiso   1.00
O119   O     0.42881   0.10038   0.14222   0.00000  Uiso   1.00
O120   O     0.46558   0.04826   0.10409   0.00000  Uiso   1.00
Br121  Br    0.38508   0.12395   0.33715   0.00000  Uiso   1.00
Br122  Br    0.61528   0.20716   0.16237   0.00000  Uiso   1.00
Br123  Br    0.61536   0.12573   0.33776   0.00000  Uiso   1.00
Br124  Br    0.38486   0.20965   0.16315   0.00000  Uiso   1.00
O125   O     0.77321   0.20625   0.25000   0.00000  Uiso   1.00
O126   O     0.89345   0.12709   0.25001   0.00000  Uiso   1.00
O127   O     0.89345   0.20625   0.25001   0.00000  Uiso   1.00
O128   O     0.77321   0.12709   0.25000   0.00000  Uiso   1.00
N129   N     0.83333   0.28402   0.25000   0.00000  Uiso   1.00
N130   N     0.83333   0.04931   0.25000   0.00000  Uiso   1.00
C131   C     0.75414   0.16664   0.25005   0.00000  Uiso   1.00
C132   C     0.91257   0.16668   0.25010   0.00000  Uiso   1.00
O133   O     0.83333   0.20626   0.18573   0.00000  Uiso   1.00
O134   O     0.83334   0.12707   0.31427   0.00000  Uiso   1.00
O135   O     0.83334   0.20626   0.31427   0.00000  Uiso   1.00
O136   O     0.83333   0.12707   0.18573   0.00000  Uiso   1.00
C137   C     0.83187   0.16719   0.16487   0.00000  Uiso   1.00
C138   C     0.83171   0.16616   0.33511   0.00000  Uiso   1.00
Cu139  Cu    0.83333   0.21355   0.25000   0.00000  Uiso   1.00
Cu140  Cu    0.83333   0.11978   0.25000   0.00000  Uiso   1.00
H141   H     0.78111   0.04397   0.20807   0.00000  Uiso   1.00
H142   H     0.88499   0.28921   0.29280   0.00000  Uiso   1.00
H143   H     0.88502   0.04291   0.29276   0.00000  Uiso   1.00
H144   H     0.78121   0.29043   0.20789   0.00000  Uiso   1.00
C145   C     0.80440   0.02511   0.22664   0.00000  Uiso   1.00
C146   C     0.86205   0.30818   0.27372   0.00000  Uiso   1.00
C147   C     0.86207   0.02448   0.27369   0.00000  Uiso   1.00
C148   C     0.80440   0.30885   0.22663   0.00000  Uiso   1.00
C149   C     0.68838   0.14804   0.28669   0.00000  Uiso   1.00
C150   C     0.97848   0.18491   0.21344   0.00000  Uiso   1.00
C151   C     0.97854   0.14838   0.28681   0.00000  Uiso   1.00
C152   C     0.68830   0.18526   0.21354   0.00000  Uiso   1.00
C153   C     0.84535   0.20610   0.04612   0.00000  Uiso   1.00
C154   C     0.84338   0.12604   0.45371   0.00000  Uiso   1.00
C155   C     0.81710   0.20529   0.45222   0.00000  Uiso   1.00
C156   C     0.81581   0.12826   0.04788   0.00000  Uiso   1.00
H157   H     0.85687   0.23617   0.02767   0.00000  Uiso   1.00
H158   H     0.85371   0.09534   0.47204   0.00000  Uiso   1.00
H159   H     0.80579   0.23560   0.46953   0.00000  Uiso   1.00
H160   H     0.80313   0.09849   0.03069   0.00000  Uiso   1.00
C161   C     0.84341   0.20814   0.09176   0.00000  Uiso   1.00
C162   C     0.84135   0.12438   0.40805   0.00000  Uiso   1.00
C163   C     0.81495   0.20490   0.40644   0.00000  Uiso   1.00
C164   C     0.81369   0.12909   0.09364   0.00000  Uiso   1.00
C165   C     0.82914   0.16851   0.11637   0.00000  Uiso   1.00
C166   C     0.82875   0.16484   0.38357   0.00000  Uiso   1.00
C167   C     0.83170   0.16647   0.02408   0.00000  Uiso   1.00
C168   C     0.83147   0.16622   0.47589   0.00000  Uiso   1.00
C169   C     0.95721   0.16670   0.25014   0.00000  Uiso   1.00
C170   C     0.70959   0.16661   0.25009   0.00000  Uiso   1.00
N171   N     0.85441   0.25155   0.11189   0.00000  Uiso   1.00
O172   O     0.88910   0.27186   0.10116   0.00000  Uiso   1.00
O173   O     0.82534   0.27688   0.12901   0.00000  Uiso   1.00
N174   N     0.85080   0.08069   0.38768   0.00000  Uiso   1.00
O175   O     0.82095   0.05669   0.37012   0.00000  Uiso   1.00
O176   O     0.88516   0.05929   0.39763   0.00000  Uiso   1.00
N177   N     0.79630   0.24430   0.38414   0.00000  Uiso   1.00
O178   O     0.76590   0.23769   0.35680   0.00000  Uiso   1.00
O179   O     0.80422   0.28665   0.39705   0.00000  Uiso   1.00
N180   N     0.79284   0.09130   0.11608   0.00000  Uiso   1.00
O181   O     0.76214   0.10038   0.14222   0.00000  Uiso   1.00
O182   O     0.79892   0.04826   0.10409   0.00000  Uiso   1.00
Br183  Br    0.71841   0.12395   0.33715   0.00000  Uiso   1.00
Br184  Br    0.94861   0.20716   0.16237   0.00000  Uiso   1.00
Br185  Br    0.94870   0.12573   0.33776   0.00000  Uiso   1.00
Br186  Br    0.71819   0.20965   0.16315   0.00000  Uiso   1.00
O187   O     0.10655   0.53958   0.25000   0.00000  Uiso   1.00
O188   O     0.22679   0.46042   0.25001   0.00000  Uiso   1.00
O189   O     0.22679   0.53958   0.25001   0.00000  Uiso   1.00
O190   O     0.10655   0.46042   0.25000   0.00000  Uiso   1.00
N191   N     0.16667   0.61736   0.25000   0.00000  Uiso   1.00
N192   N     0.16667   0.38264   0.25000   0.00000  Uiso   1.00
C193   C     0.08747   0.49998   0.25005   0.00000  Uiso   1.00
C194   C     0.24590   0.50002   0.25010   0.00000  Uiso   1.00
O195   O     0.16666   0.53959   0.18573   0.00000  Uiso   1.00
O196   O     0.16667   0.46041   0.31427   0.00000  Uiso   1.00
O197   O     0.16667   0.53959   0.31427   0.00000  Uiso   1.00
O198   O     0.16666   0.46041   0.18573   0.00000  Uiso   1.00
C199   C     0.16520   0.50052   0.16487   0.00000  Uiso   1.00
C200   C     0.16505   0.49950   0.33511   0.00000  Uiso   1.00
Cu201  Cu    0.16667   0.54689   0.25000   0.00000  Uiso   1.00
Cu202  Cu    0.16667   0.45311   0.25000   0.00000  Uiso   1.00
H203   H     0.11445   0.37730   0.20807   0.00000  Uiso   1.00
H204   H     0.21832   0.62255   0.29280   0.00000  Uiso   1.00
H205   H     0.21835   0.37624   0.29276   0.00000  Uiso   1.00
H206   H     0.11454   0.62377   0.20789   0.00000  Uiso   1.00
C207   C     0.13773   0.35844   0.22664   0.00000  Uiso   1.00
C208   C     0.19539   0.64152   0.27372   0.00000  Uiso   1.00
C209   C     0.19541   0.35781   0.27369   0.00000  Uiso   1.00
C210   C     0.13773   0.64218   0.22663   0.00000  Uiso   1.00
C211   C     0.02171   0.48138   0.28669   0.00000  Uiso   1.00
C212   C     0.31182   0.51824   0.21344   0.00000  Uiso   1.00
C213   C     0.31187   0.48172   0.28681   0.00000  Uiso   1.00
C214   C     0.02164   0.51859   0.21354   0.00000  Uiso   1.00
C215   C     0.17868   0.53943   0.04612   0.00000  Uiso   1.00
C216   C     0.17671   0.45937   0.45371   0.00000  Uiso   1.00
C217   C     0.15043   0.53862   0.45222   0.00000  Uiso   1.00
C218   C     0.14914   0.46160   0.04788   0.00000  Uiso   1.00
H219   H     0.19020   0.56951   0.02767   0.00000  Uiso   1.00
H220   H     0.18705   0.42867   0.47204   0.00000  Uiso   1.00
H221   H     0.13913   0.56894   0.46953   0.00000  Uiso   1.00
H222   H     0.13647   0.43182   0.03069   0.00000  Uiso   1.00
C223   C     0.17674   0.54148   0.09176   0.00000  Uiso   1.00
C224   C     0.17468   0.45771   0.40805   0.00000  Uiso   1.00
C225   C     0.14828   0.53823   0.40644   0.00000  Uiso   1.00
C226   C     0.14703   0.46243   0.09364   0.00000  Uiso   1.00
C227   C     0.16247   0.50184   0.11637   0.00000  Uiso   1.00
C228   C     0.16209   0.49817   0.38357   0.00000  Uiso   1.00
C229   C     0.16503   0.49980   0.02408   0.00000  Uiso   1.00
C230   C     0.16480   0.49955   0.47589   0.00000  Uiso   1.00
C231   C     0.29054   0.50003   0.25014   0.00000  Uiso   1.00
C232   C     0.04292   0.49995   0.25009   0.00000  Uiso   1.00
N233   N     0.18775   0.58488   0.11189   0.00000  Uiso   1.00
O234   O     0.22243   0.60519   0.10116   0.00000  Uiso   1.00
O235   O     0.15867   0.61021   0.12901   0.00000  Uiso   1.00
N236   N     0.18414   0.41402   0.38768   0.00000  Uiso   1.00
O237   O     0.15428   0.39002   0.37012   0.00000  Uiso   1.00
O238   O     0.21849   0.39262   0.39763   0.00000  Uiso   1.00
N239   N     0.12963   0.57763   0.38414   0.00000  Uiso   1.00
O240   O     0.09923   0.57102   0.35680   0.00000  Uiso   1.00
O241   O     0.13755   0.61999   0.39705   0.00000  Uiso   1.00
N242   N     0.12617   0.42463   0.11608   0.00000  Uiso   1.00
O243   O     0.09547   0.43372   0.14222   0.00000  Uiso   1.00
O244   O     0.13225   0.38159   0.10409   0.00000  Uiso   1.00
Br245  Br    0.05174   0.45729   0.33715   0.00000  Uiso   1.00
Br246  Br    0.28194   0.54049   0.16237   0.00000  Uiso   1.00
Br247  Br    0.28203   0.45907   0.33776   0.00000  Uiso   1.00
Br248  Br    0.05153   0.54299   0.16315   0.00000  Uiso   1.00
O249   O     0.43988   0.53958   0.25000   0.00000  Uiso   1.00
O250   O     0.56012   0.46042   0.25001   0.00000  Uiso   1.00
O251   O     0.56012   0.53958   0.25001   0.00000  Uiso   1.00
O252   O     0.43988   0.46042   0.25000   0.00000  Uiso   1.00
N253   N     0.50000   0.61736   0.25000   0.00000  Uiso   1.00
N254   N     0.50000   0.38264   0.25000   0.00000  Uiso   1.00
C255   C     0.42081   0.49998   0.25005   0.00000  Uiso   1.00
C256   C     0.57923   0.50002   0.25010   0.00000  Uiso   1.00
O257   O     0.50000   0.53959   0.18573   0.00000  Uiso   1.00
O258   O     0.50000   0.46041   0.31427   0.00000  Uiso   1.00
O259   O     0.50000   0.53959   0.31427   0.00000  Uiso   1.00
O260   O     0.50000   0.46041   0.18573   0.00000  Uiso   1.00
C261   C     0.49854   0.50052   0.16487   0.00000  Uiso   1.00
C262   C     0.49838   0.49950   0.33511   0.00000  Uiso   1.00
Cu263  Cu    0.50000   0.54689   0.25000   0.00000  Uiso   1.00
Cu264  Cu    0.50000   0.45311   0.25000   0.00000  Uiso   1.00
H265   H     0.44778   0.37730   0.20807   0.00000  Uiso   1.00
H266   H     0.55166   0.62255   0.29280   0.00000  Uiso   1.00
H267   H     0.55168   0.37624   0.29276   0.00000  Uiso   1.00
H268   H     0.44787   0.62377   0.20789   0.00000  Uiso   1.00
C269   C     0.47107   0.35844   0.22664   0.00000  Uiso   1.00
C270   C     0.52872   0.64152   0.27372   0.00000  Uiso   1.00
C271   C     0.52874   0.35781   0.27369   0.00000  Uiso   1.00
C272   C     0.47106   0.64218   0.22663   0.00000  Uiso   1.00
C273   C     0.35504   0.48138   0.28669   0.00000  Uiso   1.00
C274   C     0.64515   0.51824   0.21344   0.00000  Uiso   1.00
C275   C     0.64520   0.48172   0.28681   0.00000  Uiso   1.00
C276   C     0.35497   0.51859   0.21354   0.00000  Uiso   1.00
C277   C     0.51202   0.53943   0.04612   0.00000  Uiso   1.00
C278   C     0.51004   0.45937   0.45371   0.00000  Uiso   1.00
C279   C     0.48376   0.53862   0.45222   0.00000  Uiso   1.00
C280   C     0.48248   0.46160   0.04788   0.00000  Uiso   1.00
H281   H     0.52354   0.56951   0.02767   0.00000  Uiso   1.00
H282   H     0.52038   0.42867   0.47204   0.00000  Uiso   1.00
H283   H     0.47246   0.56894   0.46953   0.00000  Uiso   1.00
H284   H     0.46980   0.43182   0.03069   0.00000  Uiso   1.00
C285   C     0.51008   0.54148   0.09176   0.00000  Uiso   1.00
C286   C     0.50801   0.45771   0.40805   0.00000  Uiso   1.00
C287   C     0.48161   0.53823   0.40644   0.00000  Uiso   1.00
C288   C     0.48036   0.46243   0.09364   0.00000  Uiso   1.00
C289   C     0.49580   0.50184   0.11637   0.00000  Uiso   1.00
C290   C     0.49542   0.49817   0.38357   0.00000  Uiso   1.00
C291   C     0.49836   0.49980   0.02408   0.00000  Uiso   1.00
C292   C     0.49814   0.49955   0.47589   0.00000  Uiso   1.00
C293   C     0.62388   0.50003   0.25014   0.00000  Uiso   1.00
C294   C     0.37625   0.49995   0.25009   0.00000  Uiso   1.00
N295   N     0.52108   0.58488   0.11189   0.00000  Uiso   1.00
O296   O     0.55576   0.60519   0.10116   0.00000  Uiso   1.00
O297   O     0.49200   0.61021   0.12901   0.00000  Uiso   1.00
N298   N     0.51747   0.41402   0.38768   0.00000  Uiso   1.00
O299   O     0.48761   0.39002   0.37012   0.00000  Uiso   1.00
O300   O     0.55182   0.39262   0.39763   0.00000  Uiso   1.00
N301   N     0.46296   0.57763   0.38414   0.00000  Uiso   1.00
O302   O     0.43257   0.57102   0.35680   0.00000  Uiso   1.00
O303   O     0.47089   0.61999   0.39705   0.00000  Uiso   1.00
N304   N     0.45950   0.42463   0.11608   0.00000  Uiso   1.00
O305   O     0.42881   0.43372   0.14222   0.00000  Uiso   1.00
O306   O     0.46558   0.38159   0.10409   0.00000  Uiso   1.00
Br307  Br    0.38508   0.45729   0.33715   0.00000  Uiso   1.00
Br308  Br    0.61528   0.54049   0.16237   0.00000  Uiso   1.00
Br309  Br    0.61536   0.45907   0.33776   0.00000  Uiso   1.00
Br310  Br    0.38486   0.54299   0.16315   0.00000  Uiso   1.00
O311   O     0.77321   0.53958   0.25000   0.00000  Uiso   1.00
O312   O     0.89345   0.46042   0.25001   0.00000  Uiso   1.00
O313   O     0.89345   0.53958   0.25001   0.00000  Uiso   1.00
O314   O     0.77321   0.46042   0.25000   0.00000  Uiso   1.00
N315   N     0.83333   0.61736   0.25000   0.00000  Uiso   1.00
N316   N     0.83333   0.38264   0.25000   0.00000  Uiso   1.00
C317   C     0.75414   0.49998   0.25005   0.00000  Uiso   1.00
C318   C     0.91257   0.50002   0.25010   0.00000  Uiso   1.00
O319   O     0.83333   0.53959   0.18573   0.00000  Uiso   1.00
O320   O     0.83334   0.46041   0.31427   0.00000  Uiso   1.00
O321   O     0.83334   0.53959   0.31427   0.00000  Uiso   1.00
O322   O     0.83333   0.46041   0.18573   0.00000  Uiso   1.00
C323   C     0.83187   0.50052   0.16487   0.00000  Uiso   1.00
C324   C     0.83171   0.49950   0.33511   0.00000  Uiso   1.00
Cu325  Cu    0.83333   0.54689   0.25000   0.00000  Uiso   1.00
Cu326  Cu    0.83333   0.45311   0.25000   0.00000  Uiso   1.00
H327   H     0.78111   0.37730   0.20807   0.00000  Uiso   1.00
H328   H     0.88499   0.62255   0.29280   0.00000  Uiso   1.00
H329   H     0.88502   0.37624   0.29276   0.00000  Uiso   1.00
H330   H     0.78121   0.62377   0.20789   0.00000  Uiso   1.00
C331   C     0.80440   0.35844   0.22664   0.00000  Uiso   1.00
C332   C     0.86205   0.64152   0.27372   0.00000  Uiso   1.00
C333   C     0.86207   0.35781   0.27369   0.00000  Uiso   1.00
C334   C     0.80440   0.64218   0.22663   0.00000  Uiso   1.00
C335   C     0.68838   0.48138   0.28669   0.00000  Uiso   1.00
C336   C     0.97848   0.51824   0.21344   0.00000  Uiso   1.00
C337   C     0.97854   0.48172   0.28681   0.00000  Uiso   1.00
C338   C     0.68830   0.51859   0.21354   0.00000  Uiso   1.00
C339   C     0.84535   0.53943   0.04612   0.00000  Uiso   1.00
C340   C     0.84338   0.45937   0.45371   0.00000  Uiso   1.00
C341   C     0.81710   0.53862   0.45222   0.00000  Uiso   1.00
C342   C     0.81581   0.46160   0.04788   0.00000  Uiso   1.00
H343   H     0.85687   0.56951   0.02767   0.00000  Uiso   1.00
H344   H     0.85371   0.42867   0.47204   0.00000  Uiso   1.00
H345   H     0.80579   0.56894   0.46953   0.00000  Uiso   1.00
H346   H     0.80313   0.43182   0.03069   0.00000  Uiso   1.00
C347   C     0.84341   0.54148   0.09176   0.00000  Uiso   1.00
C348   C     0.84135   0.45771   0.40805   0.00000  Uiso   1.00
C349   C     0.81495   0.53823   0.40644   0.00000  Uiso   1.00
C350   C     0.81369   0.46243   0.09364   0.00000  Uiso   1.00
C351   C     0.82914   0.50184   0.11637   0.00000  Uiso   1.00
C352   C     0.82875   0.49817   0.38357   0.00000  Uiso   1.00
C353   C     0.83170   0.49980   0.02408   0.00000  Uiso   1.00
C354   C     0.83147   0.49955   0.47589   0.00000  Uiso   1.00
C355   C     0.95721   0.50003   0.25014   0.00000  Uiso   1.00
C356   C     0.70959   0.49995   0.25009   0.00000  Uiso   1.00
N357   N     0.85441   0.58488   0.11189   0.00000  Uiso   1.00
O358   O     0.88910   0.60519   0.10116   0.00000  Uiso   1.00
O359   O     0.82534   0.61021   0.12901   0.00000  Uiso   1.00
N360   N     0.85080   0.41402   0.38768   0.00000  Uiso   1.00
O361   O     0.82095   0.39002   0.37012   0.00000  Uiso   1.00
O362   O     0.88516   0.39262   0.39763   0.00000  Uiso   1.00
N363   N     0.79630   0.57763   0.38414   0.00000  Uiso   1.00
O364   O     0.76590   0.57102   0.35680   0.00000  Uiso   1.00
O365   O     0.80422   0.61999   0.39705   0.00000  Uiso   1.00
N366   N     0.79284   0.42463   0.11608   0.00000  Uiso   1.00
O367   O     0.76214   0.43372   0.14222   0.00000  Uiso   1.00
O368   O     0.79892   0.38159   0.10409   0.00000  Uiso   1.00
Br369  Br    0.71841   0.45729   0.33715   0.00000  Uiso   1.00
Br370  Br    0.94861   0.54049   0.16237   0.00000  Uiso   1.00
Br371  Br    0.94870   0.45907   0.33776   0.00000  Uiso   1.00
Br372  Br    0.71819   0.54299   0.16315   0.00000  Uiso   1.00
O373   O     0.10655   0.87291   0.25000   0.00000  Uiso   1.00
O374   O     0.22679   0.79375   0.25001   0.00000  Uiso   1.00
O375   O     0.22679   0.87291   0.25001   0.00000  Uiso   1.00
O376   O     0.10655   0.79375   0.25000   0.00000  Uiso   1.00
N377   N     0.16667   0.95069   0.25000   0.00000  Uiso   1.00
N378   N     0.16667   0.71598   0.25000   0.00000  Uiso   1.00
C379   C     0.08747   0.83331   0.25005   0.00000  Uiso   1.00
C380   C     0.24590   0.83335   0.25010   0.00000  Uiso   1.00
O381   O     0.16666   0.87293   0.18573   0.00000  Uiso   1.00
O382   O     0.16667   0.79374   0.31427   0.00000  Uiso   1.00
O383   O     0.16667   0.87293   0.31427   0.00000  Uiso   1.00
O384   O     0.16666   0.79374   0.18573   0.00000  Uiso   1.00
C385   C     0.16520   0.83385   0.16487   0.00000  Uiso   1.00
C386   C     0.16505   0.83283   0.33511   0.00000  Uiso   1.00
Cu387  Cu    0.16667   0.88022   0.25000   0.00000  Uiso   1.00
Cu388  Cu    0.16667   0.78645   0.25000   0.00000  Uiso   1.00
H389   H     0.11445   0.71064   0.20807   0.00000  Uiso   1.00
H390   H     0.21832   0.95588   0.29280   0.00000  Uiso   1.00
H391   H     0.21835   0.70958   0.29276   0.00000  Uiso   1.00
H392   H     0.11454   0.95710   0.20789   0.00000  Uiso   1.00
C393   C     0.13773   0.69177   0.22664   0.00000  Uiso   1.00
C394   C     0.19539   0.97485   0.27372   0.00000  Uiso   1.00
C395   C     0.19541   0.69115   0.27369   0.00000  Uiso   1.00
C396   C     0.13773   0.97551   0.22663   0.00000  Uiso   1.00
C397   C     0.02171   0.81471   0.28669   0.00000  Uiso   1.00
C398   C     0.31182   0.85157   0.21344   0.00000  Uiso   1.00
C399   C     0.31187   0.81505   0.28681   0.00000  Uiso   1.00
C400   C     0.02164   0.85193   0.21354   0.00000  Uiso   1.00
C401   C     0.17868   0.87276   0.04612   0.00000  Uiso   1.00
C402   C     0.17671   0.79271   0.45371   0.00000  Uiso   1.00
C403   C     0.15043   0.87195   0.45222   0.00000  Uiso   1.00
C404   C     0.14914   0.79493   0.04788   0.00000  Uiso   1.00
H405   H     0.19020   0.90284   0.02767   0.00000  Uiso   1.00
H406   H     0.18705   0.76201   0.47204   0.00000  Uiso   1.00
H407   H     0.13913   0.90227   0.46953   0.00000  Uiso   1.00
H408   H     0.13647   0.76516   0.03069   0.00000  Uiso   1.00
C409   C     0.17674   0.87481   0.09176   0.00000  Uiso   1.00
C410   C     0.17468   0.79104   0.40805   0.00000  Uiso   1.00
C411   C     0.14828   0.87157   0.40644   0.00000  Uiso   1.00
C412   C     0.14703   0.79576   0.09364   0.00000  Uiso   1.00
C413   C     0.16247   0.83518   0.11637   0.00000  Uiso   1.00
C414   C     0.16209   0.83150   0.38357   0.00000  Uiso   1.00
C415   C     0.16503   0.83314   0.02408   0.00000  Uiso   1.00
C416   C     0.16480   0.83289   0.47589   0.00000  Uiso   1.00
C417   C     0.29054   0.83336   0.25014   0.00000  Uiso   1.00
C418   C     0.04292   0.83328   0.25009   0.00000  Uiso   1.00
N419   N     0.18775   0.91822   0.11189   0.00000  Uiso   1.00
O420   O     0.22243   0.93852   0.10116   0.00000  Uiso   1.00
O421   O     0.15867   0.94355   0.12901   0.00000  Uiso   1.00
N422   N     0.18414   0.74736   0.38768   0.00000  Uiso   1.00
O423   O     0.15428   0.72335   0.37012   0.00000  Uiso   1.00
O424   O     0.21849   0.72595   0.39763   0.00000  Uiso   1.00
N425   N     0.12963   0.91097   0.38414   0.00000  Uiso   1.00
O426   O     0.09923   0.90436   0.35680   0.00000  Uiso   1.00
O427   O     0.13755   0.95332   0.39705   0.00000  Uiso   1.00
N428   N     0.12617   0.75797   0.11608   0.00000  Uiso   1.00
O429   O     0.09547   0.76705   0.14222   0.00000  Uiso   1.00
O430   O     0.13225   0.71493   0.10409   0.00000  Uiso   1.00
Br431  Br    0.05174   0.79062   0.33715   0.00000  Uiso   1.00
Br432  Br    0.28194   0.87383   0.16237   0.00000  Uiso   1.00
Br433  Br    0.28203   0.79240   0.33776   0.00000  Uiso   1.00
Br434  Br    0.05153   0.87632   0.16315   0.00000  Uiso   1.00
O435   O     0.43988   0.87291   0.25000   0.00000  Uiso   1.00
O436   O     0.56012   0.79375   0.25001   0.00000  Uiso   1.00
O437   O     0.56012   0.87291   0.25001   0.00000  Uiso   1.00
O438   O     0.43988   0.79375   0.25000   0.00000  Uiso   1.00
N439   N     0.50000   0.95069   0.25000   0.00000  Uiso   1.00
N440   N     0.50000   0.71598   0.25000   0.00000  Uiso   1.00
C441   C     0.42081   0.83331   0.25005   0.00000  Uiso   1.00
C442   C     0.57923   0.83335   0.25010   0.00000  Uiso   1.00
O443   O     0.50000   0.87293   0.18573   0.00000  Uiso   1.00
O444   O     0.50000   0.79374   0.31427   0.00000  Uiso   1.00
O445   O     0.50000   0.87293   0.31427   0.00000  Uiso   1.00
O446   O     0.50000   0.79374   0.18573   0.00000  Uiso   1.00
C447   C     0.49854   0.83385   0.16487   0.00000  Uiso   1.00
C448   C     0.49838   0.83283   0.33511   0.00000  Uiso   1.00
Cu449  Cu    0.50000   0.88022   0.25000   0.00000  Uiso   1.00
Cu450  Cu    0.50000   0.78645   0.25000   0.00000  Uiso   1.00
H451   H     0.44778   0.71064   0.20807   0.00000  Uiso   1.00
H452   H     0.55166   0.95588   0.29280   0.00000  Uiso   1.00
H453   H     0.55168   0.70958   0.29276   0.00000  Uiso   1.00
H454   H     0.44787   0.95710   0.20789   0.00000  Uiso   1.00
C455   C     0.47107   0.69177   0.22664   0.00000  Uiso   1.00
C456   C     0.52872   0.97485   0.27372   0.00000  Uiso   1.00
C457   C     0.52874   0.69115   0.27369   0.00000  Uiso   1.00
C458   C     0.47106   0.97551   0.22663   0.00000  Uiso   1.00
C459   C     0.35504   0.81471   0.28669   0.00000  Uiso   1.00
C460   C     0.64515   0.85157   0.21344   0.00000  Uiso   1.00
C461   C     0.64520   0.81505   0.28681   0.00000  Uiso   1.00
C462   C     0.35497   0.85193   0.21354   0.00000  Uiso   1.00
C463   C     0.51202   0.87276   0.04612   0.00000  Uiso   1.00
C464   C     0.51004   0.79271   0.45371   0.00000  Uiso   1.00
C465   C     0.48376   0.87195   0.45222   0.00000  Uiso   1.00
C466   C     0.48248   0.79493   0.04788   0.00000  Uiso   1.00
H467   H     0.52354   0.90284   0.02767   0.00000  Uiso   1.00
H468   H     0.52038   0.76201   0.47204   0.00000  Uiso   1.00
H469   H     0.47246   0.90227   0.46953   0.00000  Uiso   1.00
H470   H     0.46980   0.76516   0.03069   0.00000  Uiso   1.00
C471   C     0.51008   0.87481   0.09176   0.00000  Uiso   1.00
C472   C     0.50801   0.79104   0.40805   0.00000  Uiso   1.00
C473   C     0.48161   0.87157   0.40644   0.00000  Uiso   1.00
C474   C     0.48036   0.79576   0.09364   0.00000  Uiso   1.00
C475   C     0.49580   0.83518   0.11637   0.00000  Uiso   1.00
C476   C     0.49542   0.83150   0.38357   0.00000  Uiso   1.00
C477   C     0.49836   0.83314   0.02408   0.00000  Uiso   1.00
C478   C     0.49814   0.83289   0.47589   0.00000  Uiso   1.00
C479   C     0.62388   0.83336   0.25014   0.00000  Uiso   1.00
C480   C     0.37625   0.83328   0.25009   0.00000  Uiso   1.00
N481   N     0.52108   0.91822   0.11189   0.00000  Uiso   1.00
O482   O     0.55576   0.93852   0.10116   0.00000  Uiso   1.00
O483   O     0.49200   0.94355   0.12901   0.00000  Uiso   1.00
N484   N     0.51747   0.74736   0.38768   0.00000  Uiso   1.00
O485   O     0.48761   0.72335   0.37012   0.00000  Uiso   1.00
O486   O     0.55182   0.72595   0.39763   0.00000  Uiso   1.00
N487   N     0.46296   0.91097   0.38414   0.00000  Uiso   1.00
O488   O     0.43257   0.90436   0.35680   0.00000  Uiso   1.00
O489   O     0.47089   0.95332   0.39705   0.00000  Uiso   1.00
N490   N     0.45950   0.75797   0.11608   0.00000  Uiso   1.00
O491   O     0.42881   0.76705   0.14222   0.00000  Uiso   1.00
O492   O     0.46558   0.71493   0.10409   0.00000  Uiso   1.00
Br493  Br    0.38508   0.79062   0.33715   0.00000  Uiso   1.00
Br494  Br    0.61528   0.87383   0.16237   0.00000  Uiso   1.00
Br495  Br    0.61536   0.79240   0.33776   0.00000  Uiso   1.00
Br496  Br    0.38486   0.87632   0.16315   0.00000  Uiso   1.00
O497   O     0.77321   0.87291   0.25000   0.00000  Uiso   1.00
O498   O     0.89345   0.79375   0.25001   0.00000  Uiso   1.00
O499   O     0.89345   0.87291   0.25001   0.00000  Uiso   1.00
O500   O     0.77321   0.79375   0.25000   0.00000  Uiso   1.00
N501   N     0.83333   0.95069   0.25000   0.00000  Uiso   1.00
N502   N     0.83333   0.71598   0.25000   0.00000  Uiso   1.00
C503   C     0.75414   0.83331   0.25005   0.00000  Uiso   1.00
C504   C     0.91257   0.83335   0.25010   0.00000  Uiso   1.00
O505   O     0.83333   0.87293   0.18573   0.00000  Uiso   1.00
O506   O     0.83334   0.79374   0.31427   0.00000  Uiso   1.00
O507   O     0.83334   0.87293   0.31427   0.00000  Uiso   1.00
O508   O     0.83333   0.79374   0.18573   0.00000  Uiso   1.00
C509   C     0.83187   0.83385   0.16487   0.00000  Uiso   1.00
C510   C     0.83171   0.83283   0.33511   0.00000  Uiso   1.00
Cu511  Cu    0.83333   0.88022   0.25000   0.00000  Uiso   1.00
Cu512  Cu    0.83333   0.78645   0.25000   0.00000  Uiso   1.00
H513   H     0.78111   0.71064   0.20807   0.00000  Uiso   1.00
H514   H     0.88499   0.95588   0.29280   0.00000  Uiso   1.00
H515   H     0.88502   0.70958   0.29276   0.00000  Uiso   1.00
H516   H     0.78121   0.95710   0.20789   0.00000  Uiso   1.00
C517   C     0.80440   0.69177   0.22664   0.00000  Uiso   1.00
C518   C     0.86205   0.97485   0.27372   0.00000  Uiso   1.00
C519   C     0.86207   0.69115   0.27369   0.00000  Uiso   1.00
C520   C     0.80440   0.97551   0.22663   0.00000  Uiso   1.00
C521   C     0.68838   0.81471   0.28669   0.00000  Uiso   1.00
C522   C     0.97848   0.85157   0.21344   0.00000  Uiso   1.00
C523   C     0.97854   0.81505   0.28681   0.00000  Uiso   1.00
C524   C     0.68830   0.85193   0.21354   0.00000  Uiso   1.00
C525   C     0.84535   0.87276   0.04612   0.00000  Uiso   1.00
C526   C     0.84338   0.79271   0.45371   0.00000  Uiso   1.00
C527   C     0.81710   0.87195   0.45222   0.00000  Uiso   1.00
C528   C     0.81581   0.79493   0.04788   0.00000  Uiso   1.00
H529   H     0.85687   0.90284   0.02767   0.00000  Uiso   1.00
H530   H     0.85371   0.76201   0.47204   0.00000  Uiso   1.00
H531   H     0.80579   0.90227   0.46953   0.00000  Uiso   1.00
H532   H     0.80313   0.76516   0.03069   0.00000  Uiso   1.00
C533   C     0.84341   0.87481   0.09176   0.00000  Uiso   1.00
C534   C     0.84135   0.79104   0.40805   0.00000  Uiso   1.00
C535   C     0.81495   0.87157   0.40644   0.00000  Uiso   1.00
C536   C     0.81369   0.79576   0.09364   0.00000  Uiso   1.00
C537   C     0.82914   0.83518   0.11637   0.00000  Uiso   1.00
C538   C     0.82875   0.83150   0.38357   0.00000  Uiso   1.00
C539   C     0.83170   0.83314   0.02408   0.00000  Uiso   1.00
C540   C     0.83147   0.83289   0.47589   0.00000  Uiso   1.00
C541   C     0.95721   0.83336   0.25014   0.00000  Uiso   1.00
C542   C     0.70959   0.83328   0.25009   0.00000  Uiso   1.00
N543   N     0.85441   0.91822   0.11189   0.00000  Uiso   1.00
O544   O     0.88910   0.93852   0.10116   0.00000  Uiso   1.00
O545   O     0.82534   0.94355   0.12901   0.00000  Uiso   1.00
N546   N     0.85080   0.74736   0.38768   0.00000  Uiso   1.00
O547   O     0.82095   0.72335   0.37012   0.00000  Uiso   1.00
O548   O     0.88516   0.72595   0.39763   0.00000  Uiso   1.00
N549   N     0.79630   0.91097   0.38414   0.00000  Uiso   1.00
O550   O     0.76590   0.90436   0.35680   0.00000  Uiso   1.00
O551   O     0.80422   0.95332   0.39705   0.00000  Uiso   1.00
N552   N     0.79284   0.75797   0.11608   0.00000  Uiso   1.00
O553   O     0.76214   0.76705   0.14222   0.00000  Uiso   1.00
O554   O     0.79892   0.71493   0.10409   0.00000  Uiso   1.00
Br555  Br    0.71841   0.79062   0.33715   0.00000  Uiso   1.00
Br556  Br    0.94861   0.87383   0.16237   0.00000  Uiso   1.00
Br557  Br    0.94870   0.79240   0.33776   0.00000  Uiso   1.00
Br558  Br    0.71819   0.87632   0.16315   0.00000  Uiso   1.00
O559   O     0.10655   0.20625   0.75000   0.00000  Uiso   1.00
O560   O     0.22679   0.12709   0.75001   0.00000  Uiso   1.00
O561   O     0.22679   0.20625   0.75001   0.00000  Uiso   1.00
O562   O     0.10655   0.12709   0.75000   0.00000  Uiso   1.00
N563   N     0.16667   0.28402   0.75000   0.00000  Uiso   1.00
N564   N     0.16667   0.04931   0.75000   0.00000  Uiso   1.00
C565   C     0.08747   0.16664   0.75005   0.00000  Uiso   1.00
C566   C     0.24590   0.16668   0.75010   0.00000  Uiso   1.00
O567   O     0.16666   0.20626   0.68573   0.00000  Uiso   1.00
O568   O     0.16667   0.12707   0.81427   0.00000  Uiso   1.00
O569   O     0.16667   0.20626   0.81427   0.00000  Uiso   1.00
O570   O     0.16666   0.12707   0.68573   0.00000  Uiso   1.00
C571   C     0.16520   0.16719   0.66487   0.00000  Uiso   1.00
C572   C     0.16505   0.16616   0.83511   0.00000  Uiso   1.00
Cu573  Cu    0.16667   0.21355   0.75000   0.00000  Uiso   1.00
Cu574  Cu    0.16667   0.11978   0.75000   0.00000  Uiso   1.00
H575   H     0.11445   0.04397   0.70807   0.00000  Uiso   1.00
H576   H     0.21832   0.28921   0.79280   0.00000  Uiso   1.00
H577   H     0.21835   0.04291   0.79276   0.00000  Uiso   1.00
H578   H     0.11454   0.29043   0.70789   0.00000  Uiso   1.00
C579   C     0.13773   0.02511   0.72664   0.00000  Uiso   1.00
C580   C     0.19539   0.30818   0.77372   0.00000  Uiso   1.00
C581   C     0.19541   0.02448   0.77369   0.00000  Uiso   1.00
C582   C     0.13773   0.30885   0.72663   0.00000  Uiso   1.00
C583   C     0.02171   0.14804   0.78669   0.00000  Uiso   1.00
C584   C     0.31182   0.18491   0.71344   0.00000  Uiso   1.00
C585   C     0.31187   0.14838   0.78681   0.00000  Uiso   1.00
C586   C     0.02164   0.18526   0.71354   0.00000  Uiso   1.00
C587   C     0.17868   0.20610   0.54612   0.00000  Uiso   1.00
C588   C     0.17671   0.12604   0.95371   0.00000  Uiso   1.00
C589   C     0.15043   0.20529   0.95222   0.00000  Uiso   1.00
C590   C     0.14914   0.12826   0.54788   0.00000  Uiso   1.00
H591   H     0.19020   0.23617   0.52767   0.00000  Uiso   1.00
H592   H     0.18705   0.09534   0.97204   0.00000  Uiso   1.00
H593   H     0.13913   0.23560   0.96953   0.00000  Uiso   1.00
H594   H     0.13647   0.09849   0.53069   0.00000  Uiso   1.00
C595   C     0.17674   0.20814   0.59176   0.00000  Uiso   1.00
C596   C     0.17468   0.12438   0.90805   0.00000  Uiso   1.00
C597   C     0.14828   0.20490   0.90644   0.00000  Uiso   1.00
C598   C     0.14703   0.12909   0.59364   0.00000  Uiso   1.00
C599   C     0.16247   0.16851   0.61637   0.00000  Uiso   1.00
C600   C     0.16209   0.16484   0.88357   0.00000  Uiso   1.00
C601   C     0.16503   0.16647   0.52408   0.00000  Uiso   1.00
C602   C     0.16480   0.16622   0.97589   0.00000  Uiso   1.00
C603   C     0.29054   0.16670   0.75014   0.00000  Uiso   1.00
C604   C     0.04292   0.16661   0.75009   0.00000  Uiso   1.00
N605   N     0.18775   0.25155   0.61189   0.00000  Uiso   1.00
O606   O     0.22243   0.27186   0.60116   0.00000  Uiso   1.00
O607   O     0.15867   0.27688   0.62901   0.00000  Uiso   1.00
N608   N     0.18414   0.08069   0.88768   0.00000  Uiso   1.00
O609   O     0.15428   0.05669   0.87012   0.00000  Uiso   1.00
O610   O     0.21849   0.05929   0.89763   0.00000  Uiso   1.00
N611   N     0.12963   0.24430   0.88414   0.00000  Uiso   1.00
O612   O     0.09923   0.23769   0.85680   0.00000  Uiso   1.00
O613   O     0.13755   0.28665   0.89705   0.00000  Uiso   1.00
N614   N     0.12617   0.09130   0.61608   0.00000  Uiso   1.00
O615   O     0.09547   0.10038   0.64222   0.00000  Uiso   1.00
O616   O     0.13225   0.04826   0.60409   0.00000  Uiso   1.00
Br617  Br    0.05174   0.12395   0.83715   0.00000  Uiso   1.00
Br618  Br    0.28194   0.20716   0.66237   0.00000  Uiso   1.00
Br619  Br    0.28203   0.12573   0.83776   0.00000  Uiso   1.00
Br620  Br    0.05153   0.20965   0.66315   0.00000  Uiso   1.00
O621   O     0.43988   0.20625   0.75000   0.00000  Uiso   1.00
O622   O     0.56012   0.12709   0.75001   0.00000  Uiso   1.00
O623   O     0.56012   0.20625   0.75001   0.00000  Uiso   1.00
O624   O     0.43988   0.12709   0.75000   0.00000  Uiso   1.00
N625   N     0.50000   0.28402   0.75000   0.00000  Uiso   1.00
N626   N     0.50000   0.04931   0.75000   0.00000  Uiso   1.00
C627   C     0.42081   0.16664   0.75005   0.00000  Uiso   1.00
C628   C     0.57923   0.16668   0.75010   0.00000  Uiso   1.00
O629   O     0.50000   0.20626   0.68573   0.00000  Uiso   1.00
O630   O     0.50000   0.12707   0.81427   0.00000  Uiso   1.00
O631   O     0.50000   0.20626   0.81427   0.00000  Uiso   1.00
O632   O     0.50000   0.12707   0.68573   0.00000  Uiso   1.00
C633   C     0.49854   0.16719   0.66487   0.00000  Uiso   1.00
C634   C     0.49838   0.16616   0.83511   0.00000  Uiso   1.00
Cu635  Cu    0.50000   0.21355   0.75000   0.00000  Uiso   1.00
Cu636  Cu    0.50000   0.11978   0.75000   0.00000  Uiso   1.00
H637   H     0.44778   0.04397   0.70807   0.00000  Uiso   1.00
H638   H     0.55166   0.28921   0.79280   0.00000  Uiso   1.00
H639   H     0.55168   0.04291   0.79276   0.00000  Uiso   1.00
H640   H     0.44787   0.29043   0.70789   0.00000  Uiso   1.00
C641   C     0.47107   0.02511   0.72664   0.00000  Uiso   1.00
C642   C     0.52872   0.30818   0.77372   0.00000  Uiso   1.00
C643   C     0.52874   0.02448   0.77369   0.00000  Uiso   1.00
C644   C     0.47106   0.30885   0.72663   0.00000  Uiso   1.00
C645   C     0.35504   0.14804   0.78669   0.00000  Uiso   1.00
C646   C     0.64515   0.18491   0.71344   0.00000  Uiso   1.00
C647   C     0.64520   0.14838   0.78681   0.00000  Uiso   1.00
C648   C     0.35497   0.18526   0.71354   0.00000  Uiso   1.00
C649   C     0.51202   0.20610   0.54612   0.00000  Uiso   1.00
C650   C     0.51004   0.12604   0.95371   0.00000  Uiso   1.00
C651   C     0.48376   0.20529   0.95222   0.00000  Uiso   1.00
C652   C     0.48248   0.12826   0.54788   0.00000  Uiso   1.00
H653   H     0.52354   0.23617   0.52767   0.00000  Uiso   1.00
H654   H     0.52038   0.09534   0.97204   0.00000  Uiso   1.00
H655   H     0.47246   0.23560   0.96953   0.00000  Uiso   1.00
H656   H     0.46980   0.09849   0.53069   0.00000  Uiso   1.00
C657   C     0.51008   0.20814   0.59176   0.00000  Uiso   1.00
C658   C     0.50801   0.12438   0.90805   0.00000  Uiso   1.00
C659   C     0.48161   0.20490   0.90644   0.00000  Uiso   1.00
C660   C     0.48036   0.12909   0.59364   0.00000  Uiso   1.00
C661   C     0.49580   0.16851   0.61637   0.00000  Uiso   1.00
C662   C     0.49542   0.16484   0.88357   0.00000  Uiso   1.00
C663   C     0.49836   0.16647   0.52408   0.00000  Uiso   1.00
C664   C     0.49814   0.16622   0.97589   0.00000  Uiso   1.00
C665   C     0.62388   0.16670   0.75014   0.00000  Uiso   1.00
C666   C     0.37625   0.16661   0.75009   0.00000  Uiso   1.00
N667   N     0.52108   0.25155   0.61189   0.00000  Uiso   1.00
O668   O     0.55576   0.27186   0.60116   0.00000  Uiso   1.00
O669   O     0.49200   0.27688   0.62901   0.00000  Uiso   1.00
N670   N     0.51747   0.08069   0.88768   0.00000  Uiso   1.00
O671   O     0.48761   0.05669   0.87012   0.00000  Uiso   1.00
O672   O     0.55182   0.05929   0.89763   0.00000  Uiso   1.00
N673   N     0.46296   0.24430   0.88414   0.00000  Uiso   1.00
O674   O     0.43257   0.23769   0.85680   0.00000  Uiso   1.00
O675   O     0.47089   0.28665   0.89705   0.00000  Uiso   1.00
N676   N     0.45950   0.09130   0.61608   0.00000  Uiso   1.00
O677   O     0.42881   0.10038   0.64222   0.00000  Uiso   1.00
O678   O     0.46558   0.04826   0.60409   0.00000  Uiso   1.00
Br679  Br    0.38508   0.12395   0.83715   0.00000  Uiso   1.00
Br680  Br    0.61528   0.20716   0.66237   0.00000  Uiso   1.00
Br681  Br    0.61536   0.12573   0.83776   0.00000  Uiso   1.00
Br682  Br    0.38486   0.20965   0.66315   0.00000  Uiso   1.00
O683   O     0.77321   0.20625   0.75000   0.00000  Uiso   1.00
O684   O     0.89345   0.12709   0.75001   0.00000  Uiso   1.00
O685   O     0.89345   0.20625   0.75001   0.00000  Uiso   1.00
O686   O     0.77321   0.12709   0.75000   0.00000  Uiso   1.00
N687   N     0.83333   0.28402   0.75000   0.00000  Uiso   1.00
N688   N     0.83333   0.04931   0.75000   0.00000  Uiso   1.00
C689   C     0.75414   0.16664   0.75005   0.00000  Uiso   1.00
C690   C     0.91257   0.16668   0.75010   0.00000  Uiso   1.00
O691   O     0.83333   0.20626   0.68573   0.00000  Uiso   1.00
O692   O     0.83334   0.12707   0.81427   0.00000  Uiso   1.00
O693   O     0.83334   0.20626   0.81427   0.00000  Uiso   1.00
O694   O     0.83333   0.12707   0.68573   0.00000  Uiso   1.00
C695   C     0.83187   0.16719   0.66487   0.00000  Uiso   1.00
C696   C     0.83171   0.16616   0.83511   0.00000  Uiso   1.00
Cu697  Cu    0.83333   0.21355   0.75000   0.00000  Uiso   1.00
Cu698  Cu    0.83333   0.11978   0.75000   0.00000  Uiso   1.00
H699   H     0.78111   0.04397   0.70807   0.00000  Uiso   1.00
H700   H     0.88499   0.28921   0.79280   0.00000  Uiso   1.00
H701   H     0.88502   0.04291   0.79276   0.00000  Uiso   1.00
H702   H     0.78121   0.29043   0.70789   0.00000  Uiso   1.00
C703   C     0.80440   0.02511   0.72664   0.00000  Uiso   1.00
C704   C     0.86205   0.30818   0.77372   0.00000  Uiso   1.00
C705   C     0.86207   0.02448   0.77369   0.00000  Uiso   1.00
C706   C     0.80440   0.30885   0.72663   0.00000  Uiso   1.00
C707   C     0.68838   0.14804   0.78669   0.00000  Uiso   1.00
C708   C     0.97848   0.18491   0.71344   0.00000  Uiso   1.00
C709   C     0.97854   0.14838   0.78681   0.00000  Uiso   1.00
C710   C     0.68830   0.18526   0.71354   0.00000  Uiso   1.00
C711   C     0.84535   0.20610   0.54612   0.00000  Uiso   1.00
C712   C     0.84338   0.12604   0.95371   0.00000  Uiso   1.00
C713   C     0.81710   0.20529   0.95222   0.00000  Uiso   1.00
C714   C     0.81581   0.12826   0.54788   0.00000  Uiso   1.00
H715   H     0.85687   0.23617   0.52767   0.00000  Uiso   1.00
H716   H     0.85371   0.09534   0.97204   0.00000  Uiso   1.00
H717   H     0.80579   0.23560   0.96953   0.00000  Uiso   1.00
H718   H     0.80313   0.09849   0.53069   0.00000  Uiso   1.00
C719   C     0.84341   0.20814   0.59176   0.00000  Uiso   1.00
C720   C     0.84135   0.12438   0.90805   0.00000  Uiso   1.00
C721   C     0.81495   0.20490   0.90644   0.00000  Uiso   1.00
C722   C     0.81369   0.12909   0.59364   0.00000  Uiso   1.00
C723   C     0.82914   0.16851   0.61637   0.00000  Uiso   1.00
C724   C     0.82875   0.16484   0.88357   0.00000  Uiso   1.00
C725   C     0.83170   0.16647   0.52408   0.00000  Uiso   1.00
C726   C     0.83147   0.16622   0.97589   0.00000  Uiso   1.00
C727   C     0.95721   0.16670   0.75014   0.00000  Uiso   1.00
C728   C     0.70959   0.16661   0.75009   0.00000  Uiso   1.00
N729   N     0.85441   0.25155   0.61189   0.00000  Uiso   1.00
O730   O     0.88910   0.27186   0.60116   0.00000  Uiso   1.00
O731   O     0.82534   0.27688   0.62901   0.00000  Uiso   1.00
N732   N     0.85080   0.08069   0.88768   0.00000  Uiso   1.00
O733   O     0.82095   0.05669   0.87012   0.00000  Uiso   1.00
O734   O     0.88516   0.05929   0.89763   0.00000  Uiso   1.00
N735   N     0.79630   0.24430   0.88414   0.00000  Uiso   1.00
O736   O     0.76590   0.23769   0.85680   0.00000  Uiso   1.00
O737   O     0.80422   0.28665   0.89705   0.00000  Uiso   1.00
N738   N     0.79284   0.09130   0.61608   0.00000  Uiso   1.00
O739   O     0.76214   0.10038   0.64222   0.00000  Uiso   1.00
O740   O     0.79892   0.04826   0.60409   0.00000  Uiso   1.00
Br741  Br    0.71841   0.12395   0.83715   0.00000  Uiso   1.00
Br742  Br    0.94861   0.20716   0.66237   0.00000  Uiso   1.00
Br743  Br    0.94870   0.12573   0.83776   0.00000  Uiso   1.00
Br744  Br    0.71819   0.20965   0.66315   0.00000  Uiso   1.00
O745   O     0.10655   0.53958   0.75000   0.00000  Uiso   1.00
O746   O     0.22679   0.46042   0.75001   0.00000  Uiso   1.00
O747   O     0.22679   0.53958   0.75001   0.00000  Uiso   1.00
O748   O     0.10655   0.46042   0.75000   0.00000  Uiso   1.00
N749   N     0.16667   0.61736   0.75000   0.00000  Uiso   1.00
N750   N     0.16667   0.38264   0.75000   0.00000  Uiso   1.00
C751   C     0.08747   0.49998   0.75005   0.00000  Uiso   1.00
C752   C     0.24590   0.50002   0.75010   0.00000  Uiso   1.00
O753   O     0.16666   0.53959   0.68573   0.00000  Uiso   1.00
O754   O     0.16667   0.46041   0.81427   0.00000  Uiso   1.00
O755   O     0.16667   0.53959   0.81427   0.00000  Uiso   1.00
O756   O     0.16666   0.46041   0.68573   0.00000  Uiso   1.00
C757   C     0.16520   0.50052   0.66487   0.00000  Uiso   1.00
C758   C     0.16505   0.49950   0.83511   0.00000  Uiso   1.00
Cu759  Cu    0.16667   0.54689   0.75000   0.00000  Uiso   1.00
Cu760  Cu    0.16667   0.45311   0.75000   0.00000  Uiso   1.00
H761   H     0.11445   0.37730   0.70807   0.00000  Uiso   1.00
H762   H     0.21832   0.62255   0.79280   0.00000  Uiso   1.00
H763   H     0.21835   0.37624   0.79276   0.00000  Uiso   1.00
H764   H     0.11454   0.62377   0.70789   0.00000  Uiso   1.00
C765   C     0.13773   0.35844   0.72664   0.00000  Uiso   1.00
C766   C     0.19539   0.64152   0.77372   0.00000  Uiso   1.00
C767   C     0.19541   0.35781   0.77369   0.00000  Uiso   1.00
C768   C     0.13773   0.64218   0.72663   0.00000  Uiso   1.00
C769   C     0.02171   0.48138   0.78669   0.00000  Uiso   1.00
C770   C     0.31182   0.51824   0.71344   0.00000  Uiso   1.00
C771   C     0.31187   0.48172   0.78681   0.00000  Uiso   1.00
C772   C     0.02164   0.51859   0.71354   0.00000  Uiso   1.00
C773   C     0.17868   0.53943   0.54612   0.00000  Uiso   1.00
C774   C     0.17671   0.45937   0.95371   0.00000  Uiso   1.00
C775   C     0.15043   0.53862   0.95222   0.00000  Uiso   1.00
C776   C     0.14914   0.46160   0.54788   0.00000  Uiso   1.00
H777   H     0.19020   0.56951   0.52767   0.00000  Uiso   1.00
H778   H     0.18705   0.42867   0.97204   0.00000  Uiso   1.00
H779   H     0.13913   0.56894   0.96953   0.00000  Uiso   1.00
H780   H     0.13647   0.43182   0.53069   0.00000  Uiso   1.00
C781   C     0.17674   0.54148   0.59176   0.00000  Uiso   1.00
C782   C     0.17468   0.45771   0.90805   0.00000  Uiso   1.00
C783   C     0.14828   0.53823   0.90644   0.00000  Uiso   1.00
C784   C     0.14703   0.46243   0.59364   0.00000  Uiso   1.00
C785   C     0.16247   0.50184   0.61637   0.00000  Uiso   1.00
C786   C     0.16209   0.49817   0.88357   0.00000  Uiso   1.00
C787   C     0.16503   0.49980   0.52408   0.00000  Uiso   1.00
C788   C     0.16480   0.49955   0.97589   0.00000  Uiso   1.00
C789   C     0.29054   0.50003   0.75014   0.00000  Uiso   1.00
C790   C     0.04292   0.49995   0.75009   0.00000  Uiso   1.00
N791   N     0.18775   0.58488   0.61189   0.00000  Uiso   1.00
O792   O     0.22243   0.60519   0.60116   0.00000  Uiso   1.00
O793   O     0.15867   0.61021   0.62901   0.00000  Uiso   1.00
N794   N     0.18414   0.41402   0.88768   0.00000  Uiso   1.00
O795   O     0.15428   0.39002   0.87012   0.00000  Uiso   1.00
O796   O     0.21849   0.39262   0.89763   0.00000  Uiso   1.00
N797   N     0.12963   0.57763   0.88414   0.00000  Uiso   1.00
O798   O     0.09923   0.57102   0.85680   0.00000  Uiso   1.00
O799   O     0.13755   0.61999   0.89705   0.00000  Uiso   1.00
N800   N     0.12617   0.42463   0.61608   0.00000  Uiso   1.00
O801   O     0.09547   0.43372   0.64222   0.00000  Uiso   1.00
O802   O     0.13225   0.38159   0.60409   0.00000  Uiso   1.00
Br803  Br    0.05174   0.45729   0.83715   0.00000  Uiso   1.00
Br804  Br    0.28194   0.54049   0.66237   0.00000  Uiso   1.00
Br805  Br    0.28203   0.45907   0.83776   0.00000  Uiso   1.00
Br806  Br    0.05153   0.54299   0.66315   0.00000  Uiso   1.00
O807   O     0.43988   0.53958   0.75000   0.00000  Uiso   1.00
O808   O     0.56012   0.46042   0.75001   0.00000  Uiso   1.00
O809   O     0.56012   0.53958   0.75001   0.00000  Uiso   1.00
O810   O     0.43988   0.46042   0.75000   0.00000  Uiso   1.00
N811   N     0.50000   0.61736   0.75000   0.00000  Uiso   1.00
N812   N     0.50000   0.38264   0.75000   0.00000  Uiso   1.00
C813   C     0.42081   0.49998   0.75005   0.00000  Uiso   1.00
C814   C     0.57923   0.50002   0.75010   0.00000  Uiso   1.00
O815   O     0.50000   0.53959   0.68573   0.00000  Uiso   1.00
O816   O     0.50000   0.46041   0.81427   0.00000  Uiso   1.00
O817   O     0.50000   0.53959   0.81427   0.00000  Uiso   1.00
O818   O     0.50000   0.46041   0.68573   0.00000  Uiso   1.00
C819   C     0.49854   0.50052   0.66487   0.00000  Uiso   1.00
C820   C     0.49838   0.49950   0.83511   0.00000  Uiso   1.00
Cu821  Cu    0.50000   0.54689   0.75000   0.00000  Uiso   1.00
Cu822  Cu    0.50000   0.45311   0.75000   0.00000  Uiso   1.00
H823   H     0.44778   0.37730   0.70807   0.00000  Uiso   1.00
H824   H     0.55166   0.62255   0.79280   0.00000  Uiso   1.00
H825   H     0.55168   0.37624   0.79276   0.00000  Uiso   1.00
H826   H     0.44787   0.62377   0.70789   0.00000  Uiso   1.00
C827   C     0.47107   0.35844   0.72664   0.00000  Uiso   1.00
C828   C     0.52872   0.64152   0.77372   0.00000  Uiso   1.00
C829   C     0.52874   0.35781   0.77369   0.00000  Uiso   1.00
C830   C     0.47106   0.64218   0.72663   0.00000  Uiso   1.00
C831   C     0.35504   0.48138   0.78669   0.00000  Uiso   1.00
C832   C     0.64515   0.51824   0.71344   0.00000  Uiso   1.00
C833   C     0.64520   0.48172   0.78681   0.00000  Uiso   1.00
C834   C     0.35497   0.51859   0.71354   0.00000  Uiso   1.00
C835   C     0.51202   0.53943   0.54612   0.00000  Uiso   1.00
C836   C     0.51004   0.45937   0.95371   0.00000  Uiso   1.00
C837   C     0.48376   0.53862   0.95222   0.00000  Uiso   1.00
C838   C     0.48248   0.46160   0.54788   0.00000  Uiso   1.00
H839   H     0.52354   0.56951   0.52767   0.00000  Uiso   1.00
H840   H     0.52038   0.42867   0.97204   0.00000  Uiso   1.00
H841   H     0.47246   0.56894   0.96953   0.00000  Uiso   1.00
H842   H     0.46980   0.43182   0.53069   0.00000  Uiso   1.00
C843   C     0.51008   0.54148   0.59176   0.00000  Uiso   1.00
C844   C     0.50801   0.45771   0.90805   0.00000  Uiso   1.00
C845   C     0.48161   0.53823   0.90644   0.00000  Uiso   1.00
C846   C     0.48036   0.46243   0.59364   0.00000  Uiso   1.00
C847   C     0.49580   0.50184   0.61637   0.00000  Uiso   1.00
C848   C     0.49542   0.49817   0.88357   0.00000  Uiso   1.00
C849   C     0.49836   0.49980   0.52408   0.00000  Uiso   1.00
C850   C     0.49814   0.49955   0.97589   0.00000  Uiso   1.00
C851   C     0.62388   0.50003   0.75014   0.00000  Uiso   1.00
C852   C     0.37625   0.49995   0.75009   0.00000  Uiso   1.00
N853   N     0.52108   0.58488   0.61189   0.00000  Uiso   1.00
O854   O     0.55576   0.60519   0.60116   0.00000  Uiso   1.00
O855   O     0.49200   0.61021   0.62901   0.00000  Uiso   1.00
N856   N     0.51747   0.41402   0.88768   0.00000  Uiso   1.00
O857   O     0.48761   0.39002   0.87012   0.00000  Uiso   1.00
O858   O     0.55182   0.39262   0.89763   0.00000  Uiso   1.00
N859   N     0.46296   0.57763   0.88414   0.00000  Uiso   1.00
O860   O     0.43257   0.57102   0.85680   0.00000  Uiso   1.00
O861   O     0.47089   0.61999   0.89705   0.00000  Uiso   1.00
N862   N     0.45950   0.42463   0.61608   0.00000  Uiso   1.00
O863   O     0.42881   0.43372   0.64222   0.00000  Uiso   1.00
O864   O     0.46558   0.38159   0.60409   0.00000  Uiso   1.00
Br865  Br    0.38508   0.45729   0.83715   0.00000  Uiso   1.00
Br866  Br    0.61528   0.54049   0.66237   0.00000  Uiso   1.00
Br867  Br    0.61536   0.45907   0.83776   0.00000  Uiso   1.00
Br868  Br    0.38486   0.54299   0.66315   0.00000  Uiso   1.00
O869   O     0.77321   0.53958   0.75000   0.00000  Uiso   1.00
O870   O     0.89345   0.46042   0.75001   0.00000  Uiso   1.00
O871   O     0.89345   0.53958   0.75001   0.00000  Uiso   1.00
O872   O     0.77321   0.46042   0.75000   0.00000  Uiso   1.00
N873   N     0.83333   0.61736   0.75000   0.00000  Uiso   1.00
N874   N     0.83333   0.38264   0.75000   0.00000  Uiso   1.00
C875   C     0.75414   0.49998   0.75005   0.00000  Uiso   1.00
C876   C     0.91257   0.50002   0.75010   0.00000  Uiso   1.00
O877   O     0.83333   0.53959   0.68573   0.00000  Uiso   1.00
O878   O     0.83334   0.46041   0.81427   0.00000  Uiso   1.00
O879   O     0.83334   0.53959   0.81427   0.00000  Uiso   1.00
O880   O     0.83333   0.46041   0.68573   0.00000  Uiso   1.00
C881   C     0.83187   0.50052   0.66487   0.00000  Uiso   1.00
C882   C     0.83171   0.49950   0.83511   0.00000  Uiso   1.00
Cu883  Cu    0.83333   0.54689   0.75000   0.00000  Uiso   1.00
Cu884  Cu    0.83333   0.45311   0.75000   0.00000  Uiso   1.00
H885   H     0.78111   0.37730   0.70807   0.00000  Uiso   1.00
H886   H     0.88499   0.62255   0.79280   0.00000  Uiso   1.00
H887   H     0.88502   0.37624   0.79276   0.00000  Uiso   1.00
H888   H     0.78121   0.62377   0.70789   0.00000  Uiso   1.00
C889   C     0.80440   0.35844   0.72664   0.00000  Uiso   1.00
C890   C     0.86205   0.64152   0.77372   0.00000  Uiso   1.00
C891   C     0.86207   0.35781   0.77369   0.00000  Uiso   1.00
C892   C     0.80440   0.64218   0.72663   0.00000  Uiso   1.00
C893   C     0.68838   0.48138   0.78669   0.00000  Uiso   1.00
C894   C     0.97848   0.51824   0.71344   0.00000  Uiso   1.00
C895   C     0.97854   0.48172   0.78681   0.00000  Uiso   1.00
C896   C     0.68830   0.51859   0.71354   0.00000  Uiso   1.00
C897   C     0.84535   0.53943   0.54612   0.00000  Uiso   1.00
C898   C     0.84338   0.45937   0.95371   0.00000  Uiso   1.00
C899   C     0.81710   0.53862   0.95222   0.00000  Uiso   1.00
C900   C     0.81581   0.46160   0.54788   0.00000  Uiso   1.00
H901   H     0.85687   0.56951   0.52767   0.00000  Uiso   1.00
H902   H     0.85371   0.42867   0.97204   0.00000  Uiso   1.00
H903   H     0.80579   0.56894   0.96953   0.00000  Uiso   1.00
H904   H     0.80313   0.43182   0.53069   0.00000  Uiso   1.00
C905   C     0.84341   0.54148   0.59176   0.00000  Uiso   1.00
C906   C     0.84135   0.45771   0.90805   0.00000  Uiso   1.00
C907   C     0.81495   0.53823   0.90644   0.00000  Uiso   1.00
C908   C     0.81369   0.46243   0.59364   0.00000  Uiso   1.00
C909   C     0.82914   0.50184   0.61637   0.00000  Uiso   1.00
C910   C     0.82875   0.49817   0.88357   0.00000  Uiso   1.00
C911   C     0.83170   0.49980   0.52408   0.00000  Uiso   1.00
C912   C     0.83147   0.49955   0.97589   0.00000  Uiso   1.00
C913   C     0.95721   0.50003   0.75014   0.00000  Uiso   1.00
C914   C     0.70959   0.49995   0.75009   0.00000  Uiso   1.00
N915   N     0.85441   0.58488   0.61189   0.00000  Uiso   1.00
O916   O     0.88910   0.60519   0.60116   0.00000  Uiso   1.00
O917   O     0.82534   0.61021   0.62901   0.00000  Uiso   1.00
N918   N     0.85080   0.41402   0.88768   0.00000  Uiso   1.00
O919   O     0.82095   0.39002   0.87012   0.00000  Uiso   1.00
O920   O     0.88516   0.39262   0.89763   0.00000  Uiso   1.00
N921   N     0.79630   0.57763   0.88414   0.00000  Uiso   1.00
O922   O     0.76590   0.57102   0.85680   0.00000  Uiso   1.00
O923   O     0.80422   0.61999   0.89705   0.00000  Uiso   1.00
N924   N     0.79284   0.42463   0.61608   0.00000  Uiso   1.00
O925   O     0.76214   0.43372   0.64222   0.00000  Uiso   1.00
O926   O     0.79892   0.38159   0.60409   0.00000  Uiso   1.00
Br927  Br    0.71841   0.45729   0.83715   0.00000  Uiso   1.00
Br928  Br    0.94861   0.54049   0.66237   0.00000  Uiso   1.00
Br929  Br    0.94870   0.45907   0.83776   0.00000  Uiso   1.00
Br930  Br    0.71819   0.54299   0.66315   0.00000  Uiso   1.00
O931   O     0.10655   0.87291   0.75000   0.00000  Uiso   1.00
O932   O     0.22679   0.79375   0.75001   0.00000  Uiso   1.00
O933   O     0.22679   0.87291   0.75001   0.00000  Uiso   1.00
O934   O     0.10655   0.79375   0.75000   0.00000  Uiso   1.00
N935   N     0.16667   0.95069   0.75000   0.00000  Uiso   1.00
N936   N     0.16667   0.71598   0.75000   0.00000  Uiso   1.00
C937   C     0.08747   0.83331   0.75005   0.00000  Uiso   1.00
C938   C     0.24590   0.83335   0.75010   0.00000  Uiso   1.00
O939   O     0.16666   0.87293   0.68573   0.00000  Uiso   1.00
O940   O     0.16667   0.79374   0.81427   0.00000  Uiso   1.00
O941   O     0.16667   0.87293   0.81427   0.00000  Uiso   1.00
O942   O     0.16666   0.79374   0.68573   0.00000  Uiso   1.00
C943   C     0.16520   0.83385   0.66487   0.00000  Uiso   1.00
C944   C     0.16505   0.83283   0.83511   0.00000  Uiso   1.00
Cu945  Cu    0.16667   0.88022   0.75000   0.00000  Uiso   1.00
Cu946  Cu    0.16667   0.78645   0.75000   0.00000  Uiso   1.00
H947   H     0.11445   0.71064   0.70807   0.00000  Uiso   1.00
H948   H     0.21832   0.95588   0.79280   0.00000  Uiso   1.00
H949   H     0.21835   0.70958   0.79276   0.00000  Uiso   1.00
H950   H     0.11454   0.95710   0.70789   0.00000  Uiso   1.00
C951   C     0.13773   0.69177   0.72664   0.00000  Uiso   1.00
C952   C     0.19539   0.97485   0.77372   0.00000  Uiso   1.00
C953   C     0.19541   0.69115   0.77369   0.00000  Uiso   1.00
C954   C     0.13773   0.97551   0.72663   0.00000  Uiso   1.00
C955   C     0.02171   0.81471   0.78669   0.00000  Uiso   1.00
C956   C     0.31182   0.85157   0.71344   0.00000  Uiso   1.00
C957   C     0.31187   0.81505   0.78681   0.00000  Uiso   1.00
C958   C     0.02164   0.85193   0.71354   0.00000  Uiso   1.00
C959   C     0.17868   0.87276   0.54612   0.00000  Uiso   1.00
C960   C     0.17671   0.79271   0.95371   0.00000  Uiso   1.00
C961   C     0.15043   0.87195   0.95222   0.00000  Uiso   1.00
C962   C     0.14914   0.79493   0.54788   0.00000  Uiso   1.00
H963   H     0.19020   0.90284   0.52767   0.00000  Uiso   1.00
H964   H     0.18705   0.76201   0.97204   0.00000  Uiso   1.00
H965   H     0.13913   0.90227   0.96953   0.00000  Uiso   1.00
H966   H     0.13647   0.76516   0.53069   0.00000  Uiso   1.00
C967   C     0.17674   0.87481   0.59176   0.00000  Uiso   1.00
C968   C     0.17468   0.79104   0.90805   0.00000  Uiso   1.00
C969   C     0.14828   0.87157   0.90644   0.00000  Uiso   1.00
C970   C     0.14703   0.79576   0.59364   0.00000  Uiso   1.00
C971   C     0.16247   0.83518   0.61637   0.00000  Uiso   1.00
C972   C     0.16209   0.83150   0.88357   0.00000  Uiso   1.00
C973   C     0.16503   0.83314   0.52408   0.00000  Uiso   1.00
C974   C     0.16480   0.83289   0.97589   0.00000  Uiso   1.00
C975   C     0.29054   0.83336   0.75014   0.00000  Uiso   1.00
C976   C     0.04292   0.83328   0.75009   0.00000  Uiso   1.00
N977   N     0.18775   0.91822   0.61189   0.00000  Uiso   1.00
O978   O     0.22243   0.93852   0.60116   0.00000  Uiso   1.00
O979   O     0.15867   0.94355   0.62901   0.00000  Uiso   1.00
N980   N     0.18414   0.74736   0.88768   0.00000  Uiso   1.00
O981   O     0.15428   0.72335   0.87012   0.00000  Uiso   1.00
O982   O     0.21849   0.72595   0.89763   0.00000  Uiso   1.00
N983   N     0.12963   0.91097   0.88414   0.00000  Uiso   1.00
O984   O     0.09923   0.90436   0.85680   0.00000  Uiso   1.00
O985   O     0.13755   0.95332   0.89705   0.00000  Uiso   1.00
N986   N     0.12617   0.75797   0.61608   0.00000  Uiso   1.00
O987   O     0.09547   0.76705   0.64222   0.00000  Uiso   1.00
O988   O     0.13225   0.71493   0.60409   0.00000  Uiso   1.00
Br989  Br    0.05174   0.79062   0.83715   0.00000  Uiso   1.00
Br990  Br    0.28194   0.87383   0.66237   0.00000  Uiso   1.00
Br991  Br    0.28203   0.79240   0.83776   0.00000  Uiso   1.00
Br992  Br    0.05153   0.87632   0.66315   0.00000  Uiso   1.00
O993   O     0.43988   0.87291   0.75000   0.00000  Uiso   1.00
O994   O     0.56012   0.79375   0.75001   0.00000  Uiso   1.00
O995   O     0.56012   0.87291   0.75001   0.00000  Uiso   1.00
O996   O     0.43988   0.79375   0.75000   0.00000  Uiso   1.00
N997   N     0.50000   0.95069   0.75000   0.00000  Uiso   1.00
N998   N     0.50000   0.71598   0.75000   0.00000  Uiso   1.00
C999   C     0.42081   0.83331   0.75005   0.00000  Uiso   1.00
C1000  C     0.57923   0.83335   0.75010   0.00000  Uiso   1.00
O1001  O     0.50000   0.87293   0.68573   0.00000  Uiso   1.00
O1002  O     0.50000   0.79374   0.81427   0.00000  Uiso   1.00
O1003  O     0.50000   0.87293   0.81427   0.00000  Uiso   1.00
O1004  O     0.50000   0.79374   0.68573   0.00000  Uiso   1.00
C1005  C     0.49854   0.83385   0.66487   0.00000  Uiso   1.00
C1006  C     0.49838   0.83283   0.83511   0.00000  Uiso   1.00
Cu1007 Cu    0.50000   0.88022   0.75000   0.00000  Uiso   1.00
Cu1008 Cu    0.50000   0.78645   0.75000   0.00000  Uiso   1.00
H1009  H     0.44778   0.71064   0.70807   0.00000  Uiso   1.00
H1010  H     0.55166   0.95588   0.79280   0.00000  Uiso   1.00
H1011  H     0.55168   0.70958   0.79276   0.00000  Uiso   1.00
H1012  H     0.44787   0.95710   0.70789   0.00000  Uiso   1.00
C1013  C     0.47107   0.69177   0.72664   0.00000  Uiso   1.00
C1014  C     0.52872   0.97485   0.77372   0.00000  Uiso   1.00
C1015  C     0.52874   0.69115   0.77369   0.00000  Uiso   1.00
C1016  C     0.47106   0.97551   0.72663   0.00000  Uiso   1.00
C1017  C     0.35504   0.81471   0.78669   0.00000  Uiso   1.00
C1018  C     0.64515   0.85157   0.71344   0.00000  Uiso   1.00
C1019  C     0.64520   0.81505   0.78681   0.00000  Uiso   1.00
C1020  C     0.35497   0.85193   0.71354   0.00000  Uiso   1.00
C1021  C     0.51202   0.87276   0.54612   0.00000  Uiso   1.00
C1022  C     0.51004   0.79271   0.95371   0.00000  Uiso   1.00
C1023  C     0.48376   0.87195   0.95222   0.00000  Uiso   1.00
C1024  C     0.48248   0.79493   0.54788   0.00000  Uiso   1.00
H1025  H     0.52354   0.90284   0.52767   0.00000  Uiso   1.00
H1026  H     0.52038   0.76201   0.97204   0.00000  Uiso   1.00
H1027  H     0.47246   0.90227   0.96953   0.00000  Uiso   1.00
H1028  H     0.46980   0.76516   0.53069   0.00000  Uiso   1.00
C1029  C     0.51008   0.87481   0.59176   0.00000  Uiso   1.00
C1030  C     0.50801   0.79104   0.90805   0.00000  Uiso   1.00
C1031  C     0.48161   0.87157   0.90644   0.00000  Uiso   1.00
C1032  C     0.48036   0.79576   0.59364   0.00000  Uiso   1.00
C1033  C     0.49580   0.83518   0.61637   0.00000  Uiso   1.00
C1034  C     0.49542   0.83150   0.88357   0.00000  Uiso   1.00
C1035  C     0.49836   0.83314   0.52408   0.00000  Uiso   1.00
C1036  C     0.49814   0.83289   0.97589   0.00000  Uiso   1.00
C1037  C     0.62388   0.83336   0.75014   0.00000  Uiso   1.00
C1038  C     0.37625   0.83328   0.75009   0.00000  Uiso   1.00
N1039  N     0.52108   0.91822   0.61189   0.00000  Uiso   1.00
O1040  O     0.55576   0.93852   0.60116   0.00000  Uiso   1.00
O1041  O     0.49200   0.94355   0.62901   0.00000  Uiso   1.00
N1042  N     0.51747   0.74736   0.88768   0.00000  Uiso   1.00
O1043  O     0.48761   0.72335   0.87012   0.00000  Uiso   1.00
O1044  O     0.55182   0.72595   0.89763   0.00000  Uiso   1.00
N1045  N     0.46296   0.91097   0.88414   0.00000  Uiso   1.00
O1046  O     0.43257   0.90436   0.85680   0.00000  Uiso   1.00
O1047  O     0.47089   0.95332   0.89705   0.00000  Uiso   1.00
N1048  N     0.45950   0.75797   0.61608   0.00000  Uiso   1.00
O1049  O     0.42881   0.76705   0.64222   0.00000  Uiso   1.00
O1050  O     0.46558   0.71493   0.60409   0.00000  Uiso   1.00
Br1051 Br    0.38508   0.79062   0.83715   0.00000  Uiso   1.00
Br1052 Br    0.61528   0.87383   0.66237   0.00000  Uiso   1.00
Br1053 Br    0.61536   0.79240   0.83776   0.00000  Uiso   1.00
Br1054 Br    0.38486   0.87632   0.66315   0.00000  Uiso   1.00
O1055  O     0.77321   0.87291   0.75000   0.00000  Uiso   1.00
O1056  O     0.89345   0.79375   0.75001   0.00000  Uiso   1.00
O1057  O     0.89345   0.87291   0.75001   0.00000  Uiso   1.00
O1058  O     0.77321   0.79375   0.75000   0.00000  Uiso   1.00
N1059  N     0.83333   0.95069   0.75000   0.00000  Uiso   1.00
N1060  N     0.83333   0.71598   0.75000   0.00000  Uiso   1.00
C1061  C     0.75414   0.83331   0.75005   0.00000  Uiso   1.00
C1062  C     0.91257   0.83335   0.75010   0.00000  Uiso   1.00
O1063  O     0.83333   0.87293   0.68573   0.00000  Uiso   1.00
O1064  O     0.83334   0.79374   0.81427   0.00000  Uiso   1.00
O1065  O     0.83334   0.87293   0.81427   0.00000  Uiso   1.00
O1066  O     0.83333   0.79374   0.68573   0.00000  Uiso   1.00
C1067  C     0.83187   0.83385   0.66487   0.00000  Uiso   1.00
C1068  C     0.83171   0.83283   0.83511   0.00000  Uiso   1.00
Cu1069 Cu    0.83333   0.88022   0.75000   0.00000  Uiso   1.00
Cu1070 Cu    0.83333   0.78645   0.75000   0.00000  Uiso   1.00
H1071  H     0.78111   0.71064   0.70807   0.00000  Uiso   1.00
H1072  H     0.88499   0.95588   0.79280   0.00000  Uiso   1.00
H1073  H     0.88502   0.70958   0.79276   0.00000  Uiso   1.00
H1074  H     0.78121   0.95710   0.70789   0.00000  Uiso   1.00
C1075  C     0.80440   0.69177   0.72664   0.00000  Uiso   1.00
C1076  C     0.86205   0.97485   0.77372   0.00000  Uiso   1.00
C1077  C     0.86207   0.69115   0.77369   0.00000  Uiso   1.00
C1078  C     0.80440   0.97551   0.72663   0.00000  Uiso   1.00
C1079  C     0.68838   0.81471   0.78669   0.00000  Uiso   1.00
C1080  C     0.97848   0.85157   0.71344   0.00000  Uiso   1.00
C1081  C     0.97854   0.81505   0.78681   0.00000  Uiso   1.00
C1082  C     0.68830   0.85193   0.71354   0.00000  Uiso   1.00
C1083  C     0.84535   0.87276   0.54612   0.00000  Uiso   1.00
C1084  C     0.84338   0.79271   0.95371   0.00000  Uiso   1.00
C1085  C     0.81710   0.87195   0.95222   0.00000  Uiso   1.00
C1086  C     0.81581   0.79493   0.54788   0.00000  Uiso   1.00
H1087  H     0.85687   0.90284   0.52767   0.00000  Uiso   1.00
H1088  H     0.85371   0.76201   0.97204   0.00000  Uiso   1.00
H1089  H     0.80579   0.90227   0.96953   0.00000  Uiso   1.00
H1090  H     0.80313   0.76516   0.53069   0.00000  Uiso   1.00
C1091  C     0.84341   0.87481   0.59176   0.00000  Uiso   1.00
C1092  C     0.84135   0.79104   0.90805   0.00000  Uiso   1.00
C1093  C     0.81495   0.87157   0.90644   0.00000  Uiso   1.00
C1094  C     0.81369   0.79576   0.59364   0.00000  Uiso   1.00
C1095  C     0.82914   0.83518   0.61637   0.00000  Uiso   1.00
C1096  C     0.82875   0.83150   0.88357   0.00000  Uiso   1.00
C1097  C     0.83170   0.83314   0.52408   0.00000  Uiso   1.00
C1098  C     0.83147   0.83289   0.97589   0.00000  Uiso   1.00
C1099  C     0.95721   0.83336   0.75014   0.00000  Uiso   1.00
C1100  C     0.70959   0.83328   0.75009   0.00000  Uiso   1.00
N1101  N     0.85441   0.91822   0.61189   0.00000  Uiso   1.00
O1102  O     0.88910   0.93852   0.60116   0.00000  Uiso   1.00
O1103  O     0.82534   0.94355   0.62901   0.00000  Uiso   1.00
N1104  N     0.85080   0.74736   0.88768   0.00000  Uiso   1.00
O1105  O     0.82095   0.72335   0.87012   0.00000  Uiso   1.00
O1106  O     0.88516   0.72595   0.89763   0.00000  Uiso   1.00
N1107  N     0.79630   0.91097   0.88414   0.00000  Uiso   1.00
O1108  O     0.76590   0.90436   0.85680   0.00000  Uiso   1.00
O1109  O     0.80422   0.95332   0.89705   0.00000  Uiso   1.00
N1110  N     0.79284   0.75797   0.61608   0.00000  Uiso   1.00
O1111  O     0.76214   0.76705   0.64222   0.00000  Uiso   1.00
O1112  O     0.79892   0.71493   0.60409   0.00000  Uiso   1.00
Br1113 Br    0.71841   0.79062   0.83715   0.00000  Uiso   1.00
Br1114 Br    0.94861   0.87383   0.66237   0.00000  Uiso   1.00
Br1115 Br    0.94870   0.79240   0.83776   0.00000  Uiso   1.00
Br1116 Br    0.71819   0.87632   0.66315   0.00000  Uiso   1.00
loop_
_geom_bond_atom_site_label_1
_geom_bond_atom_site_label_2
_geom_bond_distance
_geom_bond_site_symmetry_2
_ccdc_geom_bond_type
O1     Cu15    1.954   .     S
O1     C7      1.286   .     A
O2     Cu16    1.954   .     S
O2     C8      1.287   .     A
O3     Cu15    1.955   .     S
O3     C8      1.287   .     A
O4     Cu16    1.955   .     S
O4     C7      1.287   .     A
N5     C24     1.366   .     A
N5     Cu15    2.010   .     S
N5     C22     1.367   .     A
N6     C23     1.367   .     A
N6     Cu16    2.010   .     S
N6     C21     1.367   .     A
C7     C46     1.440   .     S
C8     C45     1.443   .     S
O9     Cu15    1.969   .     S
O9     C13     1.292   .     A
O10    Cu16    1.969   .     S
O10    C14     1.292   .     A
O11    C14     1.300   .     A
O11    Cu15    1.963   .     S
O12    C13     1.301   .     A
O12    Cu16    1.963   .     S
C13    C41     1.478   .     S
C14    C42     1.477   .     S
Cu15   Cu16    2.675   .     S
H17    C21     1.080   .     S
H18    C22     1.082   .     S
H19    C23     1.082   .     S
H20    C24     1.081   .     S
C21    C396    1.415   1_545 S
C22    C209    1.416   .     S
C23    C394    1.416   1_545 S
C24    C207    1.415   .     S
C25    Br59    1.933   .     S
C25    C46     1.405   .     A
C25    C151    1.396   1_455 S
C26    C45     1.404   .     A
C26    Br60    1.927   .     S
C26    C90     1.395   .     S
C27    C45     1.405   .     A
C27    Br61    1.929   .     S
C27    C87     1.396   .     S
C28    C46     1.404   .     A
C28    Br62    1.933   .     S
C28    C150    1.395   1_455 S
C29    H33     1.084   .     S
C29    C37     1.392   .     A
C29    C43     1.394   .     A
C30    C44     1.394   .     A
C30    H34     1.084   .     S
C30    C38     1.392   .     A
C31    H35     1.084   .     S
C31    C44     1.397   .     A
C31    C39     1.394   .     A
C32    H36     1.084   .     S
C32    C43     1.397   .     A
C32    C40     1.394   .     A
C37    C41     1.423   .     A
C37    N47     1.434   .     S
C38    N50     1.434   .     S
C38    C42     1.423   .     A
C39    N53     1.437   .     S
C39    C42     1.420   .     A
C40    C41     1.419   .     A
C40    N56     1.435   .     S
C43    C602    1.466   1_554 S
C44    C601    1.466   .     S
N47    O48     1.301   .     A
N47    O49     1.301   .     A
N50    O52     1.301   .     A
N50    O51     1.301   .     A
N53    O54     1.302   .     A
N53    O55     1.301   .     A
N56    O57     1.301   .     A
N56    O58     1.301   .     A
O63    Cu77    1.954   .     S
O63    C69     1.286   .     A
O64    Cu78    1.954   .     S
O64    C70     1.287   .     A
O65    Cu77    1.955   .     S
O65    C70     1.287   .     A
O66    Cu78    1.955   .     S
O66    C69     1.287   .     A
N67    C86     1.366   .     A
N67    Cu77    2.010   .     S
N67    C84     1.367   .     A
N68    C85     1.367   .     A
N68    Cu78    2.010   .     S
N68    C83     1.367   .     A
C69    C108    1.440   .     S
C70    C107    1.443   .     S
O71    Cu77    1.969   .     S
O71    C75     1.292   .     A
O72    Cu78    1.969   .     S
O72    C76     1.292   .     A
O73    C76     1.300   .     A
O73    Cu77    1.963   .     S
O74    C75     1.301   .     A
O74    Cu78    1.963   .     S
C75    C103    1.478   .     S
C76    C104    1.477   .     S
Cu77   Cu78    2.675   .     S
H79    C83     1.080   .     S
H80    C84     1.082   .     S
H81    C85     1.082   .     S
H82    C86     1.081   .     S
C83    C458    1.415   1_545 S
C84    C271    1.416   .     S
C85    C456    1.416   1_545 S
C86    C269    1.415   .     S
C87    Br121   1.933   .     S
C87    C108    1.405   .     A
C88    C107    1.404   .     A
C88    Br122   1.927   .     S
C88    C152    1.395   .     S
C89    C107    1.405   .     A
C89    Br123   1.929   .     S
C89    C149    1.396   .     S
C90    C108    1.404   .     A
C90    Br124   1.933   .     S
C91    H95     1.084   .     S
C91    C99     1.392   .     A
C91    C105    1.394   .     A
C92    C106    1.394   .     A
C92    H96     1.084   .     S
C92    C100    1.392   .     A
C93    H97     1.084   .     S
C93    C106    1.397   .     A
C93    C101    1.394   .     A
C94    H98     1.084   .     S
C94    C105    1.397   .     A
C94    C102    1.394   .     A
C99    C103    1.423   .     A
C99    N109    1.434   .     S
C100   N112    1.434   .     S
C100   C104    1.423   .     A
C101   N115    1.437   .     S
C101   C104    1.420   .     A
C102   C103    1.419   .     A
C102   N118    1.435   .     S
C105   C664    1.466   1_554 S
C106   C663    1.466   .     S
N109   O110    1.301   .     A
N109   O111    1.301   .     A
N112   O114    1.301   .     A
N112   O113    1.301   .     A
N115   O116    1.302   .     A
N115   O117    1.301   .     A
N118   O119    1.301   .     A
N118   O120    1.301   .     A
O125   Cu139   1.954   .     S
O125   C131    1.286   .     A
O126   Cu140   1.954   .     S
O126   C132    1.287   .     A
O127   Cu139   1.955   .     S
O127   C132    1.287   .     A
O128   Cu140   1.955   .     S
O128   C131    1.287   .     A
N129   C148    1.366   .     A
N129   Cu139   2.010   .     S
N129   C146    1.367   .     A
N130   C147    1.367   .     A
N130   Cu140   2.010   .     S
N130   C145    1.367   .     A
C131   C170    1.440   .     S
C132   C169    1.443   .     S
O133   Cu139   1.969   .     S
O133   C137    1.292   .     A
O134   Cu140   1.969   .     S
O134   C138    1.292   .     A
O135   C138    1.300   .     A
O135   Cu139   1.963   .     S
O136   C137    1.301   .     A
O136   Cu140   1.963   .     S
C137   C165    1.478   .     S
C138   C166    1.477   .     S
Cu139  Cu140   2.675   .     S
H141   C145    1.080   .     S
H142   C146    1.082   .     S
H143   C147    1.082   .     S
H144   C148    1.081   .     S
C145   C520    1.415   1_545 S
C146   C333    1.416   .     S
C147   C518    1.416   1_545 S
C148   C331    1.415   .     S
C149   Br183   1.933   .     S
C149   C170    1.405   .     A
C150   C169    1.404   .     A
C150   Br184   1.927   .     S
C150   C28     1.395   1_655 S
C151   C169    1.405   .     A
C151   Br185   1.929   .     S
C151   C25     1.396   1_655 S
C152   C170    1.404   .     A
C152   Br186   1.933   .     S
C153   H157    1.084   .     S
C153   C161    1.392   .     A
C153   C167    1.394   .     A
C154   C168    1.394   .     A
C154   H158    1.084   .     S
C154   C162    1.392   .     A
C155   H159    1.084   .     S
C155   C168    1.397   .     A
C155   C163    1.394   .     A
C156   H160    1.084   .     S
C156   C167    1.397   .     A
C156   C164    1.394   .     A
C161   C165    1.423   .     A
C161   N171    1.434   .     S
C162   N174    1.434   .     S
C162   C166    1.423   .     A
C163   N177    1.437   .     S
C163   C166    1.420   .     A
C164   C165    1.419   .     A
C164   N180    1.435   .     S
C167   C726    1.466   1_554 S
C168   C725    1.466   .     S
N171   O172    1.301   .     A
N171   O173    1.301   .     A
N174   O176    1.301   .     A
N174   O175    1.301   .     A
N177   O178    1.302   .     A
N177   O179    1.301   .     A
N180   O181    1.301   .     A
N180   O182    1.301   .     A
O187   Cu201   1.954   .     S
O187   C193    1.286   .     A
O188   Cu202   1.954   .     S
O188   C194    1.287   .     A
O189   Cu201   1.955   .     S
O189   C194    1.287   .     A
O190   Cu202   1.955   .     S
O190   C193    1.287   .     A
N191   C210    1.366   .     A
N191   Cu201   2.010   .     S
N191   C208    1.367   .     A
N192   C209    1.367   .     A
N192   Cu202   2.010   .     S
N192   C207    1.367   .     A
C193   C232    1.440   .     S
C194   C231    1.443   .     S
O195   Cu201   1.969   .     S
O195   C199    1.292   .     A
O196   Cu202   1.969   .     S
O196   C200    1.292   .     A
O197   C200    1.300   .     A
O197   Cu201   1.963   .     S
O198   C199    1.301   .     A
O198   Cu202   1.963   .     S
C199   C227    1.478   .     S
C200   C228    1.477   .     S
Cu201  Cu202   2.675   .     S
H203   C207    1.080   .     S
H204   C208    1.082   .     S
H205   C209    1.082   .     S
H206   C210    1.081   .     S
C208   C395    1.416   .     S
C210   C393    1.415   .     S
C211   Br245   1.933   .     S
C211   C232    1.405   .     A
C211   C337    1.396   1_455 S
C212   C231    1.404   .     A
C212   Br246   1.927   .     S
C212   C276    1.395   .     S
C213   C231    1.405   .     A
C213   Br247   1.929   .     S
C213   C273    1.396   .     S
C214   C232    1.404   .     A
C214   Br248   1.933   .     S
C214   C336    1.395   1_455 S
C215   H219    1.084   .     S
C215   C223    1.392   .     A
C215   C229    1.394   .     A
C216   C230    1.394   .     A
C216   H220    1.084   .     S
C216   C224    1.392   .     A
C217   H221    1.084   .     S
C217   C230    1.397   .     A
C217   C225    1.394   .     A
C218   H222    1.084   .     S
C218   C229    1.397   .     A
C218   C226    1.394   .     A
C223   C227    1.423   .     A
C223   N233    1.434   .     S
C224   N236    1.434   .     S
C224   C228    1.423   .     A
C225   N239    1.437   .     S
C225   C228    1.420   .     A
C226   C227    1.419   .     A
C226   N242    1.435   .     S
C229   C788    1.466   1_554 S
C230   C787    1.466   .     S
N233   O234    1.301   .     A
N233   O235    1.301   .     A
N236   O238    1.301   .     A
N236   O237    1.301   .     A
N239   O240    1.302   .     A
N239   O241    1.301   .     A
N242   O243    1.301   .     A
N242   O244    1.301   .     A
O249   Cu263   1.954   .     S
O249   C255    1.286   .     A
O250   Cu264   1.954   .     S
O250   C256    1.287   .     A
O251   Cu263   1.955   .     S
O251   C256    1.287   .     A
O252   Cu264   1.955   .     S
O252   C255    1.287   .     A
N253   C272    1.366   .     A
N253   Cu263   2.010   .     S
N253   C270    1.367   .     A
N254   C271    1.367   .     A
N254   Cu264   2.010   .     S
N254   C269    1.367   .     A
C255   C294    1.440   .     S
C256   C293    1.443   .     S
O257   Cu263   1.969   .     S
O257   C261    1.292   .     A
O258   Cu264   1.969   .     S
O258   C262    1.292   .     A
O259   C262    1.300   .     A
O259   Cu263   1.963   .     S
O260   C261    1.301   .     A
O260   Cu264   1.963   .     S
C261   C289    1.478   .     S
C262   C290    1.477   .     S
Cu263  Cu264   2.675   .     S
H265   C269    1.080   .     S
H266   C270    1.082   .     S
H267   C271    1.082   .     S
H268   C272    1.081   .     S
C270   C457    1.416   .     S
C272   C455    1.415   .     S
C273   Br307   1.933   .     S
C273   C294    1.405   .     A
C274   C293    1.404   .     A
C274   Br308   1.927   .     S
C274   C338    1.395   .     S
C275   C293    1.405   .     A
C275   Br309   1.929   .     S
C275   C335    1.396   .     S
C276   C294    1.404   .     A
C276   Br310   1.933   .     S
C277   H281    1.084   .     S
C277   C285    1.392   .     A
C277   C291    1.394   .     A
C278   C292    1.394   .     A
C278   H282    1.084   .     S
C278   C286    1.392   .     A
C279   H283    1.084   .     S
C279   C292    1.397   .     A
C279   C287    1.394   .     A
C280   H284    1.084   .     S
C280   C291    1.397   .     A
C280   C288    1.394   .     A
C285   C289    1.423   .     A
C285   N295    1.434   .     S
C286   N298    1.434   .     S
C286   C290    1.423   .     A
C287   N301    1.437   .     S
C287   C290    1.420   .     A
C288   C289    1.419   .     A
C288   N304    1.435   .     S
C291   C850    1.466   1_554 S
C292   C849    1.466   .     S
N295   O296    1.301   .     A
N295   O297    1.301   .     A
N298   O300    1.301   .     A
N298   O299    1.301   .     A
N301   O302    1.302   .     A
N301   O303    1.301   .     A
N304   O305    1.301   .     A
N304   O306    1.301   .     A
O311   Cu325   1.954   .     S
O311   C317    1.286   .     A
O312   Cu326   1.954   .     S
O312   C318    1.287   .     A
O313   Cu325   1.955   .     S
O313   C318    1.287   .     A
O314   Cu326   1.955   .     S
O314   C317    1.287   .     A
N315   C334    1.366   .     A
N315   Cu325   2.010   .     S
N315   C332    1.367   .     A
N316   C333    1.367   .     A
N316   Cu326   2.010   .     S
N316   C331    1.367   .     A
C317   C356    1.440   .     S
C318   C355    1.443   .     S
O319   Cu325   1.969   .     S
O319   C323    1.292   .     A
O320   Cu326   1.969   .     S
O320   C324    1.292   .     A
O321   C324    1.300   .     A
O321   Cu325   1.963   .     S
O322   C323    1.301   .     A
O322   Cu326   1.963   .     S
C323   C351    1.478   .     S
C324   C352    1.477   .     S
Cu325  Cu326   2.675   .     S
H327   C331    1.080   .     S
H328   C332    1.082   .     S
H329   C333    1.082   .     S
H330   C334    1.081   .     S
C332   C519    1.416   .     S
C334   C517    1.415   .     S
C335   Br369   1.933   .     S
C335   C356    1.405   .     A
C336   C355    1.404   .     A
C336   Br370   1.927   .     S
C336   C214    1.395   1_655 S
C337   C355    1.405   .     A
C337   Br371   1.929   .     S
C337   C211    1.396   1_655 S
C338   C356    1.404   .     A
C338   Br372   1.933   .     S
C339   H343    1.084   .     S
C339   C347    1.392   .     A
C339   C353    1.394   .     A
C340   C354    1.394   .     A
C340   H344    1.084   .     S
C340   C348    1.392   .     A
C341   H345    1.084   .     S
C341   C354    1.397   .     A
C341   C349    1.394   .     A
C342   H346    1.084   .     S
C342   C353    1.397   .     A
C342   C350    1.394   .     A
C347   C351    1.423   .     A
C347   N357    1.434   .     S
C348   N360    1.434   .     S
C348   C352    1.423   .     A
C349   N363    1.437   .     S
C349   C352    1.420   .     A
C350   C351    1.419   .     A
C350   N366    1.435   .     S
C353   C912    1.466   1_554 S
C354   C911    1.466   .     S
N357   O358    1.301   .     A
N357   O359    1.301   .     A
N360   O362    1.301   .     A
N360   O361    1.301   .     A
N363   O364    1.302   .     A
N363   O365    1.301   .     A
N366   O367    1.301   .     A
N366   O368    1.301   .     A
O373   Cu387   1.954   .     S
O373   C379    1.286   .     A
O374   Cu388   1.954   .     S
O374   C380    1.287   .     A
O375   Cu387   1.955   .     S
O375   C380    1.287   .     A
O376   Cu388   1.955   .     S
O376   C379    1.287   .     A
N377   C396    1.366   .     A
N377   Cu387   2.010   .     S
N377   C394    1.367   .     A
N378   C395    1.367   .     A
N378   Cu388   2.010   .     S
N378   C393    1.367   .     A
C379   C418    1.440   .     S
C380   C417    1.443   .     S
O381   Cu387   1.969   .     S
O381   C385    1.292   .     A
O382   Cu388   1.969   .     S
O382   C386    1.292   .     A
O383   C386    1.300   .     A
O383   Cu387   1.963   .     S
O384   C385    1.301   .     A
O384   Cu388   1.963   .     S
C385   C413    1.478   .     S
C386   C414    1.477   .     S
Cu387  Cu388   2.675   .     S
H389   C393    1.080   .     S
H390   C394    1.082   .     S
H391   C395    1.082   .     S
H392   C396    1.081   .     S
C394   C23     1.416   1_565 S
C396   C21     1.415   1_565 S
C397   Br431   1.933   .     S
C397   C418    1.405   .     A
C397   C523    1.396   1_455 S
C398   C417    1.404   .     A
C398   Br432   1.927   .     S
C398   C462    1.395   .     S
C399   C417    1.405   .     A
C399   Br433   1.929   .     S
C399   C459    1.396   .     S
C400   C418    1.404   .     A
C400   Br434   1.933   .     S
C400   C522    1.395   1_455 S
C401   H405    1.084   .     S
C401   C409    1.392   .     A
C401   C415    1.394   .     A
C402   C416    1.394   .     A
C402   H406    1.084   .     S
C402   C410    1.392   .     A
C403   H407    1.084   .     S
C403   C416    1.397   .     A
C403   C411    1.394   .     A
C404   H408    1.084   .     S
C404   C415    1.397   .     A
C404   C412    1.394   .     A
C409   C413    1.423   .     A
C409   N419    1.434   .     S
C410   N422    1.434   .     S
C410   C414    1.423   .     A
C411   N425    1.437   .     S
C411   C414    1.420   .     A
C412   C413    1.419   .     A
C412   N428    1.435   .     S
C415   C974    1.466   1_554 S
C416   C973    1.466   .     S
N419   O420    1.301   .     A
N419   O421    1.301   .     A
N422   O424    1.301   .     A
N422   O423    1.301   .     A
N425   O426    1.302   .     A
N425   O427    1.301   .     A
N428   O429    1.301   .     A
N428   O430    1.301   .     A
O435   Cu449   1.954   .     S
O435   C441    1.286   .     A
O436   Cu450   1.954   .     S
O436   C442    1.287   .     A
O437   Cu449   1.955   .     S
O437   C442    1.287   .     A
O438   Cu450   1.955   .     S
O438   C441    1.287   .     A
N439   C458    1.366   .     A
N439   Cu449   2.010   .     S
N439   C456    1.367   .     A
N440   C457    1.367   .     A
N440   Cu450   2.010   .     S
N440   C455    1.367   .     A
C441   C480    1.440   .     S
C442   C479    1.443   .     S
O443   Cu449   1.969   .     S
O443   C447    1.292   .     A
O444   Cu450   1.969   .     S
O444   C448    1.292   .     A
O445   C448    1.300   .     A
O445   Cu449   1.963   .     S
O446   C447    1.301   .     A
O446   Cu450   1.963   .     S
C447   C475    1.478   .     S
C448   C476    1.477   .     S
Cu449  Cu450   2.675   .     S
H451   C455    1.080   .     S
H452   C456    1.082   .     S
H453   C457    1.082   .     S
H454   C458    1.081   .     S
C456   C85     1.416   1_565 S
C458   C83     1.415   1_565 S
C459   Br493   1.933   .     S
C459   C480    1.405   .     A
C460   C479    1.404   .     A
C460   Br494   1.927   .     S
C460   C524    1.395   .     S
C461   C479    1.405   .     A
C461   Br495   1.929   .     S
C461   C521    1.396   .     S
C462   C480    1.404   .     A
C462   Br496   1.933   .     S
C463   H467    1.084   .     S
C463   C471    1.392   .     A
C463   C477    1.394   .     A
C464   C478    1.394   .     A
C464   H468    1.084   .     S
C464   C472    1.392   .     A
C465   H469    1.084   .     S
C465   C478    1.397   .     A
C465   C473    1.394   .     A
C466   H470    1.084   .     S
C466   C477    1.397   .     A
C466   C474    1.394   .     A
C471   C475    1.423   .     A
C471   N481    1.434   .     S
C472   N484    1.434   .     S
C472   C476    1.423   .     A
C473   N487    1.437   .     S
C473   C476    1.420   .     A
C474   C475    1.419   .     A
C474   N490    1.435   .     S
C477   C1036   1.466   1_554 S
C478   C1035   1.466   .     S
N481   O482    1.301   .     A
N481   O483    1.301   .     A
N484   O486    1.301   .     A
N484   O485    1.301   .     A
N487   O488    1.302   .     A
N487   O489    1.301   .     A
N490   O491    1.301   .     A
N490   O492    1.301   .     A
O497   Cu511   1.954   .     S
O497   C503    1.286   .     A
O498   Cu512   1.954   .     S
O498   C504    1.287   .     A
O499   Cu511   1.955   .     S
O499   C504    1.287   .     A
O500   Cu512   1.955   .     S
O500   C503    1.287   .     A
N501   C520    1.366   .     A
N501   Cu511   2.010   .     S
N501   C518    1.367   .     A
N502   C519    1.367   .     A
N502   Cu512   2.010   .     S
N502   C517    1.367   .     A
C503   C542    1.440   .     S
C504   C541    1.443   .     S
O505   Cu511   1.969   .     S
O505   C509    1.292   .     A
O506   Cu512   1.969   .     S
O506   C510    1.292   .     A
O507   C510    1.300   .     A
O507   Cu511   1.963   .     S
O508   C509    1.301   .     A
O508   Cu512   1.963   .     S
C509   C537    1.478   .     S
C510   C538    1.477   .     S
Cu511  Cu512   2.675   .     S
H513   C517    1.080   .     S
H514   C518    1.082   .     S
H515   C519    1.082   .     S
H516   C520    1.081   .     S
C518   C147    1.416   1_565 S
C520   C145    1.415   1_565 S
C521   Br555   1.933   .     S
C521   C542    1.405   .     A
C522   C541    1.404   .     A
C522   Br556   1.927   .     S
C522   C400    1.395   1_655 S
C523   C541    1.405   .     A
C523   Br557   1.929   .     S
C523   C397    1.396   1_655 S
C524   C542    1.404   .     A
C524   Br558   1.933   .     S
C525   H529    1.084   .     S
C525   C533    1.392   .     A
C525   C539    1.394   .     A
C526   C540    1.394   .     A
C526   H530    1.084   .     S
C526   C534    1.392   .     A
C527   H531    1.084   .     S
C527   C540    1.397   .     A
C527   C535    1.394   .     A
C528   H532    1.084   .     S
C528   C539    1.397   .     A
C528   C536    1.394   .     A
C533   C537    1.423   .     A
C533   N543    1.434   .     S
C534   N546    1.434   .     S
C534   C538    1.423   .     A
C535   N549    1.437   .     S
C535   C538    1.420   .     A
C536   C537    1.419   .     A
C536   N552    1.435   .     S
C539   C1098   1.466   1_554 S
C540   C1097   1.466   .     S
N543   O544    1.301   .     A
N543   O545    1.301   .     A
N546   O548    1.301   .     A
N546   O547    1.301   .     A
N549   O550    1.302   .     A
N549   O551    1.301   .     A
N552   O553    1.301   .     A
N552   O554    1.301   .     A
O559   Cu573   1.954   .     S
O559   C565    1.286   .     A
O560   Cu574   1.954   .     S
O560   C566    1.287   .     A
O561   Cu573   1.955   .     S
O561   C566    1.287   .     A
O562   Cu574   1.955   .     S
O562   C565    1.287   .     A
N563   C582    1.366   .     A
N563   Cu573   2.010   .     S
N563   C580    1.367   .     A
N564   C581    1.367   .     A
N564   Cu574   2.010   .     S
N564   C579    1.367   .     A
C565   C604    1.440   .     S
C566   C603    1.443   .     S
O567   Cu573   1.969   .     S
O567   C571    1.292   .     A
O568   Cu574   1.969   .     S
O568   C572    1.292   .     A
O569   C572    1.300   .     A
O569   Cu573   1.963   .     S
O570   C571    1.301   .     A
O570   Cu574   1.963   .     S
C571   C599    1.478   .     S
C572   C600    1.477   .     S
Cu573  Cu574   2.675   .     S
H575   C579    1.080   .     S
H576   C580    1.082   .     S
H577   C581    1.082   .     S
H578   C582    1.081   .     S
C579   C954    1.415   1_545 S
C580   C767    1.416   .     S
C581   C952    1.416   1_545 S
C582   C765    1.415   .     S
C583   Br617   1.933   .     S
C583   C604    1.405   .     A
C583   C709    1.396   1_455 S
C584   C603    1.404   .     A
C584   Br618   1.927   .     S
C584   C648    1.395   .     S
C585   C603    1.405   .     A
C585   Br619   1.929   .     S
C585   C645    1.396   .     S
C586   C604    1.404   .     A
C586   Br620   1.933   .     S
C586   C708    1.395   1_455 S
C587   H591    1.084   .     S
C587   C595    1.392   .     A
C587   C601    1.394   .     A
C588   C602    1.394   .     A
C588   H592    1.084   .     S
C588   C596    1.392   .     A
C589   H593    1.084   .     S
C589   C602    1.397   .     A
C589   C597    1.394   .     A
C590   H594    1.084   .     S
C590   C601    1.397   .     A
C590   C598    1.394   .     A
C595   C599    1.423   .     A
C595   N605    1.434   .     S
C596   N608    1.434   .     S
C596   C600    1.423   .     A
C597   N611    1.437   .     S
C597   C600    1.420   .     A
C598   C599    1.419   .     A
C598   N614    1.435   .     S
C602   C43     1.466   1_556 S
N605   O606    1.301   .     A
N605   O607    1.301   .     A
N608   O610    1.301   .     A
N608   O609    1.301   .     A
N611   O612    1.302   .     A
N611   O613    1.301   .     A
N614   O615    1.301   .     A
N614   O616    1.301   .     A
O621   Cu635   1.954   .     S
O621   C627    1.286   .     A
O622   Cu636   1.954   .     S
O622   C628    1.287   .     A
O623   Cu635   1.955   .     S
O623   C628    1.287   .     A
O624   Cu636   1.955   .     S
O624   C627    1.287   .     A
N625   C644    1.366   .     A
N625   Cu635   2.010   .     S
N625   C642    1.367   .     A
N626   C643    1.367   .     A
N626   Cu636   2.010   .     S
N626   C641    1.367   .     A
C627   C666    1.440   .     S
C628   C665    1.443   .     S
O629   Cu635   1.969   .     S
O629   C633    1.292   .     A
O630   Cu636   1.969   .     S
O630   C634    1.292   .     A
O631   C634    1.300   .     A
O631   Cu635   1.963   .     S
O632   C633    1.301   .     A
O632   Cu636   1.963   .     S
C633   C661    1.478   .     S
C634   C662    1.477   .     S
Cu635  Cu636   2.675   .     S
H637   C641    1.080   .     S
H638   C642    1.082   .     S
H639   C643    1.082   .     S
H640   C644    1.081   .     S
C641   C1016   1.415   1_545 S
C642   C829    1.416   .     S
C643   C1014   1.416   1_545 S
C644   C827    1.415   .     S
C645   Br679   1.933   .     S
C645   C666    1.405   .     A
C646   C665    1.404   .     A
C646   Br680   1.927   .     S
C646   C710    1.395   .     S
C647   C665    1.405   .     A
C647   Br681   1.929   .     S
C647   C707    1.396   .     S
C648   C666    1.404   .     A
C648   Br682   1.933   .     S
C649   H653    1.084   .     S
C649   C657    1.392   .     A
C649   C663    1.394   .     A
C650   C664    1.394   .     A
C650   H654    1.084   .     S
C650   C658    1.392   .     A
C651   H655    1.084   .     S
C651   C664    1.397   .     A
C651   C659    1.394   .     A
C652   H656    1.084   .     S
C652   C663    1.397   .     A
C652   C660    1.394   .     A
C657   C661    1.423   .     A
C657   N667    1.434   .     S
C658   N670    1.434   .     S
C658   C662    1.423   .     A
C659   N673    1.437   .     S
C659   C662    1.420   .     A
C660   C661    1.419   .     A
C660   N676    1.435   .     S
C664   C105    1.466   1_556 S
N667   O668    1.301   .     A
N667   O669    1.301   .     A
N670   O672    1.301   .     A
N670   O671    1.301   .     A
N673   O674    1.302   .     A
N673   O675    1.301   .     A
N676   O677    1.301   .     A
N676   O678    1.301   .     A
O683   Cu697   1.954   .     S
O683   C689    1.286   .     A
O684   Cu698   1.954   .     S
O684   C690    1.287   .     A
O685   Cu697   1.955   .     S
O685   C690    1.287   .     A
O686   Cu698   1.955   .     S
O686   C689    1.287   .     A
N687   C706    1.366   .     A
N687   Cu697   2.010   .     S
N687   C704    1.367   .     A
N688   C705    1.367   .     A
N688   Cu698   2.010   .     S
N688   C703    1.367   .     A
C689   C728    1.440   .     S
C690   C727    1.443   .     S
O691   Cu697   1.969   .     S
O691   C695    1.292   .     A
O692   Cu698   1.969   .     S
O692   C696    1.292   .     A
O693   C696    1.300   .     A
O693   Cu697   1.963   .     S
O694   C695    1.301   .     A
O694   Cu698   1.963   .     S
C695   C723    1.478   .     S
C696   C724    1.477   .     S
Cu697  Cu698   2.675   .     S
H699   C703    1.080   .     S
H700   C704    1.082   .     S
H701   C705    1.082   .     S
H702   C706    1.081   .     S
C703   C1078   1.415   1_545 S
C704   C891    1.416   .     S
C705   C1076   1.416   1_545 S
C706   C889    1.415   .     S
C707   Br741   1.933   .     S
C707   C728    1.405   .     A
C708   C727    1.404   .     A
C708   Br742   1.927   .     S
C708   C586    1.395   1_655 S
C709   C727    1.405   .     A
C709   Br743   1.929   .     S
C709   C583    1.396   1_655 S
C710   C728    1.404   .     A
C710   Br744   1.933   .     S
C711   H715    1.084   .     S
C711   C719    1.392   .     A
C711   C725    1.394   .     A
C712   C726    1.394   .     A
C712   H716    1.084   .     S
C712   C720    1.392   .     A
C713   H717    1.084   .     S
C713   C726    1.397   .     A
C713   C721    1.394   .     A
C714   H718    1.084   .     S
C714   C725    1.397   .     A
C714   C722    1.394   .     A
C719   C723    1.423   .     A
C719   N729    1.434   .     S
C720   N732    1.434   .     S
C720   C724    1.423   .     A
C721   N735    1.437   .     S
C721   C724    1.420   .     A
C722   C723    1.419   .     A
C722   N738    1.435   .     S
C726   C167    1.466   1_556 S
N729   O730    1.301   .     A
N729   O731    1.301   .     A
N732   O734    1.301   .     A
N732   O733    1.301   .     A
N735   O736    1.302   .     A
N735   O737    1.301   .     A
N738   O739    1.301   .     A
N738   O740    1.301   .     A
O745   Cu759   1.954   .     S
O745   C751    1.286   .     A
O746   Cu760   1.954   .     S
O746   C752    1.287   .     A
O747   Cu759   1.955   .     S
O747   C752    1.287   .     A
O748   Cu760   1.955   .     S
O748   C751    1.287   .     A
N749   C768    1.366   .     A
N749   Cu759   2.010   .     S
N749   C766    1.367   .     A
N750   C767    1.367   .     A
N750   Cu760   2.010   .     S
N750   C765    1.367   .     A
C751   C790    1.440   .     S
C752   C789    1.443   .     S
O753   Cu759   1.969   .     S
O753   C757    1.292   .     A
O754   Cu760   1.969   .     S
O754   C758    1.292   .     A
O755   C758    1.300   .     A
O755   Cu759   1.963   .     S
O756   C757    1.301   .     A
O756   Cu760   1.963   .     S
C757   C785    1.478   .     S
C758   C786    1.477   .     S
Cu759  Cu760   2.675   .     S
H761   C765    1.080   .     S
H762   C766    1.082   .     S
H763   C767    1.082   .     S
H764   C768    1.081   .     S
C766   C953    1.416   .     S
C768   C951    1.415   .     S
C769   Br803   1.933   .     S
C769   C790    1.405   .     A
C769   C895    1.396   1_455 S
C770   C789    1.404   .     A
C770   Br804   1.927   .     S
C770   C834    1.395   .     S
C771   C789    1.405   .     A
C771   Br805   1.929   .     S
C771   C831    1.396   .     S
C772   C790    1.404   .     A
C772   Br806   1.933   .     S
C772   C894    1.395   1_455 S
C773   H777    1.084   .     S
C773   C781    1.392   .     A
C773   C787    1.394   .     A
C774   C788    1.394   .     A
C774   H778    1.084   .     S
C774   C782    1.392   .     A
C775   H779    1.084   .     S
C775   C788    1.397   .     A
C775   C783    1.394   .     A
C776   H780    1.084   .     S
C776   C787    1.397   .     A
C776   C784    1.394   .     A
C781   C785    1.423   .     A
C781   N791    1.434   .     S
C782   N794    1.434   .     S
C782   C786    1.423   .     A
C783   N797    1.437   .     S
C783   C786    1.420   .     A
C784   C785    1.419   .     A
C784   N800    1.435   .     S
C788   C229    1.466   1_556 S
N791   O792    1.301   .     A
N791   O793    1.301   .     A
N794   O796    1.301   .     A
N794   O795    1.301   .     A
N797   O798    1.302   .     A
N797   O799    1.301   .     A
N800   O801    1.301   .     A
N800   O802    1.301   .     A
O807   Cu821   1.954   .     S
O807   C813    1.286   .     A
O808   Cu822   1.954   .     S
O808   C814    1.287   .     A
O809   Cu821   1.955   .     S
O809   C814    1.287   .     A
O810   Cu822   1.955   .     S
O810   C813    1.287   .     A
N811   C830    1.366   .     A
N811   Cu821   2.010   .     S
N811   C828    1.367   .     A
N812   C829    1.367   .     A
N812   Cu822   2.010   .     S
N812   C827    1.367   .     A
C813   C852    1.440   .     S
C814   C851    1.443   .     S
O815   Cu821   1.969   .     S
O815   C819    1.292   .     A
O816   Cu822   1.969   .     S
O816   C820    1.292   .     A
O817   C820    1.300   .     A
O817   Cu821   1.963   .     S
O818   C819    1.301   .     A
O818   Cu822   1.963   .     S
C819   C847    1.478   .     S
C820   C848    1.477   .     S
Cu821  Cu822   2.675   .     S
H823   C827    1.080   .     S
H824   C828    1.082   .     S
H825   C829    1.082   .     S
H826   C830    1.081   .     S
C828   C1015   1.416   .     S
C830   C1013   1.415   .     S
C831   Br865   1.933   .     S
C831   C852    1.405   .     A
C832   C851    1.404   .     A
C832   Br866   1.927   .     S
C832   C896    1.395   .     S
C833   C851    1.405   .     A
C833   Br867   1.929   .     S
C833   C893    1.396   .     S
C834   C852    1.404   .     A
C834   Br868   1.933   .     S
C835   H839    1.084   .     S
C835   C843    1.392   .     A
C835   C849    1.394   .     A
C836   C850    1.394   .     A
C836   H840    1.084   .     S
C836   C844    1.392   .     A
C837   H841    1.084   .     S
C837   C850    1.397   .     A
C837   C845    1.394   .     A
C838   H842    1.084   .     S
C838   C849    1.397   .     A
C838   C846    1.394   .     A
C843   C847    1.423   .     A
C843   N853    1.434   .     S
C844   N856    1.434   .     S
C844   C848    1.423   .     A
C845   N859    1.437   .     S
C845   C848    1.420   .     A
C846   C847    1.419   .     A
C846   N862    1.435   .     S
C850   C291    1.466   1_556 S
N853   O854    1.301   .     A
N853   O855    1.301   .     A
N856   O858    1.301   .     A
N856   O857    1.301   .     A
N859   O860    1.302   .     A
N859   O861    1.301   .     A
N862   O863    1.301   .     A
N862   O864    1.301   .     A
O869   Cu883   1.954   .     S
O869   C875    1.286   .     A
O870   Cu884   1.954   .     S
O870   C876    1.287   .     A
O871   Cu883   1.955   .     S
O871   C876    1.287   .     A
O872   Cu884   1.955   .     S
O872   C875    1.287   .     A
N873   C892    1.366   .     A
N873   Cu883   2.010   .     S
N873   C890    1.367   .     A
N874   C891    1.367   .     A
N874   Cu884   2.010   .     S
N874   C889    1.367   .     A
C875   C914    1.440   .     S
C876   C913    1.443   .     S
O877   Cu883   1.969   .     S
O877   C881    1.292   .     A
O878   Cu884   1.969   .     S
O878   C882    1.292   .     A
O879   C882    1.300   .     A
O879   Cu883   1.963   .     S
O880   C881    1.301   .     A
O880   Cu884   1.963   .     S
C881   C909    1.478   .     S
C882   C910    1.477   .     S
Cu883  Cu884   2.675   .     S
H885   C889    1.080   .     S
H886   C890    1.082   .     S
H887   C891    1.082   .     S
H888   C892    1.081   .     S
C890   C1077   1.416   .     S
C892   C1075   1.415   .     S
C893   Br927   1.933   .     S
C893   C914    1.405   .     A
C894   C913    1.404   .     A
C894   Br928   1.927   .     S
C894   C772    1.395   1_655 S
C895   C913    1.405   .     A
C895   Br929   1.929   .     S
C895   C769    1.396   1_655 S
C896   C914    1.404   .     A
C896   Br930   1.933   .     S
C897   H901    1.084   .     S
C897   C905    1.392   .     A
C897   C911    1.394   .     A
C898   C912    1.394   .     A
C898   H902    1.084   .     S
C898   C906    1.392   .     A
C899   H903    1.084   .     S
C899   C912    1.397   .     A
C899   C907    1.394   .     A
C900   H904    1.084   .     S
C900   C911    1.397   .     A
C900   C908    1.394   .     A
C905   C909    1.423   .     A
C905   N915    1.434   .     S
C906   N918    1.434   .     S
C906   C910    1.423   .     A
C907   N921    1.437   .     S
C907   C910    1.420   .     A
C908   C909    1.419   .     A
C908   N924    1.435   .     S
C912   C353    1.466   1_556 S
N915   O916    1.301   .     A
N915   O917    1.301   .     A
N918   O920    1.301   .     A
N918   O919    1.301   .     A
N921   O922    1.302   .     A
N921   O923    1.301   .     A
N924   O925    1.301   .     A
N924   O926    1.301   .     A
O931   Cu945   1.954   .     S
O931   C937    1.286   .     A
O932   Cu946   1.954   .     S
O932   C938    1.287   .     A
O933   Cu945   1.955   .     S
O933   C938    1.287   .     A
O934   Cu946   1.955   .     S
O934   C937    1.287   .     A
N935   C954    1.366   .     A
N935   Cu945   2.010   .     S
N935   C952    1.367   .     A
N936   C953    1.367   .     A
N936   Cu946   2.010   .     S
N936   C951    1.367   .     A
C937   C976    1.440   .     S
C938   C975    1.443   .     S
O939   Cu945   1.969   .     S
O939   C943    1.292   .     A
O940   Cu946   1.969   .     S
O940   C944    1.292   .     A
O941   C944    1.300   .     A
O941   Cu945   1.963   .     S
O942   C943    1.301   .     A
O942   Cu946   1.963   .     S
C943   C971    1.478   .     S
C944   C972    1.477   .     S
Cu945  Cu946   2.675   .     S
H947   C951    1.080   .     S
H948   C952    1.082   .     S
H949   C953    1.082   .     S
H950   C954    1.081   .     S
C952   C581    1.416   1_565 S
C954   C579    1.415   1_565 S
C955   Br989   1.933   .     S
C955   C976    1.405   .     A
C955   C1081   1.396   1_455 S
C956   C975    1.404   .     A
C956   Br990   1.927   .     S
C956   C1020   1.395   .     S
C957   C975    1.405   .     A
C957   Br991   1.929   .     S
C957   C1017   1.396   .     S
C958   C976    1.404   .     A
C958   Br992   1.933   .     S
C958   C1080   1.395   1_455 S
C959   H963    1.084   .     S
C959   C967    1.392   .     A
C959   C973    1.394   .     A
C960   C974    1.394   .     A
C960   H964    1.084   .     S
C960   C968    1.392   .     A
C961   H965    1.084   .     S
C961   C974    1.397   .     A
C961   C969    1.394   .     A
C962   H966    1.084   .     S
C962   C973    1.397   .     A
C962   C970    1.394   .     A
C967   C971    1.423   .     A
C967   N977    1.434   .     S
C968   N980    1.434   .     S
C968   C972    1.423   .     A
C969   N983    1.437   .     S
C969   C972    1.420   .     A
C970   C971    1.419   .     A
C970   N986    1.435   .     S
C974   C415    1.466   1_556 S
N977   O978    1.301   .     A
N977   O979    1.301   .     A
N980   O982    1.301   .     A
N980   O981    1.301   .     A
N983   O984    1.302   .     A
N983   O985    1.301   .     A
N986   O987    1.301   .     A
N986   O988    1.301   .     A
O993   Cu1007  1.954   .     S
O993   C999    1.286   .     A
O994   Cu1008  1.954   .     S
O994   C1000   1.287   .     A
O995   Cu1007  1.955   .     S
O995   C1000   1.287   .     A
O996   Cu1008  1.955   .     S
O996   C999    1.287   .     A
N997   C1016   1.366   .     A
N997   Cu1007  2.010   .     S
N997   C1014   1.367   .     A
N998   C1015   1.367   .     A
N998   Cu1008  2.010   .     S
N998   C1013   1.367   .     A
C999   C1038   1.440   .     S
C1000  C1037   1.443   .     S
O1001  Cu1007  1.969   .     S
O1001  C1005   1.292   .     A
O1002  Cu1008  1.969   .     S
O1002  C1006   1.292   .     A
O1003  C1006   1.300   .     A
O1003  Cu1007  1.963   .     S
O1004  C1005   1.301   .     A
O1004  Cu1008  1.963   .     S
C1005  C1033   1.478   .     S
C1006  C1034   1.477   .     S
Cu1007 Cu1008  2.675   .     S
H1009  C1013   1.080   .     S
H1010  C1014   1.082   .     S
H1011  C1015   1.082   .     S
H1012  C1016   1.081   .     S
C1014  C643    1.416   1_565 S
C1016  C641    1.415   1_565 S
C1017  Br1051  1.933   .     S
C1017  C1038   1.405   .     A
C1018  C1037   1.404   .     A
C1018  Br1052  1.927   .     S
C1018  C1082   1.395   .     S
C1019  C1037   1.405   .     A
C1019  Br1053  1.929   .     S
C1019  C1079   1.396   .     S
C1020  C1038   1.404   .     A
C1020  Br1054  1.933   .     S
C1021  H1025   1.084   .     S
C1021  C1029   1.392   .     A
C1021  C1035   1.394   .     A
C1022  C1036   1.394   .     A
C1022  H1026   1.084   .     S
C1022  C1030   1.392   .     A
C1023  H1027   1.084   .     S
C1023  C1036   1.397   .     A
C1023  C1031   1.394   .     A
C1024  H1028   1.084   .     S
C1024  C1035   1.397   .     A
C1024  C1032   1.394   .     A
C1029  C1033   1.423   .     A
C1029  N1039   1.434   .     S
C1030  N1042   1.434   .     S
C1030  C1034   1.423   .     A
C1031  N1045   1.437   .     S
C1031  C1034   1.420   .     A
C1032  C1033   1.419   .     A
C1032  N1048   1.435   .     S
C1036  C477    1.466   1_556 S
N1039  O1040   1.301   .     A
N1039  O1041   1.301   .     A
N1042  O1044   1.301   .     A
N1042  O1043   1.301   .     A
N1045  O1046   1.302   .     A
N1045  O1047   1.301   .     A
N1048  O1049   1.301   .     A
N1048  O1050   1.301   .     A
O1055  Cu1069  1.954   .     S
O1055  C1061   1.286   .     A
O1056  Cu1070  1.954   .     S
O1056  C1062   1.287   .     A
O1057  Cu1069  1.955   .     S
O1057  C1062   1.287   .     A
O1058  Cu1070  1.955   .     S
O1058  C1061   1.287   .     A
N1059  C1078   1.366   .     A
N1059  Cu1069  2.010   .     S
N1059  C1076   1.367   .     A
N1060  C1077   1.367   .     A
N1060  Cu1070  2.010   .     S
N1060  C1075   1.367   .     A
C1061  C1100   1.440   .     S
C1062  C1099   1.443   .     S
O1063  Cu1069  1.969   .     S
O1063  C1067   1.292   .     A
O1064  Cu1070  1.969   .     S
O1064  C1068   1.292   .     A
O1065  C1068   1.300   .     A
O1065  Cu1069  1.963   .     S
O1066  C1067   1.301   .     A
O1066  Cu1070  1.963   .     S
C1067  C1095   1.478   .     S
C1068  C1096   1.477   .     S
Cu1069 Cu1070  2.675   .     S
H1071  C1075   1.080   .     S
H1072  C1076   1.082   .     S
H1073  C1077   1.082   .     S
H1074  C1078   1.081   .     S
C1076  C705    1.416   1_565 S
C1078  C703    1.415   1_565 S
C1079  Br1113  1.933   .     S
C1079  C1100   1.405   .     A
C1080  C1099   1.404   .     A
C1080  Br1114  1.927   .     S
C1080  C958    1.395   1_655 S
C1081  C1099   1.405   .     A
C1081  Br1115  1.929   .     S
C1081  C955    1.396   1_655 S
C1082  C1100   1.404   .     A
C1082  Br1116  1.933   .     S
C1083  H1087   1.084   .     S
C1083  C1091   1.392   .     A
C1083  C1097   1.394   .     A
C1084  C1098   1.394   .     A
C1084  H1088   1.084   .     S
C1084  C1092   1.392   .     A
C1085  H1089   1.084   .     S
C1085  C1098   1.397   .     A
C1085  C1093   1.394   .     A
C1086  H1090   1.084   .     S
C1086  C1097   1.397   .     A
C1086  C1094   1.394   .     A
C1091  C1095   1.423   .     A
C1091  N1101   1.434   .     S
C1092  N1104   1.434   .     S
C1092  C1096   1.423   .     A
C1093  N1107   1.437   .     S
C1093  C1096   1.420   .     A
C1094  C1095   1.419   .     A
C1094  N1110   1.435   .     S
C1098  C539    1.466   1_556 S
N1101  O1102   1.301   .     A
N1101  O1103   1.301   .     A
N1104  O1106   1.301   .     A
N1104  O1105   1.301   .     A
N1107  O1108   1.302   .     A
N1107  O1109   1.301   .     A
N1110  O1111   1.301   .     A
N1110  O1112   1.301   .     A
