data_str_m2_o2_o5_pcu_sym.86
_audit_creation_date              2020-01-03
_audit_creation_method            'Materials Studio'
_symmetry_space_group_name_H-M    'P1'
_symmetry_Int_Tables_number       1
_symmetry_cell_setting            triclinic
loop_
_symmetry_equiv_pos_as_xyz
  x,y,z
_cell_length_a                    30.2563
_cell_length_b                    27.8556
_cell_length_c                    27.1424
_cell_angle_alpha                 90.0000
_cell_angle_beta                  90.3026
_cell_angle_gamma                 89.9999
loop_
_atom_site_label
_atom_site_type_symbol
_atom_site_fract_x
_atom_site_fract_y
_atom_site_fract_z
_atom_site_U_iso_or_equiv
_atom_site_adp_type
_atom_site_occupancy
C1     C     0.16499   0.24999   0.16656   0.00000  Uiso   1.00
C2     C     0.27906   0.44590   0.19677   0.00000  Uiso   1.00
C3     C     0.24999   0.24999   0.07357   0.00000  Uiso   1.00
C4     C     0.25001   0.24999   0.25976   0.00000  Uiso   1.00
C5     C     0.25000   0.02735   0.16667   0.00000  Uiso   1.00
C6     C     0.25000   0.47261   0.16667   0.00000  Uiso   1.00
C7     C     0.25000   0.24996   0.02187   0.00000  Uiso   1.00
C8     C     0.25000   0.24996   0.31146   0.00000  Uiso   1.00
C9     C     0.04750   0.29084   0.15127   0.00000  Uiso   1.00
C10    C     0.45228   0.20893   0.15162   0.00000  Uiso   1.00
C11    C     0.45250   0.29084   0.18206   0.00000  Uiso   1.00
C12    C     0.33501   0.24999   0.16677   0.00000  Uiso   1.00
C13    C     0.04772   0.20893   0.18172   0.00000  Uiso   1.00
C14    C     0.09344   0.29097   0.15150   0.00000  Uiso   1.00
C15    C     0.40636   0.20886   0.15196   0.00000  Uiso   1.00
C16    C     0.40656   0.29097   0.18183   0.00000  Uiso   1.00
C17    C     0.09364   0.20886   0.18138   0.00000  Uiso   1.00
C18    C     0.11675   0.24994   0.16647   0.00000  Uiso   1.00
C19    C     0.38325   0.24994   0.16687   0.00000  Uiso   1.00
C20    C     0.02428   0.24988   0.16658   0.00000  Uiso   1.00
C21    C     0.47572   0.24988   0.16676   0.00000  Uiso   1.00
C22    C     0.34105   0.11823   0.23983   0.00000  Uiso   1.00
C23    C     0.27337   0.10479   0.20187   0.00000  Uiso   1.00
C24    C     0.35301   0.10032   0.29148   0.00000  Uiso   1.00
C25    C     0.40221   0.08897   0.29582   0.00000  Uiso   1.00
C26    C     0.20326   0.38222   0.05336   0.00000  Uiso   1.00
C27    C     0.16030   0.39962   0.02945   0.00000  Uiso   1.00
C28    C     0.16707   0.41179   0.30847   0.00000  Uiso   1.00
C29    C     0.15895   0.11824   0.09352   0.00000  Uiso   1.00
C30    C     0.14697   0.10032   0.04188   0.00000  Uiso   1.00
C31    C     0.09775   0.08901   0.03757   0.00000  Uiso   1.00
C32    C     0.29674   0.38222   0.27997   0.00000  Uiso   1.00
C33    C     0.33970   0.39962   0.30388   0.00000  Uiso   1.00
C34    C     0.22303   0.39518   0.13479   0.00000  Uiso   1.00
C35    C     0.33293   0.41179   0.02486   0.00000  Uiso   1.00
C36    C     0.22662   0.10478   0.13147   0.00000  Uiso   1.00
C37    C     0.27696   0.39518   0.19854   0.00000  Uiso   1.00
C38    C     0.27150   0.05407   0.20381   0.00000  Uiso   1.00
C39    C     0.22094   0.44590   0.13657   0.00000  Uiso   1.00
C40    C     0.22850   0.05406   0.12953   0.00000  Uiso   1.00
Cu41   Cu    0.25000   0.29821   0.16667   0.00000  Uiso   1.00
Cu42   Cu    0.25000   0.20178   0.16667   0.00000  Uiso   1.00
H43    H     0.03017   0.32256   0.13859   0.00000  Uiso   1.00
H44    H     0.19637   0.46349   0.11402   0.00000  Uiso   1.00
H45    H     0.21303   0.03646   0.09856   0.00000  Uiso   1.00
H46    H     0.30362   0.46349   0.21931   0.00000  Uiso   1.00
H47    H     0.36023   0.15143   0.23245   0.00000  Uiso   1.00
H48    H     0.35166   0.09131   0.21176   0.00000  Uiso   1.00
H49    H     0.34435   0.12831   0.31900   0.00000  Uiso   1.00
H50    H     0.33374   0.06743   0.29999   0.00000  Uiso   1.00
H51    H     0.41140   0.06024   0.26939   0.00000  Uiso   1.00
H52    H     0.40983   0.07639   0.00041   0.00000  Uiso   1.00
H53    H     0.42218   0.12158   0.28820   0.00000  Uiso   1.00
H54    H     0.46943   0.17717   0.13890   0.00000  Uiso   1.00
H55    H     0.21424   0.34948   0.03360   0.00000  Uiso   1.00
H56    H     0.22973   0.40960   0.04773   0.00000  Uiso   1.00
H57    H     0.13477   0.37109   0.03252   0.00000  Uiso   1.00
H58    H     0.14820   0.43206   0.04900   0.00000  Uiso   1.00
H59    H     0.19135   0.44147   0.30466   0.00000  Uiso   1.00
H60    H     0.13519   0.42342   0.29191   0.00000  Uiso   1.00
H61    H     0.17918   0.37984   0.28807   0.00000  Uiso   1.00
H62    H     0.13978   0.15146   0.10088   0.00000  Uiso   1.00
H63    H     0.14833   0.09135   0.12161   0.00000  Uiso   1.00
H64    H     0.15564   0.12828   0.01434   0.00000  Uiso   1.00
H65    H     0.46983   0.32256   0.19474   0.00000  Uiso   1.00
H66    H     0.16621   0.06740   0.03340   0.00000  Uiso   1.00
H67    H     0.08854   0.06032   0.06403   0.00000  Uiso   1.00
H68    H     0.09013   0.07639   0.33299   0.00000  Uiso   1.00
H69    H     0.07781   0.12165   0.04514   0.00000  Uiso   1.00
H70    H     0.28576   0.34948   0.29974   0.00000  Uiso   1.00
H71    H     0.27027   0.40959   0.28560   0.00000  Uiso   1.00
H72    H     0.36523   0.37110   0.30081   0.00000  Uiso   1.00
H73    H     0.35180   0.43206   0.28434   0.00000  Uiso   1.00
H74    H     0.30865   0.44147   0.02867   0.00000  Uiso   1.00
H75    H     0.36481   0.42343   0.04142   0.00000  Uiso   1.00
H76    H     0.03057   0.17717   0.19444   0.00000  Uiso   1.00
H77    H     0.32083   0.37984   0.04526   0.00000  Uiso   1.00
H78    H     0.11069   0.32290   0.13938   0.00000  Uiso   1.00
H79    H     0.38896   0.17693   0.13991   0.00000  Uiso   1.00
H80    H     0.38931   0.32290   0.19395   0.00000  Uiso   1.00
H81    H     0.11104   0.17693   0.19342   0.00000  Uiso   1.00
H82    H     0.28696   0.03646   0.23478   0.00000  Uiso   1.00
N83    N     0.25000   0.12934   0.16667   0.00000  Uiso   1.00
N84    N     0.25000   0.37065   0.16667   0.00000  Uiso   1.00
O85    O     0.18573   0.29071   0.16667   0.00000  Uiso   1.00
O86    O     0.19547   0.36974   0.10333   0.00000  Uiso   1.00
O87    O     0.20446   0.13026   0.09519   0.00000  Uiso   1.00
O88    O     0.30453   0.36974   0.23001   0.00000  Uiso   1.00
O89    O     0.31427   0.20928   0.16666   0.00000  Uiso   1.00
O90    O     0.31427   0.29071   0.16666   0.00000  Uiso   1.00
O91    O     0.18573   0.20928   0.16667   0.00000  Uiso   1.00
O92    O     0.25000   0.29071   0.09613   0.00000  Uiso   1.00
O93    O     0.25000   0.20929   0.23720   0.00000  Uiso   1.00
O94    O     0.25000   0.29071   0.23720   0.00000  Uiso   1.00
O95    O     0.25000   0.20929   0.09613   0.00000  Uiso   1.00
O96    O     0.29555   0.13026   0.23814   0.00000  Uiso   1.00
C97    C     0.66499   0.24999   0.16656   0.00000  Uiso   1.00
C98    C     0.77906   0.44590   0.19677   0.00000  Uiso   1.00
C99    C     0.74999   0.24999   0.07357   0.00000  Uiso   1.00
C100   C     0.75001   0.24999   0.25976   0.00000  Uiso   1.00
C101   C     0.75000   0.02735   0.16667   0.00000  Uiso   1.00
C102   C     0.75000   0.47261   0.16667   0.00000  Uiso   1.00
C103   C     0.75000   0.24996   0.02187   0.00000  Uiso   1.00
C104   C     0.75000   0.24996   0.31146   0.00000  Uiso   1.00
C105   C     0.54750   0.29084   0.15127   0.00000  Uiso   1.00
C106   C     0.95228   0.20893   0.15162   0.00000  Uiso   1.00
C107   C     0.95250   0.29084   0.18206   0.00000  Uiso   1.00
C108   C     0.83501   0.24999   0.16677   0.00000  Uiso   1.00
C109   C     0.54772   0.20893   0.18172   0.00000  Uiso   1.00
C110   C     0.59344   0.29097   0.15150   0.00000  Uiso   1.00
C111   C     0.90636   0.20886   0.15196   0.00000  Uiso   1.00
C112   C     0.90656   0.29097   0.18183   0.00000  Uiso   1.00
C113   C     0.59364   0.20886   0.18138   0.00000  Uiso   1.00
C114   C     0.61675   0.24994   0.16647   0.00000  Uiso   1.00
C115   C     0.88325   0.24994   0.16687   0.00000  Uiso   1.00
C116   C     0.52428   0.24988   0.16658   0.00000  Uiso   1.00
C117   C     0.97572   0.24988   0.16676   0.00000  Uiso   1.00
C118   C     0.84105   0.11823   0.23983   0.00000  Uiso   1.00
C119   C     0.77337   0.10479   0.20187   0.00000  Uiso   1.00
C120   C     0.85301   0.10032   0.29148   0.00000  Uiso   1.00
C121   C     0.90221   0.08897   0.29582   0.00000  Uiso   1.00
C122   C     0.70326   0.38222   0.05336   0.00000  Uiso   1.00
C123   C     0.66030   0.39962   0.02945   0.00000  Uiso   1.00
C124   C     0.66707   0.41179   0.30847   0.00000  Uiso   1.00
C125   C     0.65895   0.11824   0.09352   0.00000  Uiso   1.00
C126   C     0.64697   0.10032   0.04188   0.00000  Uiso   1.00
C127   C     0.59775   0.08901   0.03757   0.00000  Uiso   1.00
C128   C     0.79674   0.38222   0.27997   0.00000  Uiso   1.00
C129   C     0.83970   0.39962   0.30388   0.00000  Uiso   1.00
C130   C     0.72303   0.39518   0.13479   0.00000  Uiso   1.00
C131   C     0.83293   0.41179   0.02486   0.00000  Uiso   1.00
C132   C     0.72662   0.10478   0.13147   0.00000  Uiso   1.00
C133   C     0.77696   0.39518   0.19854   0.00000  Uiso   1.00
C134   C     0.77150   0.05407   0.20381   0.00000  Uiso   1.00
C135   C     0.72094   0.44590   0.13657   0.00000  Uiso   1.00
C136   C     0.72850   0.05406   0.12953   0.00000  Uiso   1.00
Cu137  Cu    0.75000   0.29821   0.16667   0.00000  Uiso   1.00
Cu138  Cu    0.75000   0.20178   0.16667   0.00000  Uiso   1.00
H139   H     0.53017   0.32256   0.13859   0.00000  Uiso   1.00
H140   H     0.69637   0.46349   0.11402   0.00000  Uiso   1.00
H141   H     0.71303   0.03646   0.09856   0.00000  Uiso   1.00
H142   H     0.80362   0.46349   0.21931   0.00000  Uiso   1.00
H143   H     0.86023   0.15143   0.23245   0.00000  Uiso   1.00
H144   H     0.85166   0.09131   0.21176   0.00000  Uiso   1.00
H145   H     0.84435   0.12831   0.31900   0.00000  Uiso   1.00
H146   H     0.83374   0.06743   0.29999   0.00000  Uiso   1.00
H147   H     0.91140   0.06024   0.26939   0.00000  Uiso   1.00
H148   H     0.90983   0.07639   0.00041   0.00000  Uiso   1.00
H149   H     0.92218   0.12158   0.28820   0.00000  Uiso   1.00
H150   H     0.96943   0.17717   0.13890   0.00000  Uiso   1.00
H151   H     0.71424   0.34948   0.03360   0.00000  Uiso   1.00
H152   H     0.72973   0.40960   0.04773   0.00000  Uiso   1.00
H153   H     0.63477   0.37109   0.03252   0.00000  Uiso   1.00
H154   H     0.64820   0.43206   0.04900   0.00000  Uiso   1.00
H155   H     0.69135   0.44147   0.30466   0.00000  Uiso   1.00
H156   H     0.63519   0.42342   0.29191   0.00000  Uiso   1.00
H157   H     0.67918   0.37984   0.28807   0.00000  Uiso   1.00
H158   H     0.63978   0.15146   0.10088   0.00000  Uiso   1.00
H159   H     0.64833   0.09135   0.12161   0.00000  Uiso   1.00
H160   H     0.65564   0.12828   0.01434   0.00000  Uiso   1.00
H161   H     0.96983   0.32256   0.19474   0.00000  Uiso   1.00
H162   H     0.66621   0.06740   0.03340   0.00000  Uiso   1.00
H163   H     0.58854   0.06032   0.06403   0.00000  Uiso   1.00
H164   H     0.59013   0.07639   0.33299   0.00000  Uiso   1.00
H165   H     0.57781   0.12165   0.04514   0.00000  Uiso   1.00
H166   H     0.78576   0.34948   0.29974   0.00000  Uiso   1.00
H167   H     0.77027   0.40959   0.28560   0.00000  Uiso   1.00
H168   H     0.86523   0.37110   0.30081   0.00000  Uiso   1.00
H169   H     0.85180   0.43206   0.28434   0.00000  Uiso   1.00
H170   H     0.80865   0.44147   0.02867   0.00000  Uiso   1.00
H171   H     0.86481   0.42343   0.04142   0.00000  Uiso   1.00
H172   H     0.53057   0.17717   0.19444   0.00000  Uiso   1.00
H173   H     0.82083   0.37984   0.04526   0.00000  Uiso   1.00
H174   H     0.61069   0.32290   0.13938   0.00000  Uiso   1.00
H175   H     0.88896   0.17693   0.13991   0.00000  Uiso   1.00
H176   H     0.88931   0.32290   0.19395   0.00000  Uiso   1.00
H177   H     0.61104   0.17693   0.19342   0.00000  Uiso   1.00
H178   H     0.78696   0.03646   0.23478   0.00000  Uiso   1.00
N179   N     0.75000   0.12934   0.16667   0.00000  Uiso   1.00
N180   N     0.75000   0.37065   0.16667   0.00000  Uiso   1.00
O181   O     0.68573   0.29071   0.16667   0.00000  Uiso   1.00
O182   O     0.69547   0.36974   0.10333   0.00000  Uiso   1.00
O183   O     0.70446   0.13026   0.09519   0.00000  Uiso   1.00
O184   O     0.80453   0.36974   0.23001   0.00000  Uiso   1.00
O185   O     0.81427   0.20928   0.16666   0.00000  Uiso   1.00
O186   O     0.81427   0.29071   0.16666   0.00000  Uiso   1.00
O187   O     0.68573   0.20928   0.16667   0.00000  Uiso   1.00
O188   O     0.75000   0.29071   0.09613   0.00000  Uiso   1.00
O189   O     0.75000   0.20929   0.23720   0.00000  Uiso   1.00
O190   O     0.75000   0.29071   0.23720   0.00000  Uiso   1.00
O191   O     0.75000   0.20929   0.09613   0.00000  Uiso   1.00
O192   O     0.79555   0.13026   0.23814   0.00000  Uiso   1.00
C193   C     0.16499   0.74999   0.16656   0.00000  Uiso   1.00
C194   C     0.27906   0.94590   0.19677   0.00000  Uiso   1.00
C195   C     0.24999   0.74999   0.07357   0.00000  Uiso   1.00
C196   C     0.25001   0.74999   0.25976   0.00000  Uiso   1.00
C197   C     0.25000   0.52735   0.16667   0.00000  Uiso   1.00
C198   C     0.25000   0.97261   0.16667   0.00000  Uiso   1.00
C199   C     0.25000   0.74996   0.02187   0.00000  Uiso   1.00
C200   C     0.25000   0.74996   0.31146   0.00000  Uiso   1.00
C201   C     0.04750   0.79084   0.15127   0.00000  Uiso   1.00
C202   C     0.45228   0.70893   0.15162   0.00000  Uiso   1.00
C203   C     0.45250   0.79084   0.18206   0.00000  Uiso   1.00
C204   C     0.33501   0.74999   0.16677   0.00000  Uiso   1.00
C205   C     0.04772   0.70893   0.18172   0.00000  Uiso   1.00
C206   C     0.09344   0.79097   0.15150   0.00000  Uiso   1.00
C207   C     0.40636   0.70886   0.15196   0.00000  Uiso   1.00
C208   C     0.40656   0.79097   0.18183   0.00000  Uiso   1.00
C209   C     0.09364   0.70886   0.18138   0.00000  Uiso   1.00
C210   C     0.11675   0.74994   0.16647   0.00000  Uiso   1.00
C211   C     0.38325   0.74994   0.16687   0.00000  Uiso   1.00
C212   C     0.02428   0.74988   0.16658   0.00000  Uiso   1.00
C213   C     0.47572   0.74988   0.16676   0.00000  Uiso   1.00
C214   C     0.34105   0.61823   0.23983   0.00000  Uiso   1.00
C215   C     0.27337   0.60479   0.20187   0.00000  Uiso   1.00
C216   C     0.35301   0.60032   0.29148   0.00000  Uiso   1.00
C217   C     0.40221   0.58897   0.29582   0.00000  Uiso   1.00
C218   C     0.20326   0.88222   0.05336   0.00000  Uiso   1.00
C219   C     0.16030   0.89962   0.02945   0.00000  Uiso   1.00
C220   C     0.16707   0.91179   0.30847   0.00000  Uiso   1.00
C221   C     0.15895   0.61824   0.09352   0.00000  Uiso   1.00
C222   C     0.14697   0.60032   0.04188   0.00000  Uiso   1.00
C223   C     0.09775   0.58901   0.03757   0.00000  Uiso   1.00
C224   C     0.29674   0.88222   0.27997   0.00000  Uiso   1.00
C225   C     0.33970   0.89962   0.30388   0.00000  Uiso   1.00
C226   C     0.22303   0.89518   0.13479   0.00000  Uiso   1.00
C227   C     0.33293   0.91179   0.02486   0.00000  Uiso   1.00
C228   C     0.22662   0.60478   0.13147   0.00000  Uiso   1.00
C229   C     0.27696   0.89518   0.19854   0.00000  Uiso   1.00
C230   C     0.27150   0.55407   0.20381   0.00000  Uiso   1.00
C231   C     0.22094   0.94590   0.13657   0.00000  Uiso   1.00
C232   C     0.22850   0.55406   0.12953   0.00000  Uiso   1.00
Cu233  Cu    0.25000   0.79821   0.16667   0.00000  Uiso   1.00
Cu234  Cu    0.25000   0.70178   0.16667   0.00000  Uiso   1.00
H235   H     0.03017   0.82256   0.13859   0.00000  Uiso   1.00
H236   H     0.19637   0.96349   0.11402   0.00000  Uiso   1.00
H237   H     0.21303   0.53646   0.09856   0.00000  Uiso   1.00
H238   H     0.30362   0.96349   0.21931   0.00000  Uiso   1.00
H239   H     0.36023   0.65143   0.23245   0.00000  Uiso   1.00
H240   H     0.35166   0.59131   0.21176   0.00000  Uiso   1.00
H241   H     0.34435   0.62831   0.31900   0.00000  Uiso   1.00
H242   H     0.33374   0.56743   0.29999   0.00000  Uiso   1.00
H243   H     0.41140   0.56024   0.26939   0.00000  Uiso   1.00
H244   H     0.40983   0.57639   0.00041   0.00000  Uiso   1.00
H245   H     0.42218   0.62158   0.28820   0.00000  Uiso   1.00
H246   H     0.46943   0.67717   0.13890   0.00000  Uiso   1.00
H247   H     0.21424   0.84948   0.03360   0.00000  Uiso   1.00
H248   H     0.22973   0.90960   0.04773   0.00000  Uiso   1.00
H249   H     0.13477   0.87109   0.03252   0.00000  Uiso   1.00
H250   H     0.14820   0.93206   0.04900   0.00000  Uiso   1.00
H251   H     0.19135   0.94147   0.30466   0.00000  Uiso   1.00
H252   H     0.13519   0.92342   0.29191   0.00000  Uiso   1.00
H253   H     0.17918   0.87984   0.28807   0.00000  Uiso   1.00
H254   H     0.13978   0.65146   0.10088   0.00000  Uiso   1.00
H255   H     0.14833   0.59135   0.12161   0.00000  Uiso   1.00
H256   H     0.15564   0.62828   0.01434   0.00000  Uiso   1.00
H257   H     0.46983   0.82256   0.19474   0.00000  Uiso   1.00
H258   H     0.16621   0.56740   0.03340   0.00000  Uiso   1.00
H259   H     0.08854   0.56032   0.06403   0.00000  Uiso   1.00
H260   H     0.09013   0.57639   0.33299   0.00000  Uiso   1.00
H261   H     0.07781   0.62165   0.04514   0.00000  Uiso   1.00
H262   H     0.28576   0.84948   0.29974   0.00000  Uiso   1.00
H263   H     0.27027   0.90959   0.28560   0.00000  Uiso   1.00
H264   H     0.36523   0.87110   0.30081   0.00000  Uiso   1.00
H265   H     0.35180   0.93206   0.28434   0.00000  Uiso   1.00
H266   H     0.30865   0.94147   0.02867   0.00000  Uiso   1.00
H267   H     0.36481   0.92343   0.04142   0.00000  Uiso   1.00
H268   H     0.03057   0.67717   0.19444   0.00000  Uiso   1.00
H269   H     0.32083   0.87984   0.04526   0.00000  Uiso   1.00
H270   H     0.11069   0.82290   0.13938   0.00000  Uiso   1.00
H271   H     0.38896   0.67693   0.13991   0.00000  Uiso   1.00
H272   H     0.38931   0.82290   0.19395   0.00000  Uiso   1.00
H273   H     0.11104   0.67693   0.19342   0.00000  Uiso   1.00
H274   H     0.28696   0.53646   0.23478   0.00000  Uiso   1.00
N275   N     0.25000   0.62934   0.16667   0.00000  Uiso   1.00
N276   N     0.25000   0.87065   0.16667   0.00000  Uiso   1.00
O277   O     0.18573   0.79071   0.16667   0.00000  Uiso   1.00
O278   O     0.19547   0.86974   0.10333   0.00000  Uiso   1.00
O279   O     0.20446   0.63026   0.09519   0.00000  Uiso   1.00
O280   O     0.30453   0.86974   0.23001   0.00000  Uiso   1.00
O281   O     0.31427   0.70928   0.16666   0.00000  Uiso   1.00
O282   O     0.31427   0.79071   0.16666   0.00000  Uiso   1.00
O283   O     0.18573   0.70928   0.16667   0.00000  Uiso   1.00
O284   O     0.25000   0.79071   0.09613   0.00000  Uiso   1.00
O285   O     0.25000   0.70929   0.23720   0.00000  Uiso   1.00
O286   O     0.25000   0.79071   0.23720   0.00000  Uiso   1.00
O287   O     0.25000   0.70929   0.09613   0.00000  Uiso   1.00
O288   O     0.29555   0.63026   0.23814   0.00000  Uiso   1.00
C289   C     0.66499   0.74999   0.16656   0.00000  Uiso   1.00
C290   C     0.77906   0.94590   0.19677   0.00000  Uiso   1.00
C291   C     0.74999   0.74999   0.07357   0.00000  Uiso   1.00
C292   C     0.75001   0.74999   0.25976   0.00000  Uiso   1.00
C293   C     0.75000   0.52735   0.16667   0.00000  Uiso   1.00
C294   C     0.75000   0.97261   0.16667   0.00000  Uiso   1.00
C295   C     0.75000   0.74996   0.02187   0.00000  Uiso   1.00
C296   C     0.75000   0.74996   0.31146   0.00000  Uiso   1.00
C297   C     0.54750   0.79084   0.15127   0.00000  Uiso   1.00
C298   C     0.95228   0.70893   0.15162   0.00000  Uiso   1.00
C299   C     0.95250   0.79084   0.18206   0.00000  Uiso   1.00
C300   C     0.83501   0.74999   0.16677   0.00000  Uiso   1.00
C301   C     0.54772   0.70893   0.18172   0.00000  Uiso   1.00
C302   C     0.59344   0.79097   0.15150   0.00000  Uiso   1.00
C303   C     0.90636   0.70886   0.15196   0.00000  Uiso   1.00
C304   C     0.90656   0.79097   0.18183   0.00000  Uiso   1.00
C305   C     0.59364   0.70886   0.18138   0.00000  Uiso   1.00
C306   C     0.61675   0.74994   0.16647   0.00000  Uiso   1.00
C307   C     0.88325   0.74994   0.16687   0.00000  Uiso   1.00
C308   C     0.52428   0.74988   0.16658   0.00000  Uiso   1.00
C309   C     0.97572   0.74988   0.16676   0.00000  Uiso   1.00
C310   C     0.84105   0.61823   0.23983   0.00000  Uiso   1.00
C311   C     0.77337   0.60479   0.20187   0.00000  Uiso   1.00
C312   C     0.85301   0.60032   0.29148   0.00000  Uiso   1.00
C313   C     0.90221   0.58897   0.29582   0.00000  Uiso   1.00
C314   C     0.70326   0.88222   0.05336   0.00000  Uiso   1.00
C315   C     0.66030   0.89962   0.02945   0.00000  Uiso   1.00
C316   C     0.66707   0.91179   0.30847   0.00000  Uiso   1.00
C317   C     0.65895   0.61824   0.09352   0.00000  Uiso   1.00
C318   C     0.64697   0.60032   0.04188   0.00000  Uiso   1.00
C319   C     0.59775   0.58901   0.03757   0.00000  Uiso   1.00
C320   C     0.79674   0.88222   0.27997   0.00000  Uiso   1.00
C321   C     0.83970   0.89962   0.30388   0.00000  Uiso   1.00
C322   C     0.72303   0.89518   0.13479   0.00000  Uiso   1.00
C323   C     0.83293   0.91179   0.02486   0.00000  Uiso   1.00
C324   C     0.72662   0.60478   0.13147   0.00000  Uiso   1.00
C325   C     0.77696   0.89518   0.19854   0.00000  Uiso   1.00
C326   C     0.77150   0.55407   0.20381   0.00000  Uiso   1.00
C327   C     0.72094   0.94590   0.13657   0.00000  Uiso   1.00
C328   C     0.72850   0.55406   0.12953   0.00000  Uiso   1.00
Cu329  Cu    0.75000   0.79821   0.16667   0.00000  Uiso   1.00
Cu330  Cu    0.75000   0.70178   0.16667   0.00000  Uiso   1.00
H331   H     0.53017   0.82256   0.13859   0.00000  Uiso   1.00
H332   H     0.69637   0.96349   0.11402   0.00000  Uiso   1.00
H333   H     0.71303   0.53646   0.09856   0.00000  Uiso   1.00
H334   H     0.80362   0.96349   0.21931   0.00000  Uiso   1.00
H335   H     0.86023   0.65143   0.23245   0.00000  Uiso   1.00
H336   H     0.85166   0.59131   0.21176   0.00000  Uiso   1.00
H337   H     0.84435   0.62831   0.31900   0.00000  Uiso   1.00
H338   H     0.83374   0.56743   0.29999   0.00000  Uiso   1.00
H339   H     0.91140   0.56024   0.26939   0.00000  Uiso   1.00
H340   H     0.90983   0.57639   0.00041   0.00000  Uiso   1.00
H341   H     0.92218   0.62158   0.28820   0.00000  Uiso   1.00
H342   H     0.96943   0.67717   0.13890   0.00000  Uiso   1.00
H343   H     0.71424   0.84948   0.03360   0.00000  Uiso   1.00
H344   H     0.72973   0.90960   0.04773   0.00000  Uiso   1.00
H345   H     0.63477   0.87109   0.03252   0.00000  Uiso   1.00
H346   H     0.64820   0.93206   0.04900   0.00000  Uiso   1.00
H347   H     0.69135   0.94147   0.30466   0.00000  Uiso   1.00
H348   H     0.63519   0.92342   0.29191   0.00000  Uiso   1.00
H349   H     0.67918   0.87984   0.28807   0.00000  Uiso   1.00
H350   H     0.63978   0.65146   0.10088   0.00000  Uiso   1.00
H351   H     0.64833   0.59135   0.12161   0.00000  Uiso   1.00
H352   H     0.65564   0.62828   0.01434   0.00000  Uiso   1.00
H353   H     0.96983   0.82256   0.19474   0.00000  Uiso   1.00
H354   H     0.66621   0.56740   0.03340   0.00000  Uiso   1.00
H355   H     0.58854   0.56032   0.06403   0.00000  Uiso   1.00
H356   H     0.59013   0.57639   0.33299   0.00000  Uiso   1.00
H357   H     0.57781   0.62165   0.04514   0.00000  Uiso   1.00
H358   H     0.78576   0.84948   0.29974   0.00000  Uiso   1.00
H359   H     0.77027   0.90959   0.28560   0.00000  Uiso   1.00
H360   H     0.86523   0.87110   0.30081   0.00000  Uiso   1.00
H361   H     0.85180   0.93206   0.28434   0.00000  Uiso   1.00
H362   H     0.80865   0.94147   0.02867   0.00000  Uiso   1.00
H363   H     0.86481   0.92343   0.04142   0.00000  Uiso   1.00
H364   H     0.53057   0.67717   0.19444   0.00000  Uiso   1.00
H365   H     0.82083   0.87984   0.04526   0.00000  Uiso   1.00
H366   H     0.61069   0.82290   0.13938   0.00000  Uiso   1.00
H367   H     0.88896   0.67693   0.13991   0.00000  Uiso   1.00
H368   H     0.88931   0.82290   0.19395   0.00000  Uiso   1.00
H369   H     0.61104   0.67693   0.19342   0.00000  Uiso   1.00
H370   H     0.78696   0.53646   0.23478   0.00000  Uiso   1.00
N371   N     0.75000   0.62934   0.16667   0.00000  Uiso   1.00
N372   N     0.75000   0.87065   0.16667   0.00000  Uiso   1.00
O373   O     0.68573   0.79071   0.16667   0.00000  Uiso   1.00
O374   O     0.69547   0.86974   0.10333   0.00000  Uiso   1.00
O375   O     0.70446   0.63026   0.09519   0.00000  Uiso   1.00
O376   O     0.80453   0.86974   0.23001   0.00000  Uiso   1.00
O377   O     0.81427   0.70928   0.16666   0.00000  Uiso   1.00
O378   O     0.81427   0.79071   0.16666   0.00000  Uiso   1.00
O379   O     0.68573   0.70928   0.16667   0.00000  Uiso   1.00
O380   O     0.75000   0.79071   0.09613   0.00000  Uiso   1.00
O381   O     0.75000   0.70929   0.23720   0.00000  Uiso   1.00
O382   O     0.75000   0.79071   0.23720   0.00000  Uiso   1.00
O383   O     0.75000   0.70929   0.09613   0.00000  Uiso   1.00
O384   O     0.79555   0.63026   0.23814   0.00000  Uiso   1.00
C385   C     0.16499   0.24999   0.49989   0.00000  Uiso   1.00
C386   C     0.27906   0.44590   0.53010   0.00000  Uiso   1.00
C387   C     0.24999   0.24999   0.40691   0.00000  Uiso   1.00
C388   C     0.25001   0.24999   0.59309   0.00000  Uiso   1.00
C389   C     0.25000   0.02735   0.50000   0.00000  Uiso   1.00
C390   C     0.25000   0.47261   0.50000   0.00000  Uiso   1.00
C391   C     0.25000   0.24996   0.35520   0.00000  Uiso   1.00
C392   C     0.25000   0.24996   0.64480   0.00000  Uiso   1.00
C393   C     0.04750   0.29084   0.48460   0.00000  Uiso   1.00
C394   C     0.45228   0.20893   0.48495   0.00000  Uiso   1.00
C395   C     0.45250   0.29084   0.51539   0.00000  Uiso   1.00
C396   C     0.33501   0.24999   0.50011   0.00000  Uiso   1.00
C397   C     0.04772   0.20893   0.51505   0.00000  Uiso   1.00
C398   C     0.09344   0.29097   0.48484   0.00000  Uiso   1.00
C399   C     0.40636   0.20886   0.48529   0.00000  Uiso   1.00
C400   C     0.40656   0.29097   0.51516   0.00000  Uiso   1.00
C401   C     0.09364   0.20886   0.51471   0.00000  Uiso   1.00
C402   C     0.11675   0.24994   0.49980   0.00000  Uiso   1.00
C403   C     0.38325   0.24994   0.50020   0.00000  Uiso   1.00
C404   C     0.02428   0.24988   0.49991   0.00000  Uiso   1.00
C405   C     0.47572   0.24988   0.50009   0.00000  Uiso   1.00
C406   C     0.34105   0.11823   0.57317   0.00000  Uiso   1.00
C407   C     0.27337   0.10479   0.53520   0.00000  Uiso   1.00
C408   C     0.35301   0.10032   0.62482   0.00000  Uiso   1.00
C409   C     0.40221   0.08897   0.62915   0.00000  Uiso   1.00
C410   C     0.20326   0.38222   0.38669   0.00000  Uiso   1.00
C411   C     0.16030   0.39962   0.36278   0.00000  Uiso   1.00
C412   C     0.16707   0.41179   0.64181   0.00000  Uiso   1.00
C413   C     0.15895   0.11824   0.42685   0.00000  Uiso   1.00
C414   C     0.14697   0.10032   0.37521   0.00000  Uiso   1.00
C415   C     0.09775   0.08901   0.37090   0.00000  Uiso   1.00
C416   C     0.29674   0.38222   0.61331   0.00000  Uiso   1.00
C417   C     0.33970   0.39962   0.63722   0.00000  Uiso   1.00
C418   C     0.22303   0.39518   0.46812   0.00000  Uiso   1.00
C419   C     0.33293   0.41179   0.35819   0.00000  Uiso   1.00
C420   C     0.22662   0.10478   0.46480   0.00000  Uiso   1.00
C421   C     0.27696   0.39518   0.53188   0.00000  Uiso   1.00
C422   C     0.27150   0.05407   0.53714   0.00000  Uiso   1.00
C423   C     0.22094   0.44590   0.46990   0.00000  Uiso   1.00
C424   C     0.22850   0.05406   0.46286   0.00000  Uiso   1.00
Cu425  Cu    0.25000   0.29821   0.50000   0.00000  Uiso   1.00
Cu426  Cu    0.25000   0.20178   0.50000   0.00000  Uiso   1.00
H427   H     0.03017   0.32256   0.47192   0.00000  Uiso   1.00
H428   H     0.19637   0.46349   0.44736   0.00000  Uiso   1.00
H429   H     0.21303   0.03646   0.43189   0.00000  Uiso   1.00
H430   H     0.30362   0.46349   0.55265   0.00000  Uiso   1.00
H431   H     0.36023   0.15143   0.56579   0.00000  Uiso   1.00
H432   H     0.35166   0.09131   0.54510   0.00000  Uiso   1.00
H433   H     0.34435   0.12831   0.65233   0.00000  Uiso   1.00
H434   H     0.33374   0.06743   0.63332   0.00000  Uiso   1.00
H435   H     0.41140   0.06024   0.60273   0.00000  Uiso   1.00
H436   H     0.40983   0.07639   0.33374   0.00000  Uiso   1.00
H437   H     0.42218   0.12158   0.62154   0.00000  Uiso   1.00
H438   H     0.46943   0.17717   0.47223   0.00000  Uiso   1.00
H439   H     0.21424   0.34948   0.36693   0.00000  Uiso   1.00
H440   H     0.22973   0.40960   0.38106   0.00000  Uiso   1.00
H441   H     0.13477   0.37109   0.36585   0.00000  Uiso   1.00
H442   H     0.14820   0.43206   0.38233   0.00000  Uiso   1.00
H443   H     0.19135   0.44147   0.63800   0.00000  Uiso   1.00
H444   H     0.13519   0.42342   0.62525   0.00000  Uiso   1.00
H445   H     0.17918   0.37984   0.62140   0.00000  Uiso   1.00
H446   H     0.13978   0.15146   0.43422   0.00000  Uiso   1.00
H447   H     0.14833   0.09135   0.45494   0.00000  Uiso   1.00
H448   H     0.15564   0.12828   0.34768   0.00000  Uiso   1.00
H449   H     0.46983   0.32256   0.52808   0.00000  Uiso   1.00
H450   H     0.16621   0.06740   0.36673   0.00000  Uiso   1.00
H451   H     0.08854   0.06032   0.39736   0.00000  Uiso   1.00
H452   H     0.09013   0.07639   0.66633   0.00000  Uiso   1.00
H453   H     0.07781   0.12165   0.37847   0.00000  Uiso   1.00
H454   H     0.28576   0.34948   0.63307   0.00000  Uiso   1.00
H455   H     0.27027   0.40959   0.61894   0.00000  Uiso   1.00
H456   H     0.36523   0.37110   0.63415   0.00000  Uiso   1.00
H457   H     0.35180   0.43206   0.61767   0.00000  Uiso   1.00
H458   H     0.30865   0.44147   0.36200   0.00000  Uiso   1.00
H459   H     0.36481   0.42343   0.37475   0.00000  Uiso   1.00
H460   H     0.03057   0.17717   0.52777   0.00000  Uiso   1.00
H461   H     0.32083   0.37984   0.37860   0.00000  Uiso   1.00
H462   H     0.11069   0.32290   0.47271   0.00000  Uiso   1.00
H463   H     0.38896   0.17693   0.47325   0.00000  Uiso   1.00
H464   H     0.38931   0.32290   0.52728   0.00000  Uiso   1.00
H465   H     0.11104   0.17693   0.52675   0.00000  Uiso   1.00
H466   H     0.28696   0.03646   0.56811   0.00000  Uiso   1.00
N467   N     0.25000   0.12934   0.50000   0.00000  Uiso   1.00
N468   N     0.25000   0.37065   0.50000   0.00000  Uiso   1.00
O469   O     0.18573   0.29071   0.50000   0.00000  Uiso   1.00
O470   O     0.19547   0.36974   0.43666   0.00000  Uiso   1.00
O471   O     0.20446   0.13026   0.42852   0.00000  Uiso   1.00
O472   O     0.30453   0.36974   0.56334   0.00000  Uiso   1.00
O473   O     0.31427   0.20928   0.50000   0.00000  Uiso   1.00
O474   O     0.31427   0.29071   0.50000   0.00000  Uiso   1.00
O475   O     0.18573   0.20928   0.50000   0.00000  Uiso   1.00
O476   O     0.25000   0.29071   0.42946   0.00000  Uiso   1.00
O477   O     0.25000   0.20929   0.57054   0.00000  Uiso   1.00
O478   O     0.25000   0.29071   0.57054   0.00000  Uiso   1.00
O479   O     0.25000   0.20929   0.42946   0.00000  Uiso   1.00
O480   O     0.29555   0.13026   0.57148   0.00000  Uiso   1.00
C481   C     0.66499   0.24999   0.49989   0.00000  Uiso   1.00
C482   C     0.77906   0.44590   0.53010   0.00000  Uiso   1.00
C483   C     0.74999   0.24999   0.40691   0.00000  Uiso   1.00
C484   C     0.75001   0.24999   0.59309   0.00000  Uiso   1.00
C485   C     0.75000   0.02735   0.50000   0.00000  Uiso   1.00
C486   C     0.75000   0.47261   0.50000   0.00000  Uiso   1.00
C487   C     0.75000   0.24996   0.35520   0.00000  Uiso   1.00
C488   C     0.75000   0.24996   0.64480   0.00000  Uiso   1.00
C489   C     0.54750   0.29084   0.48460   0.00000  Uiso   1.00
C490   C     0.95228   0.20893   0.48495   0.00000  Uiso   1.00
C491   C     0.95250   0.29084   0.51539   0.00000  Uiso   1.00
C492   C     0.83501   0.24999   0.50011   0.00000  Uiso   1.00
C493   C     0.54772   0.20893   0.51505   0.00000  Uiso   1.00
C494   C     0.59344   0.29097   0.48484   0.00000  Uiso   1.00
C495   C     0.90636   0.20886   0.48529   0.00000  Uiso   1.00
C496   C     0.90656   0.29097   0.51516   0.00000  Uiso   1.00
C497   C     0.59364   0.20886   0.51471   0.00000  Uiso   1.00
C498   C     0.61675   0.24994   0.49980   0.00000  Uiso   1.00
C499   C     0.88325   0.24994   0.50020   0.00000  Uiso   1.00
C500   C     0.52428   0.24988   0.49991   0.00000  Uiso   1.00
C501   C     0.97572   0.24988   0.50009   0.00000  Uiso   1.00
C502   C     0.84105   0.11823   0.57317   0.00000  Uiso   1.00
C503   C     0.77337   0.10479   0.53520   0.00000  Uiso   1.00
C504   C     0.85301   0.10032   0.62482   0.00000  Uiso   1.00
C505   C     0.90221   0.08897   0.62915   0.00000  Uiso   1.00
C506   C     0.70326   0.38222   0.38669   0.00000  Uiso   1.00
C507   C     0.66030   0.39962   0.36278   0.00000  Uiso   1.00
C508   C     0.66707   0.41179   0.64181   0.00000  Uiso   1.00
C509   C     0.65895   0.11824   0.42685   0.00000  Uiso   1.00
C510   C     0.64697   0.10032   0.37521   0.00000  Uiso   1.00
C511   C     0.59775   0.08901   0.37090   0.00000  Uiso   1.00
C512   C     0.79674   0.38222   0.61331   0.00000  Uiso   1.00
C513   C     0.83970   0.39962   0.63722   0.00000  Uiso   1.00
C514   C     0.72303   0.39518   0.46812   0.00000  Uiso   1.00
C515   C     0.83293   0.41179   0.35819   0.00000  Uiso   1.00
C516   C     0.72662   0.10478   0.46480   0.00000  Uiso   1.00
C517   C     0.77696   0.39518   0.53188   0.00000  Uiso   1.00
C518   C     0.77150   0.05407   0.53714   0.00000  Uiso   1.00
C519   C     0.72094   0.44590   0.46990   0.00000  Uiso   1.00
C520   C     0.72850   0.05406   0.46286   0.00000  Uiso   1.00
Cu521  Cu    0.75000   0.29821   0.50000   0.00000  Uiso   1.00
Cu522  Cu    0.75000   0.20178   0.50000   0.00000  Uiso   1.00
H523   H     0.53017   0.32256   0.47192   0.00000  Uiso   1.00
H524   H     0.69637   0.46349   0.44736   0.00000  Uiso   1.00
H525   H     0.71303   0.03646   0.43189   0.00000  Uiso   1.00
H526   H     0.80362   0.46349   0.55265   0.00000  Uiso   1.00
H527   H     0.86023   0.15143   0.56579   0.00000  Uiso   1.00
H528   H     0.85166   0.09131   0.54510   0.00000  Uiso   1.00
H529   H     0.84435   0.12831   0.65233   0.00000  Uiso   1.00
H530   H     0.83374   0.06743   0.63332   0.00000  Uiso   1.00
H531   H     0.91140   0.06024   0.60273   0.00000  Uiso   1.00
H532   H     0.90983   0.07639   0.33374   0.00000  Uiso   1.00
H533   H     0.92218   0.12158   0.62154   0.00000  Uiso   1.00
H534   H     0.96943   0.17717   0.47223   0.00000  Uiso   1.00
H535   H     0.71424   0.34948   0.36693   0.00000  Uiso   1.00
H536   H     0.72973   0.40960   0.38106   0.00000  Uiso   1.00
H537   H     0.63477   0.37109   0.36585   0.00000  Uiso   1.00
H538   H     0.64820   0.43206   0.38233   0.00000  Uiso   1.00
H539   H     0.69135   0.44147   0.63800   0.00000  Uiso   1.00
H540   H     0.63519   0.42342   0.62525   0.00000  Uiso   1.00
H541   H     0.67918   0.37984   0.62140   0.00000  Uiso   1.00
H542   H     0.63978   0.15146   0.43422   0.00000  Uiso   1.00
H543   H     0.64833   0.09135   0.45494   0.00000  Uiso   1.00
H544   H     0.65564   0.12828   0.34768   0.00000  Uiso   1.00
H545   H     0.96983   0.32256   0.52808   0.00000  Uiso   1.00
H546   H     0.66621   0.06740   0.36673   0.00000  Uiso   1.00
H547   H     0.58854   0.06032   0.39736   0.00000  Uiso   1.00
H548   H     0.59013   0.07639   0.66633   0.00000  Uiso   1.00
H549   H     0.57781   0.12165   0.37847   0.00000  Uiso   1.00
H550   H     0.78576   0.34948   0.63307   0.00000  Uiso   1.00
H551   H     0.77027   0.40959   0.61894   0.00000  Uiso   1.00
H552   H     0.86523   0.37110   0.63415   0.00000  Uiso   1.00
H553   H     0.85180   0.43206   0.61767   0.00000  Uiso   1.00
H554   H     0.80865   0.44147   0.36200   0.00000  Uiso   1.00
H555   H     0.86481   0.42343   0.37475   0.00000  Uiso   1.00
H556   H     0.53057   0.17717   0.52777   0.00000  Uiso   1.00
H557   H     0.82083   0.37984   0.37860   0.00000  Uiso   1.00
H558   H     0.61069   0.32290   0.47271   0.00000  Uiso   1.00
H559   H     0.88896   0.17693   0.47325   0.00000  Uiso   1.00
H560   H     0.88931   0.32290   0.52728   0.00000  Uiso   1.00
H561   H     0.61104   0.17693   0.52675   0.00000  Uiso   1.00
H562   H     0.78696   0.03646   0.56811   0.00000  Uiso   1.00
N563   N     0.75000   0.12934   0.50000   0.00000  Uiso   1.00
N564   N     0.75000   0.37065   0.50000   0.00000  Uiso   1.00
O565   O     0.68573   0.29071   0.50000   0.00000  Uiso   1.00
O566   O     0.69547   0.36974   0.43666   0.00000  Uiso   1.00
O567   O     0.70446   0.13026   0.42852   0.00000  Uiso   1.00
O568   O     0.80453   0.36974   0.56334   0.00000  Uiso   1.00
O569   O     0.81427   0.20928   0.50000   0.00000  Uiso   1.00
O570   O     0.81427   0.29071   0.50000   0.00000  Uiso   1.00
O571   O     0.68573   0.20928   0.50000   0.00000  Uiso   1.00
O572   O     0.75000   0.29071   0.42946   0.00000  Uiso   1.00
O573   O     0.75000   0.20929   0.57054   0.00000  Uiso   1.00
O574   O     0.75000   0.29071   0.57054   0.00000  Uiso   1.00
O575   O     0.75000   0.20929   0.42946   0.00000  Uiso   1.00
O576   O     0.79555   0.13026   0.57148   0.00000  Uiso   1.00
C577   C     0.16499   0.74999   0.49989   0.00000  Uiso   1.00
C578   C     0.27906   0.94590   0.53010   0.00000  Uiso   1.00
C579   C     0.24999   0.74999   0.40691   0.00000  Uiso   1.00
C580   C     0.25001   0.74999   0.59309   0.00000  Uiso   1.00
C581   C     0.25000   0.52735   0.50000   0.00000  Uiso   1.00
C582   C     0.25000   0.97261   0.50000   0.00000  Uiso   1.00
C583   C     0.25000   0.74996   0.35520   0.00000  Uiso   1.00
C584   C     0.25000   0.74996   0.64480   0.00000  Uiso   1.00
C585   C     0.04750   0.79084   0.48460   0.00000  Uiso   1.00
C586   C     0.45228   0.70893   0.48495   0.00000  Uiso   1.00
C587   C     0.45250   0.79084   0.51539   0.00000  Uiso   1.00
C588   C     0.33501   0.74999   0.50011   0.00000  Uiso   1.00
C589   C     0.04772   0.70893   0.51505   0.00000  Uiso   1.00
C590   C     0.09344   0.79097   0.48484   0.00000  Uiso   1.00
C591   C     0.40636   0.70886   0.48529   0.00000  Uiso   1.00
C592   C     0.40656   0.79097   0.51516   0.00000  Uiso   1.00
C593   C     0.09364   0.70886   0.51471   0.00000  Uiso   1.00
C594   C     0.11675   0.74994   0.49980   0.00000  Uiso   1.00
C595   C     0.38325   0.74994   0.50020   0.00000  Uiso   1.00
C596   C     0.02428   0.74988   0.49991   0.00000  Uiso   1.00
C597   C     0.47572   0.74988   0.50009   0.00000  Uiso   1.00
C598   C     0.34105   0.61823   0.57317   0.00000  Uiso   1.00
C599   C     0.27337   0.60479   0.53520   0.00000  Uiso   1.00
C600   C     0.35301   0.60032   0.62482   0.00000  Uiso   1.00
C601   C     0.40221   0.58897   0.62915   0.00000  Uiso   1.00
C602   C     0.20326   0.88222   0.38669   0.00000  Uiso   1.00
C603   C     0.16030   0.89962   0.36278   0.00000  Uiso   1.00
C604   C     0.16707   0.91179   0.64181   0.00000  Uiso   1.00
C605   C     0.15895   0.61824   0.42685   0.00000  Uiso   1.00
C606   C     0.14697   0.60032   0.37521   0.00000  Uiso   1.00
C607   C     0.09775   0.58901   0.37090   0.00000  Uiso   1.00
C608   C     0.29674   0.88222   0.61331   0.00000  Uiso   1.00
C609   C     0.33970   0.89962   0.63722   0.00000  Uiso   1.00
C610   C     0.22303   0.89518   0.46812   0.00000  Uiso   1.00
C611   C     0.33293   0.91179   0.35819   0.00000  Uiso   1.00
C612   C     0.22662   0.60478   0.46480   0.00000  Uiso   1.00
C613   C     0.27696   0.89518   0.53188   0.00000  Uiso   1.00
C614   C     0.27150   0.55407   0.53714   0.00000  Uiso   1.00
C615   C     0.22094   0.94590   0.46990   0.00000  Uiso   1.00
C616   C     0.22850   0.55406   0.46286   0.00000  Uiso   1.00
Cu617  Cu    0.25000   0.79821   0.50000   0.00000  Uiso   1.00
Cu618  Cu    0.25000   0.70178   0.50000   0.00000  Uiso   1.00
H619   H     0.03017   0.82256   0.47192   0.00000  Uiso   1.00
H620   H     0.19637   0.96349   0.44736   0.00000  Uiso   1.00
H621   H     0.21303   0.53646   0.43189   0.00000  Uiso   1.00
H622   H     0.30362   0.96349   0.55265   0.00000  Uiso   1.00
H623   H     0.36023   0.65143   0.56579   0.00000  Uiso   1.00
H624   H     0.35166   0.59131   0.54510   0.00000  Uiso   1.00
H625   H     0.34435   0.62831   0.65233   0.00000  Uiso   1.00
H626   H     0.33374   0.56743   0.63332   0.00000  Uiso   1.00
H627   H     0.41140   0.56024   0.60273   0.00000  Uiso   1.00
H628   H     0.40983   0.57639   0.33374   0.00000  Uiso   1.00
H629   H     0.42218   0.62158   0.62154   0.00000  Uiso   1.00
H630   H     0.46943   0.67717   0.47223   0.00000  Uiso   1.00
H631   H     0.21424   0.84948   0.36693   0.00000  Uiso   1.00
H632   H     0.22973   0.90960   0.38106   0.00000  Uiso   1.00
H633   H     0.13477   0.87109   0.36585   0.00000  Uiso   1.00
H634   H     0.14820   0.93206   0.38233   0.00000  Uiso   1.00
H635   H     0.19135   0.94147   0.63800   0.00000  Uiso   1.00
H636   H     0.13519   0.92342   0.62525   0.00000  Uiso   1.00
H637   H     0.17918   0.87984   0.62140   0.00000  Uiso   1.00
H638   H     0.13978   0.65146   0.43422   0.00000  Uiso   1.00
H639   H     0.14833   0.59135   0.45494   0.00000  Uiso   1.00
H640   H     0.15564   0.62828   0.34768   0.00000  Uiso   1.00
H641   H     0.46983   0.82256   0.52808   0.00000  Uiso   1.00
H642   H     0.16621   0.56740   0.36673   0.00000  Uiso   1.00
H643   H     0.08854   0.56032   0.39736   0.00000  Uiso   1.00
H644   H     0.09013   0.57639   0.66633   0.00000  Uiso   1.00
H645   H     0.07781   0.62165   0.37847   0.00000  Uiso   1.00
H646   H     0.28576   0.84948   0.63307   0.00000  Uiso   1.00
H647   H     0.27027   0.90959   0.61894   0.00000  Uiso   1.00
H648   H     0.36523   0.87110   0.63415   0.00000  Uiso   1.00
H649   H     0.35180   0.93206   0.61767   0.00000  Uiso   1.00
H650   H     0.30865   0.94147   0.36200   0.00000  Uiso   1.00
H651   H     0.36481   0.92343   0.37475   0.00000  Uiso   1.00
H652   H     0.03057   0.67717   0.52777   0.00000  Uiso   1.00
H653   H     0.32083   0.87984   0.37860   0.00000  Uiso   1.00
H654   H     0.11069   0.82290   0.47271   0.00000  Uiso   1.00
H655   H     0.38896   0.67693   0.47325   0.00000  Uiso   1.00
H656   H     0.38931   0.82290   0.52728   0.00000  Uiso   1.00
H657   H     0.11104   0.67693   0.52675   0.00000  Uiso   1.00
H658   H     0.28696   0.53646   0.56811   0.00000  Uiso   1.00
N659   N     0.25000   0.62934   0.50000   0.00000  Uiso   1.00
N660   N     0.25000   0.87065   0.50000   0.00000  Uiso   1.00
O661   O     0.18573   0.79071   0.50000   0.00000  Uiso   1.00
O662   O     0.19547   0.86974   0.43666   0.00000  Uiso   1.00
O663   O     0.20446   0.63026   0.42852   0.00000  Uiso   1.00
O664   O     0.30453   0.86974   0.56334   0.00000  Uiso   1.00
O665   O     0.31427   0.70928   0.50000   0.00000  Uiso   1.00
O666   O     0.31427   0.79071   0.50000   0.00000  Uiso   1.00
O667   O     0.18573   0.70928   0.50000   0.00000  Uiso   1.00
O668   O     0.25000   0.79071   0.42946   0.00000  Uiso   1.00
O669   O     0.25000   0.70929   0.57054   0.00000  Uiso   1.00
O670   O     0.25000   0.79071   0.57054   0.00000  Uiso   1.00
O671   O     0.25000   0.70929   0.42946   0.00000  Uiso   1.00
O672   O     0.29555   0.63026   0.57148   0.00000  Uiso   1.00
C673   C     0.66499   0.74999   0.49989   0.00000  Uiso   1.00
C674   C     0.77906   0.94590   0.53010   0.00000  Uiso   1.00
C675   C     0.74999   0.74999   0.40691   0.00000  Uiso   1.00
C676   C     0.75001   0.74999   0.59309   0.00000  Uiso   1.00
C677   C     0.75000   0.52735   0.50000   0.00000  Uiso   1.00
C678   C     0.75000   0.97261   0.50000   0.00000  Uiso   1.00
C679   C     0.75000   0.74996   0.35520   0.00000  Uiso   1.00
C680   C     0.75000   0.74996   0.64480   0.00000  Uiso   1.00
C681   C     0.54750   0.79084   0.48460   0.00000  Uiso   1.00
C682   C     0.95228   0.70893   0.48495   0.00000  Uiso   1.00
C683   C     0.95250   0.79084   0.51539   0.00000  Uiso   1.00
C684   C     0.83501   0.74999   0.50011   0.00000  Uiso   1.00
C685   C     0.54772   0.70893   0.51505   0.00000  Uiso   1.00
C686   C     0.59344   0.79097   0.48484   0.00000  Uiso   1.00
C687   C     0.90636   0.70886   0.48529   0.00000  Uiso   1.00
C688   C     0.90656   0.79097   0.51516   0.00000  Uiso   1.00
C689   C     0.59364   0.70886   0.51471   0.00000  Uiso   1.00
C690   C     0.61675   0.74994   0.49980   0.00000  Uiso   1.00
C691   C     0.88325   0.74994   0.50020   0.00000  Uiso   1.00
C692   C     0.52428   0.74988   0.49991   0.00000  Uiso   1.00
C693   C     0.97572   0.74988   0.50009   0.00000  Uiso   1.00
C694   C     0.84105   0.61823   0.57317   0.00000  Uiso   1.00
C695   C     0.77337   0.60479   0.53520   0.00000  Uiso   1.00
C696   C     0.85301   0.60032   0.62482   0.00000  Uiso   1.00
C697   C     0.90221   0.58897   0.62915   0.00000  Uiso   1.00
C698   C     0.70326   0.88222   0.38669   0.00000  Uiso   1.00
C699   C     0.66030   0.89962   0.36278   0.00000  Uiso   1.00
C700   C     0.66707   0.91179   0.64181   0.00000  Uiso   1.00
C701   C     0.65895   0.61824   0.42685   0.00000  Uiso   1.00
C702   C     0.64697   0.60032   0.37521   0.00000  Uiso   1.00
C703   C     0.59775   0.58901   0.37090   0.00000  Uiso   1.00
C704   C     0.79674   0.88222   0.61331   0.00000  Uiso   1.00
C705   C     0.83970   0.89962   0.63722   0.00000  Uiso   1.00
C706   C     0.72303   0.89518   0.46812   0.00000  Uiso   1.00
C707   C     0.83293   0.91179   0.35819   0.00000  Uiso   1.00
C708   C     0.72662   0.60478   0.46480   0.00000  Uiso   1.00
C709   C     0.77696   0.89518   0.53188   0.00000  Uiso   1.00
C710   C     0.77150   0.55407   0.53714   0.00000  Uiso   1.00
C711   C     0.72094   0.94590   0.46990   0.00000  Uiso   1.00
C712   C     0.72850   0.55406   0.46286   0.00000  Uiso   1.00
Cu713  Cu    0.75000   0.79821   0.50000   0.00000  Uiso   1.00
Cu714  Cu    0.75000   0.70178   0.50000   0.00000  Uiso   1.00
H715   H     0.53017   0.82256   0.47192   0.00000  Uiso   1.00
H716   H     0.69637   0.96349   0.44736   0.00000  Uiso   1.00
H717   H     0.71303   0.53646   0.43189   0.00000  Uiso   1.00
H718   H     0.80362   0.96349   0.55265   0.00000  Uiso   1.00
H719   H     0.86023   0.65143   0.56579   0.00000  Uiso   1.00
H720   H     0.85166   0.59131   0.54510   0.00000  Uiso   1.00
H721   H     0.84435   0.62831   0.65233   0.00000  Uiso   1.00
H722   H     0.83374   0.56743   0.63332   0.00000  Uiso   1.00
H723   H     0.91140   0.56024   0.60273   0.00000  Uiso   1.00
H724   H     0.90983   0.57639   0.33374   0.00000  Uiso   1.00
H725   H     0.92218   0.62158   0.62154   0.00000  Uiso   1.00
H726   H     0.96943   0.67717   0.47223   0.00000  Uiso   1.00
H727   H     0.71424   0.84948   0.36693   0.00000  Uiso   1.00
H728   H     0.72973   0.90960   0.38106   0.00000  Uiso   1.00
H729   H     0.63477   0.87109   0.36585   0.00000  Uiso   1.00
H730   H     0.64820   0.93206   0.38233   0.00000  Uiso   1.00
H731   H     0.69135   0.94147   0.63800   0.00000  Uiso   1.00
H732   H     0.63519   0.92342   0.62525   0.00000  Uiso   1.00
H733   H     0.67918   0.87984   0.62140   0.00000  Uiso   1.00
H734   H     0.63978   0.65146   0.43422   0.00000  Uiso   1.00
H735   H     0.64833   0.59135   0.45494   0.00000  Uiso   1.00
H736   H     0.65564   0.62828   0.34768   0.00000  Uiso   1.00
H737   H     0.96983   0.82256   0.52808   0.00000  Uiso   1.00
H738   H     0.66621   0.56740   0.36673   0.00000  Uiso   1.00
H739   H     0.58854   0.56032   0.39736   0.00000  Uiso   1.00
H740   H     0.59013   0.57639   0.66633   0.00000  Uiso   1.00
H741   H     0.57781   0.62165   0.37847   0.00000  Uiso   1.00
H742   H     0.78576   0.84948   0.63307   0.00000  Uiso   1.00
H743   H     0.77027   0.90959   0.61894   0.00000  Uiso   1.00
H744   H     0.86523   0.87110   0.63415   0.00000  Uiso   1.00
H745   H     0.85180   0.93206   0.61767   0.00000  Uiso   1.00
H746   H     0.80865   0.94147   0.36200   0.00000  Uiso   1.00
H747   H     0.86481   0.92343   0.37475   0.00000  Uiso   1.00
H748   H     0.53057   0.67717   0.52777   0.00000  Uiso   1.00
H749   H     0.82083   0.87984   0.37860   0.00000  Uiso   1.00
H750   H     0.61069   0.82290   0.47271   0.00000  Uiso   1.00
H751   H     0.88896   0.67693   0.47325   0.00000  Uiso   1.00
H752   H     0.88931   0.82290   0.52728   0.00000  Uiso   1.00
H753   H     0.61104   0.67693   0.52675   0.00000  Uiso   1.00
H754   H     0.78696   0.53646   0.56811   0.00000  Uiso   1.00
N755   N     0.75000   0.62934   0.50000   0.00000  Uiso   1.00
N756   N     0.75000   0.87065   0.50000   0.00000  Uiso   1.00
O757   O     0.68573   0.79071   0.50000   0.00000  Uiso   1.00
O758   O     0.69547   0.86974   0.43666   0.00000  Uiso   1.00
O759   O     0.70446   0.63026   0.42852   0.00000  Uiso   1.00
O760   O     0.80453   0.86974   0.56334   0.00000  Uiso   1.00
O761   O     0.81427   0.70928   0.50000   0.00000  Uiso   1.00
O762   O     0.81427   0.79071   0.50000   0.00000  Uiso   1.00
O763   O     0.68573   0.70928   0.50000   0.00000  Uiso   1.00
O764   O     0.75000   0.79071   0.42946   0.00000  Uiso   1.00
O765   O     0.75000   0.70929   0.57054   0.00000  Uiso   1.00
O766   O     0.75000   0.79071   0.57054   0.00000  Uiso   1.00
O767   O     0.75000   0.70929   0.42946   0.00000  Uiso   1.00
O768   O     0.79555   0.63026   0.57148   0.00000  Uiso   1.00
C769   C     0.16499   0.24999   0.83323   0.00000  Uiso   1.00
C770   C     0.27906   0.44590   0.86343   0.00000  Uiso   1.00
C771   C     0.24999   0.24999   0.74024   0.00000  Uiso   1.00
C772   C     0.25001   0.24999   0.92643   0.00000  Uiso   1.00
C773   C     0.25000   0.02735   0.83334   0.00000  Uiso   1.00
C774   C     0.25000   0.47261   0.83334   0.00000  Uiso   1.00
C775   C     0.25000   0.24996   0.68854   0.00000  Uiso   1.00
C776   C     0.25000   0.24996   0.97813   0.00000  Uiso   1.00
C777   C     0.04750   0.29084   0.81794   0.00000  Uiso   1.00
C778   C     0.45228   0.20893   0.81829   0.00000  Uiso   1.00
C779   C     0.45250   0.29084   0.84873   0.00000  Uiso   1.00
C780   C     0.33501   0.24999   0.83344   0.00000  Uiso   1.00
C781   C     0.04772   0.20893   0.84838   0.00000  Uiso   1.00
C782   C     0.09344   0.29097   0.81817   0.00000  Uiso   1.00
C783   C     0.40636   0.20886   0.81862   0.00000  Uiso   1.00
C784   C     0.40656   0.29097   0.84850   0.00000  Uiso   1.00
C785   C     0.09364   0.20886   0.84804   0.00000  Uiso   1.00
C786   C     0.11675   0.24994   0.83313   0.00000  Uiso   1.00
C787   C     0.38325   0.24994   0.83353   0.00000  Uiso   1.00
C788   C     0.02428   0.24988   0.83324   0.00000  Uiso   1.00
C789   C     0.47572   0.24988   0.83342   0.00000  Uiso   1.00
C790   C     0.34105   0.11823   0.90650   0.00000  Uiso   1.00
C791   C     0.27337   0.10479   0.86853   0.00000  Uiso   1.00
C792   C     0.35301   0.10032   0.95815   0.00000  Uiso   1.00
C793   C     0.40221   0.08897   0.96248   0.00000  Uiso   1.00
C794   C     0.20326   0.38222   0.72003   0.00000  Uiso   1.00
C795   C     0.16030   0.39962   0.69611   0.00000  Uiso   1.00
C796   C     0.16707   0.41179   0.97514   0.00000  Uiso   1.00
C797   C     0.15895   0.11824   0.76018   0.00000  Uiso   1.00
C798   C     0.14697   0.10032   0.70855   0.00000  Uiso   1.00
C799   C     0.09775   0.08901   0.70423   0.00000  Uiso   1.00
C800   C     0.29674   0.38222   0.94664   0.00000  Uiso   1.00
C801   C     0.33970   0.39962   0.97055   0.00000  Uiso   1.00
C802   C     0.22303   0.39518   0.80146   0.00000  Uiso   1.00
C803   C     0.33293   0.41179   0.69152   0.00000  Uiso   1.00
C804   C     0.22662   0.10478   0.79813   0.00000  Uiso   1.00
C805   C     0.27696   0.39518   0.86521   0.00000  Uiso   1.00
C806   C     0.27150   0.05407   0.87048   0.00000  Uiso   1.00
C807   C     0.22094   0.44590   0.80324   0.00000  Uiso   1.00
C808   C     0.22850   0.05406   0.79619   0.00000  Uiso   1.00
Cu809  Cu    0.25000   0.29821   0.83333   0.00000  Uiso   1.00
Cu810  Cu    0.25000   0.20178   0.83333   0.00000  Uiso   1.00
H811   H     0.03017   0.32256   0.80525   0.00000  Uiso   1.00
H812   H     0.19637   0.46349   0.78069   0.00000  Uiso   1.00
H813   H     0.21303   0.03646   0.76523   0.00000  Uiso   1.00
H814   H     0.30362   0.46349   0.88598   0.00000  Uiso   1.00
H815   H     0.36023   0.15143   0.89912   0.00000  Uiso   1.00
H816   H     0.35166   0.09131   0.87843   0.00000  Uiso   1.00
H817   H     0.34435   0.12831   0.98567   0.00000  Uiso   1.00
H818   H     0.33374   0.06743   0.96665   0.00000  Uiso   1.00
H819   H     0.41140   0.06024   0.93606   0.00000  Uiso   1.00
H820   H     0.40983   0.07639   0.66707   0.00000  Uiso   1.00
H821   H     0.42218   0.12158   0.95487   0.00000  Uiso   1.00
H822   H     0.46943   0.17717   0.80556   0.00000  Uiso   1.00
H823   H     0.21424   0.34948   0.70026   0.00000  Uiso   1.00
H824   H     0.22973   0.40960   0.71440   0.00000  Uiso   1.00
H825   H     0.13477   0.37109   0.69918   0.00000  Uiso   1.00
H826   H     0.14820   0.43206   0.71566   0.00000  Uiso   1.00
H827   H     0.19135   0.44147   0.97133   0.00000  Uiso   1.00
H828   H     0.13519   0.42342   0.95858   0.00000  Uiso   1.00
H829   H     0.17918   0.37984   0.95473   0.00000  Uiso   1.00
H830   H     0.13978   0.15146   0.76755   0.00000  Uiso   1.00
H831   H     0.14833   0.09135   0.78827   0.00000  Uiso   1.00
H832   H     0.15564   0.12828   0.68101   0.00000  Uiso   1.00
H833   H     0.46983   0.32256   0.86141   0.00000  Uiso   1.00
H834   H     0.16621   0.06740   0.70007   0.00000  Uiso   1.00
H835   H     0.08854   0.06032   0.73069   0.00000  Uiso   1.00
H836   H     0.09013   0.07639   0.99966   0.00000  Uiso   1.00
H837   H     0.07781   0.12165   0.71181   0.00000  Uiso   1.00
H838   H     0.28576   0.34948   0.96640   0.00000  Uiso   1.00
H839   H     0.27027   0.40959   0.95227   0.00000  Uiso   1.00
H840   H     0.36523   0.37110   0.96748   0.00000  Uiso   1.00
H841   H     0.35180   0.43206   0.95100   0.00000  Uiso   1.00
H842   H     0.30865   0.44147   0.69534   0.00000  Uiso   1.00
H843   H     0.36481   0.42343   0.70808   0.00000  Uiso   1.00
H844   H     0.03057   0.17717   0.86111   0.00000  Uiso   1.00
H845   H     0.32083   0.37984   0.71193   0.00000  Uiso   1.00
H846   H     0.11069   0.32290   0.80605   0.00000  Uiso   1.00
H847   H     0.38896   0.17693   0.80658   0.00000  Uiso   1.00
H848   H     0.38931   0.32290   0.86062   0.00000  Uiso   1.00
H849   H     0.11104   0.17693   0.86009   0.00000  Uiso   1.00
H850   H     0.28696   0.03646   0.90144   0.00000  Uiso   1.00
N851   N     0.25000   0.12934   0.83333   0.00000  Uiso   1.00
N852   N     0.25000   0.37065   0.83333   0.00000  Uiso   1.00
O853   O     0.18573   0.29071   0.83334   0.00000  Uiso   1.00
O854   O     0.19547   0.36974   0.76999   0.00000  Uiso   1.00
O855   O     0.20446   0.13026   0.76185   0.00000  Uiso   1.00
O856   O     0.30453   0.36974   0.89667   0.00000  Uiso   1.00
O857   O     0.31427   0.20928   0.83333   0.00000  Uiso   1.00
O858   O     0.31427   0.29071   0.83333   0.00000  Uiso   1.00
O859   O     0.18573   0.20928   0.83334   0.00000  Uiso   1.00
O860   O     0.25000   0.29071   0.76280   0.00000  Uiso   1.00
O861   O     0.25000   0.20929   0.90387   0.00000  Uiso   1.00
O862   O     0.25000   0.29071   0.90387   0.00000  Uiso   1.00
O863   O     0.25000   0.20929   0.76280   0.00000  Uiso   1.00
O864   O     0.29555   0.13026   0.90481   0.00000  Uiso   1.00
C865   C     0.66499   0.24999   0.83323   0.00000  Uiso   1.00
C866   C     0.77906   0.44590   0.86343   0.00000  Uiso   1.00
C867   C     0.74999   0.24999   0.74024   0.00000  Uiso   1.00
C868   C     0.75001   0.24999   0.92643   0.00000  Uiso   1.00
C869   C     0.75000   0.02735   0.83334   0.00000  Uiso   1.00
C870   C     0.75000   0.47261   0.83334   0.00000  Uiso   1.00
C871   C     0.75000   0.24996   0.68854   0.00000  Uiso   1.00
C872   C     0.75000   0.24996   0.97813   0.00000  Uiso   1.00
C873   C     0.54750   0.29084   0.81794   0.00000  Uiso   1.00
C874   C     0.95228   0.20893   0.81829   0.00000  Uiso   1.00
C875   C     0.95250   0.29084   0.84873   0.00000  Uiso   1.00
C876   C     0.83501   0.24999   0.83344   0.00000  Uiso   1.00
C877   C     0.54772   0.20893   0.84838   0.00000  Uiso   1.00
C878   C     0.59344   0.29097   0.81817   0.00000  Uiso   1.00
C879   C     0.90636   0.20886   0.81862   0.00000  Uiso   1.00
C880   C     0.90656   0.29097   0.84850   0.00000  Uiso   1.00
C881   C     0.59364   0.20886   0.84804   0.00000  Uiso   1.00
C882   C     0.61675   0.24994   0.83313   0.00000  Uiso   1.00
C883   C     0.88325   0.24994   0.83353   0.00000  Uiso   1.00
C884   C     0.52428   0.24988   0.83324   0.00000  Uiso   1.00
C885   C     0.97572   0.24988   0.83342   0.00000  Uiso   1.00
C886   C     0.84105   0.11823   0.90650   0.00000  Uiso   1.00
C887   C     0.77337   0.10479   0.86853   0.00000  Uiso   1.00
C888   C     0.85301   0.10032   0.95815   0.00000  Uiso   1.00
C889   C     0.90221   0.08897   0.96248   0.00000  Uiso   1.00
C890   C     0.70326   0.38222   0.72003   0.00000  Uiso   1.00
C891   C     0.66030   0.39962   0.69611   0.00000  Uiso   1.00
C892   C     0.66707   0.41179   0.97514   0.00000  Uiso   1.00
C893   C     0.65895   0.11824   0.76018   0.00000  Uiso   1.00
C894   C     0.64697   0.10032   0.70855   0.00000  Uiso   1.00
C895   C     0.59775   0.08901   0.70423   0.00000  Uiso   1.00
C896   C     0.79674   0.38222   0.94664   0.00000  Uiso   1.00
C897   C     0.83970   0.39962   0.97055   0.00000  Uiso   1.00
C898   C     0.72303   0.39518   0.80146   0.00000  Uiso   1.00
C899   C     0.83293   0.41179   0.69152   0.00000  Uiso   1.00
C900   C     0.72662   0.10478   0.79813   0.00000  Uiso   1.00
C901   C     0.77696   0.39518   0.86521   0.00000  Uiso   1.00
C902   C     0.77150   0.05407   0.87048   0.00000  Uiso   1.00
C903   C     0.72094   0.44590   0.80324   0.00000  Uiso   1.00
C904   C     0.72850   0.05406   0.79619   0.00000  Uiso   1.00
Cu905  Cu    0.75000   0.29821   0.83333   0.00000  Uiso   1.00
Cu906  Cu    0.75000   0.20178   0.83333   0.00000  Uiso   1.00
H907   H     0.53017   0.32256   0.80525   0.00000  Uiso   1.00
H908   H     0.69637   0.46349   0.78069   0.00000  Uiso   1.00
H909   H     0.71303   0.03646   0.76523   0.00000  Uiso   1.00
H910   H     0.80362   0.46349   0.88598   0.00000  Uiso   1.00
H911   H     0.86023   0.15143   0.89912   0.00000  Uiso   1.00
H912   H     0.85166   0.09131   0.87843   0.00000  Uiso   1.00
H913   H     0.84435   0.12831   0.98567   0.00000  Uiso   1.00
H914   H     0.83374   0.06743   0.96665   0.00000  Uiso   1.00
H915   H     0.91140   0.06024   0.93606   0.00000  Uiso   1.00
H916   H     0.90983   0.07639   0.66707   0.00000  Uiso   1.00
H917   H     0.92218   0.12158   0.95487   0.00000  Uiso   1.00
H918   H     0.96943   0.17717   0.80556   0.00000  Uiso   1.00
H919   H     0.71424   0.34948   0.70026   0.00000  Uiso   1.00
H920   H     0.72973   0.40960   0.71440   0.00000  Uiso   1.00
H921   H     0.63477   0.37109   0.69918   0.00000  Uiso   1.00
H922   H     0.64820   0.43206   0.71566   0.00000  Uiso   1.00
H923   H     0.69135   0.44147   0.97133   0.00000  Uiso   1.00
H924   H     0.63519   0.42342   0.95858   0.00000  Uiso   1.00
H925   H     0.67918   0.37984   0.95473   0.00000  Uiso   1.00
H926   H     0.63978   0.15146   0.76755   0.00000  Uiso   1.00
H927   H     0.64833   0.09135   0.78827   0.00000  Uiso   1.00
H928   H     0.65564   0.12828   0.68101   0.00000  Uiso   1.00
H929   H     0.96983   0.32256   0.86141   0.00000  Uiso   1.00
H930   H     0.66621   0.06740   0.70007   0.00000  Uiso   1.00
H931   H     0.58854   0.06032   0.73069   0.00000  Uiso   1.00
H932   H     0.59013   0.07639   0.99966   0.00000  Uiso   1.00
H933   H     0.57781   0.12165   0.71181   0.00000  Uiso   1.00
H934   H     0.78576   0.34948   0.96640   0.00000  Uiso   1.00
H935   H     0.77027   0.40959   0.95227   0.00000  Uiso   1.00
H936   H     0.86523   0.37110   0.96748   0.00000  Uiso   1.00
H937   H     0.85180   0.43206   0.95100   0.00000  Uiso   1.00
H938   H     0.80865   0.44147   0.69534   0.00000  Uiso   1.00
H939   H     0.86481   0.42343   0.70808   0.00000  Uiso   1.00
H940   H     0.53057   0.17717   0.86111   0.00000  Uiso   1.00
H941   H     0.82083   0.37984   0.71193   0.00000  Uiso   1.00
H942   H     0.61069   0.32290   0.80605   0.00000  Uiso   1.00
H943   H     0.88896   0.17693   0.80658   0.00000  Uiso   1.00
H944   H     0.88931   0.32290   0.86062   0.00000  Uiso   1.00
H945   H     0.61104   0.17693   0.86009   0.00000  Uiso   1.00
H946   H     0.78696   0.03646   0.90144   0.00000  Uiso   1.00
N947   N     0.75000   0.12934   0.83333   0.00000  Uiso   1.00
N948   N     0.75000   0.37065   0.83333   0.00000  Uiso   1.00
O949   O     0.68573   0.29071   0.83334   0.00000  Uiso   1.00
O950   O     0.69547   0.36974   0.76999   0.00000  Uiso   1.00
O951   O     0.70446   0.13026   0.76185   0.00000  Uiso   1.00
O952   O     0.80453   0.36974   0.89667   0.00000  Uiso   1.00
O953   O     0.81427   0.20928   0.83333   0.00000  Uiso   1.00
O954   O     0.81427   0.29071   0.83333   0.00000  Uiso   1.00
O955   O     0.68573   0.20928   0.83334   0.00000  Uiso   1.00
O956   O     0.75000   0.29071   0.76280   0.00000  Uiso   1.00
O957   O     0.75000   0.20929   0.90387   0.00000  Uiso   1.00
O958   O     0.75000   0.29071   0.90387   0.00000  Uiso   1.00
O959   O     0.75000   0.20929   0.76280   0.00000  Uiso   1.00
O960   O     0.79555   0.13026   0.90481   0.00000  Uiso   1.00
C961   C     0.16499   0.74999   0.83323   0.00000  Uiso   1.00
C962   C     0.27906   0.94590   0.86343   0.00000  Uiso   1.00
C963   C     0.24999   0.74999   0.74024   0.00000  Uiso   1.00
C964   C     0.25001   0.74999   0.92643   0.00000  Uiso   1.00
C965   C     0.25000   0.52735   0.83334   0.00000  Uiso   1.00
C966   C     0.25000   0.97261   0.83334   0.00000  Uiso   1.00
C967   C     0.25000   0.74996   0.68854   0.00000  Uiso   1.00
C968   C     0.25000   0.74996   0.97813   0.00000  Uiso   1.00
C969   C     0.04750   0.79084   0.81794   0.00000  Uiso   1.00
C970   C     0.45228   0.70893   0.81829   0.00000  Uiso   1.00
C971   C     0.45250   0.79084   0.84873   0.00000  Uiso   1.00
C972   C     0.33501   0.74999   0.83344   0.00000  Uiso   1.00
C973   C     0.04772   0.70893   0.84838   0.00000  Uiso   1.00
C974   C     0.09344   0.79097   0.81817   0.00000  Uiso   1.00
C975   C     0.40636   0.70886   0.81862   0.00000  Uiso   1.00
C976   C     0.40656   0.79097   0.84850   0.00000  Uiso   1.00
C977   C     0.09364   0.70886   0.84804   0.00000  Uiso   1.00
C978   C     0.11675   0.74994   0.83313   0.00000  Uiso   1.00
C979   C     0.38325   0.74994   0.83353   0.00000  Uiso   1.00
C980   C     0.02428   0.74988   0.83324   0.00000  Uiso   1.00
C981   C     0.47572   0.74988   0.83342   0.00000  Uiso   1.00
C982   C     0.34105   0.61823   0.90650   0.00000  Uiso   1.00
C983   C     0.27337   0.60479   0.86853   0.00000  Uiso   1.00
C984   C     0.35301   0.60032   0.95815   0.00000  Uiso   1.00
C985   C     0.40221   0.58897   0.96248   0.00000  Uiso   1.00
C986   C     0.20326   0.88222   0.72003   0.00000  Uiso   1.00
C987   C     0.16030   0.89962   0.69611   0.00000  Uiso   1.00
C988   C     0.16707   0.91179   0.97514   0.00000  Uiso   1.00
C989   C     0.15895   0.61824   0.76018   0.00000  Uiso   1.00
C990   C     0.14697   0.60032   0.70855   0.00000  Uiso   1.00
C991   C     0.09775   0.58901   0.70423   0.00000  Uiso   1.00
C992   C     0.29674   0.88222   0.94664   0.00000  Uiso   1.00
C993   C     0.33970   0.89962   0.97055   0.00000  Uiso   1.00
C994   C     0.22303   0.89518   0.80146   0.00000  Uiso   1.00
C995   C     0.33293   0.91179   0.69152   0.00000  Uiso   1.00
C996   C     0.22662   0.60478   0.79813   0.00000  Uiso   1.00
C997   C     0.27696   0.89518   0.86521   0.00000  Uiso   1.00
C998   C     0.27150   0.55407   0.87048   0.00000  Uiso   1.00
C999   C     0.22094   0.94590   0.80324   0.00000  Uiso   1.00
C1000  C     0.22850   0.55406   0.79619   0.00000  Uiso   1.00
Cu1001 Cu    0.25000   0.79821   0.83333   0.00000  Uiso   1.00
Cu1002 Cu    0.25000   0.70178   0.83333   0.00000  Uiso   1.00
H1003  H     0.03017   0.82256   0.80525   0.00000  Uiso   1.00
H1004  H     0.19637   0.96349   0.78069   0.00000  Uiso   1.00
H1005  H     0.21303   0.53646   0.76523   0.00000  Uiso   1.00
H1006  H     0.30362   0.96349   0.88598   0.00000  Uiso   1.00
H1007  H     0.36023   0.65143   0.89912   0.00000  Uiso   1.00
H1008  H     0.35166   0.59131   0.87843   0.00000  Uiso   1.00
H1009  H     0.34435   0.62831   0.98567   0.00000  Uiso   1.00
H1010  H     0.33374   0.56743   0.96665   0.00000  Uiso   1.00
H1011  H     0.41140   0.56024   0.93606   0.00000  Uiso   1.00
H1012  H     0.40983   0.57639   0.66707   0.00000  Uiso   1.00
H1013  H     0.42218   0.62158   0.95487   0.00000  Uiso   1.00
H1014  H     0.46943   0.67717   0.80556   0.00000  Uiso   1.00
H1015  H     0.21424   0.84948   0.70026   0.00000  Uiso   1.00
H1016  H     0.22973   0.90960   0.71440   0.00000  Uiso   1.00
H1017  H     0.13477   0.87109   0.69918   0.00000  Uiso   1.00
H1018  H     0.14820   0.93206   0.71566   0.00000  Uiso   1.00
H1019  H     0.19135   0.94147   0.97133   0.00000  Uiso   1.00
H1020  H     0.13519   0.92342   0.95858   0.00000  Uiso   1.00
H1021  H     0.17918   0.87984   0.95473   0.00000  Uiso   1.00
H1022  H     0.13978   0.65146   0.76755   0.00000  Uiso   1.00
H1023  H     0.14833   0.59135   0.78827   0.00000  Uiso   1.00
H1024  H     0.15564   0.62828   0.68101   0.00000  Uiso   1.00
H1025  H     0.46983   0.82256   0.86141   0.00000  Uiso   1.00
H1026  H     0.16621   0.56740   0.70007   0.00000  Uiso   1.00
H1027  H     0.08854   0.56032   0.73069   0.00000  Uiso   1.00
H1028  H     0.09013   0.57639   0.99966   0.00000  Uiso   1.00
H1029  H     0.07781   0.62165   0.71181   0.00000  Uiso   1.00
H1030  H     0.28576   0.84948   0.96640   0.00000  Uiso   1.00
H1031  H     0.27027   0.90959   0.95227   0.00000  Uiso   1.00
H1032  H     0.36523   0.87110   0.96748   0.00000  Uiso   1.00
H1033  H     0.35180   0.93206   0.95100   0.00000  Uiso   1.00
H1034  H     0.30865   0.94147   0.69534   0.00000  Uiso   1.00
H1035  H     0.36481   0.92343   0.70808   0.00000  Uiso   1.00
H1036  H     0.03057   0.67717   0.86111   0.00000  Uiso   1.00
H1037  H     0.32083   0.87984   0.71193   0.00000  Uiso   1.00
H1038  H     0.11069   0.82290   0.80605   0.00000  Uiso   1.00
H1039  H     0.38896   0.67693   0.80658   0.00000  Uiso   1.00
H1040  H     0.38931   0.82290   0.86062   0.00000  Uiso   1.00
H1041  H     0.11104   0.67693   0.86009   0.00000  Uiso   1.00
H1042  H     0.28696   0.53646   0.90144   0.00000  Uiso   1.00
N1043  N     0.25000   0.62934   0.83333   0.00000  Uiso   1.00
N1044  N     0.25000   0.87065   0.83333   0.00000  Uiso   1.00
O1045  O     0.18573   0.79071   0.83334   0.00000  Uiso   1.00
O1046  O     0.19547   0.86974   0.76999   0.00000  Uiso   1.00
O1047  O     0.20446   0.63026   0.76185   0.00000  Uiso   1.00
O1048  O     0.30453   0.86974   0.89667   0.00000  Uiso   1.00
O1049  O     0.31427   0.70928   0.83333   0.00000  Uiso   1.00
O1050  O     0.31427   0.79071   0.83333   0.00000  Uiso   1.00
O1051  O     0.18573   0.70928   0.83334   0.00000  Uiso   1.00
O1052  O     0.25000   0.79071   0.76280   0.00000  Uiso   1.00
O1053  O     0.25000   0.70929   0.90387   0.00000  Uiso   1.00
O1054  O     0.25000   0.79071   0.90387   0.00000  Uiso   1.00
O1055  O     0.25000   0.70929   0.76280   0.00000  Uiso   1.00
O1056  O     0.29555   0.63026   0.90481   0.00000  Uiso   1.00
C1057  C     0.66499   0.74999   0.83323   0.00000  Uiso   1.00
C1058  C     0.77906   0.94590   0.86343   0.00000  Uiso   1.00
C1059  C     0.74999   0.74999   0.74024   0.00000  Uiso   1.00
C1060  C     0.75001   0.74999   0.92643   0.00000  Uiso   1.00
C1061  C     0.75000   0.52735   0.83334   0.00000  Uiso   1.00
C1062  C     0.75000   0.97261   0.83334   0.00000  Uiso   1.00
C1063  C     0.75000   0.74996   0.68854   0.00000  Uiso   1.00
C1064  C     0.75000   0.74996   0.97813   0.00000  Uiso   1.00
C1065  C     0.54750   0.79084   0.81794   0.00000  Uiso   1.00
C1066  C     0.95228   0.70893   0.81829   0.00000  Uiso   1.00
C1067  C     0.95250   0.79084   0.84873   0.00000  Uiso   1.00
C1068  C     0.83501   0.74999   0.83344   0.00000  Uiso   1.00
C1069  C     0.54772   0.70893   0.84838   0.00000  Uiso   1.00
C1070  C     0.59344   0.79097   0.81817   0.00000  Uiso   1.00
C1071  C     0.90636   0.70886   0.81862   0.00000  Uiso   1.00
C1072  C     0.90656   0.79097   0.84850   0.00000  Uiso   1.00
C1073  C     0.59364   0.70886   0.84804   0.00000  Uiso   1.00
C1074  C     0.61675   0.74994   0.83313   0.00000  Uiso   1.00
C1075  C     0.88325   0.74994   0.83353   0.00000  Uiso   1.00
C1076  C     0.52428   0.74988   0.83324   0.00000  Uiso   1.00
C1077  C     0.97572   0.74988   0.83342   0.00000  Uiso   1.00
C1078  C     0.84105   0.61823   0.90650   0.00000  Uiso   1.00
C1079  C     0.77337   0.60479   0.86853   0.00000  Uiso   1.00
C1080  C     0.85301   0.60032   0.95815   0.00000  Uiso   1.00
C1081  C     0.90221   0.58897   0.96248   0.00000  Uiso   1.00
C1082  C     0.70326   0.88222   0.72003   0.00000  Uiso   1.00
C1083  C     0.66030   0.89962   0.69611   0.00000  Uiso   1.00
C1084  C     0.66707   0.91179   0.97514   0.00000  Uiso   1.00
C1085  C     0.65895   0.61824   0.76018   0.00000  Uiso   1.00
C1086  C     0.64697   0.60032   0.70855   0.00000  Uiso   1.00
C1087  C     0.59775   0.58901   0.70423   0.00000  Uiso   1.00
C1088  C     0.79674   0.88222   0.94664   0.00000  Uiso   1.00
C1089  C     0.83970   0.89962   0.97055   0.00000  Uiso   1.00
C1090  C     0.72303   0.89518   0.80146   0.00000  Uiso   1.00
C1091  C     0.83293   0.91179   0.69152   0.00000  Uiso   1.00
C1092  C     0.72662   0.60478   0.79813   0.00000  Uiso   1.00
C1093  C     0.77696   0.89518   0.86521   0.00000  Uiso   1.00
C1094  C     0.77150   0.55407   0.87048   0.00000  Uiso   1.00
C1095  C     0.72094   0.94590   0.80324   0.00000  Uiso   1.00
C1096  C     0.72850   0.55406   0.79619   0.00000  Uiso   1.00
Cu1097 Cu    0.75000   0.79821   0.83333   0.00000  Uiso   1.00
Cu1098 Cu    0.75000   0.70178   0.83333   0.00000  Uiso   1.00
H1099  H     0.53017   0.82256   0.80525   0.00000  Uiso   1.00
H1100  H     0.69637   0.96349   0.78069   0.00000  Uiso   1.00
H1101  H     0.71303   0.53646   0.76523   0.00000  Uiso   1.00
H1102  H     0.80362   0.96349   0.88598   0.00000  Uiso   1.00
H1103  H     0.86023   0.65143   0.89912   0.00000  Uiso   1.00
H1104  H     0.85166   0.59131   0.87843   0.00000  Uiso   1.00
H1105  H     0.84435   0.62831   0.98567   0.00000  Uiso   1.00
H1106  H     0.83374   0.56743   0.96665   0.00000  Uiso   1.00
H1107  H     0.91140   0.56024   0.93606   0.00000  Uiso   1.00
H1108  H     0.90983   0.57639   0.66707   0.00000  Uiso   1.00
H1109  H     0.92218   0.62158   0.95487   0.00000  Uiso   1.00
H1110  H     0.96943   0.67717   0.80556   0.00000  Uiso   1.00
H1111  H     0.71424   0.84948   0.70026   0.00000  Uiso   1.00
H1112  H     0.72973   0.90960   0.71440   0.00000  Uiso   1.00
H1113  H     0.63477   0.87109   0.69918   0.00000  Uiso   1.00
H1114  H     0.64820   0.93206   0.71566   0.00000  Uiso   1.00
H1115  H     0.69135   0.94147   0.97133   0.00000  Uiso   1.00
H1116  H     0.63519   0.92342   0.95858   0.00000  Uiso   1.00
H1117  H     0.67918   0.87984   0.95473   0.00000  Uiso   1.00
H1118  H     0.63978   0.65146   0.76755   0.00000  Uiso   1.00
H1119  H     0.64833   0.59135   0.78827   0.00000  Uiso   1.00
H1120  H     0.65564   0.62828   0.68101   0.00000  Uiso   1.00
H1121  H     0.96983   0.82256   0.86141   0.00000  Uiso   1.00
H1122  H     0.66621   0.56740   0.70007   0.00000  Uiso   1.00
H1123  H     0.58854   0.56032   0.73069   0.00000  Uiso   1.00
H1124  H     0.59013   0.57639   0.99966   0.00000  Uiso   1.00
H1125  H     0.57781   0.62165   0.71181   0.00000  Uiso   1.00
H1126  H     0.78576   0.84948   0.96640   0.00000  Uiso   1.00
H1127  H     0.77027   0.90959   0.95227   0.00000  Uiso   1.00
H1128  H     0.86523   0.87110   0.96748   0.00000  Uiso   1.00
H1129  H     0.85180   0.93206   0.95100   0.00000  Uiso   1.00
H1130  H     0.80865   0.94147   0.69534   0.00000  Uiso   1.00
H1131  H     0.86481   0.92343   0.70808   0.00000  Uiso   1.00
H1132  H     0.53057   0.67717   0.86111   0.00000  Uiso   1.00
H1133  H     0.82083   0.87984   0.71193   0.00000  Uiso   1.00
H1134  H     0.61069   0.82290   0.80605   0.00000  Uiso   1.00
H1135  H     0.88896   0.67693   0.80658   0.00000  Uiso   1.00
H1136  H     0.88931   0.82290   0.86062   0.00000  Uiso   1.00
H1137  H     0.61104   0.67693   0.86009   0.00000  Uiso   1.00
H1138  H     0.78696   0.53646   0.90144   0.00000  Uiso   1.00
N1139  N     0.75000   0.62934   0.83333   0.00000  Uiso   1.00
N1140  N     0.75000   0.87065   0.83333   0.00000  Uiso   1.00
O1141  O     0.68573   0.79071   0.83334   0.00000  Uiso   1.00
O1142  O     0.69547   0.86974   0.76999   0.00000  Uiso   1.00
O1143  O     0.70446   0.63026   0.76185   0.00000  Uiso   1.00
O1144  O     0.80453   0.86974   0.89667   0.00000  Uiso   1.00
O1145  O     0.81427   0.70928   0.83333   0.00000  Uiso   1.00
O1146  O     0.81427   0.79071   0.83333   0.00000  Uiso   1.00
O1147  O     0.68573   0.70928   0.83334   0.00000  Uiso   1.00
O1148  O     0.75000   0.79071   0.76280   0.00000  Uiso   1.00
O1149  O     0.75000   0.70929   0.90387   0.00000  Uiso   1.00
O1150  O     0.75000   0.79071   0.90387   0.00000  Uiso   1.00
O1151  O     0.75000   0.70929   0.76280   0.00000  Uiso   1.00
O1152  O     0.79555   0.63026   0.90481   0.00000  Uiso   1.00
loop_
_geom_bond_atom_site_label_1
_geom_bond_atom_site_label_2
_geom_bond_distance
_geom_bond_site_symmetry_2
_ccdc_geom_bond_type
C1     O91     1.296   .     A
C1     O85     1.296   .     A
C1     C18     1.460   .     S
C2     C6      1.409   .     A
C2     H46     1.078   .     S
C2     C37     1.415   .     A
C3     C7      1.403   .     S
C3     O92     1.289   .     A
C3     O95     1.289   .     A
C4     C8      1.403   .     S
C4     O94     1.289   .     A
C4     O93     1.289   .     A
C5     C38     1.409   .     A
C5     C40     1.409   .     A
C5     C198    1.525   1_545 S
C6     C39     1.409   .     A
C6     C197    1.525   .     S
C7     C776    1.187   1_554 S
C8     C391    1.187   .     S
C9     H43     1.083   .     S
C9     C14     1.390   .     A
C9     C20     1.404   .     A
C10    C15     1.390   .     A
C10    C21     1.404   .     A
C10    H54     1.083   .     S
C11    C21     1.404   .     A
C11    C16     1.390   .     A
C11    H65     1.083   .     S
C12    O90     1.296   .     A
C12    O89     1.296   .     A
C12    C19     1.460   .     S
C13    H76     1.083   .     S
C13    C20     1.404   .     A
C13    C17     1.390   .     A
C14    C18     1.402   .     A
C14    H78     1.083   .     S
C15    C19     1.402   .     A
C15    H79     1.083   .     S
C16    H80     1.083   .     S
C16    C19     1.402   .     A
C17    C18     1.402   .     A
C17    H81     1.083   .     S
C20    C117    1.470   1_455 S
C21    C116    1.470   .     S
C22    H48     1.117   .     S
C22    H47     1.111   .     S
C22    C24     1.530   .     S
C22    O96     1.417   .     S
C23    O96     1.384   .     S
C23    N83     1.369   .     A
C23    C38     1.415   .     A
C24    H50     1.111   .     S
C24    C25     1.526   .     S
C24    H49     1.112   .     S
C25    H53     1.111   .     S
C25    H51     1.111   .     S
C25    H436    1.110   .     S
C26    H55     1.110   .     S
C26    C27     1.529   .     S
C26    O86     1.421   .     S
C26    H56     1.117   .     S
C27    H57     1.112   .     S
C27    H58     1.111   .     S
C27    C796    1.527   1_554 S
C28    H61     1.111   .     S
C28    H60     1.110   .     S
C28    H59     1.111   .     S
C28    C411    1.527   .     S
C29    H63     1.117   .     S
C29    C30     1.530   .     S
C29    H62     1.111   .     S
C29    O87     1.417   .     S
C30    H64     1.112   .     S
C30    C31     1.526   .     S
C30    H66     1.111   .     S
C31    H67     1.111   .     S
C31    H69     1.111   .     S
C31    H836    1.110   1_554 S
C32    O88     1.421   .     S
C32    H71     1.117   .     S
C32    H70     1.110   .     S
C32    C33     1.529   .     S
C33    H72     1.112   .     S
C33    H73     1.111   .     S
C33    C419    1.527   .     S
C34    O86     1.386   .     S
C34    N84     1.369   .     A
C34    C39     1.415   .     A
C35    H74     1.111   .     S
C35    H75     1.110   .     S
C35    H77     1.111   .     S
C35    C801    1.527   1_554 S
C36    N83     1.369   .     A
C36    C40     1.415   .     A
C36    O87     1.384   .     S
C37    O88     1.386   .     S
C37    N84     1.369   .     A
C38    H82     1.078   .     S
C39    H44     1.078   .     S
C40    H45     1.078   .     S
Cu41   Cu42    2.686   .     S
Cu41   N84     2.018   .     S
Cu41   O94     1.926   .     S
Cu41   O85     1.956   .     S
Cu41   O90     1.956   .     S
Cu41   O92     1.926   .     S
Cu42   O93     1.926   .     S
Cu42   O91     1.956   .     S
Cu42   O95     1.926   .     S
Cu42   N83     2.018   .     S
Cu42   O89     1.956   .     S
H52    C793    1.110   1_554 S
H68    C415    1.110   .     S
C97    O187    1.296   .     A
C97    O181    1.296   .     A
C97    C114    1.460   .     S
C98    C102    1.409   .     A
C98    H142    1.078   .     S
C98    C133    1.415   .     A
C99    C103    1.403   .     S
C99    O188    1.289   .     A
C99    O191    1.289   .     A
C100   C104    1.403   .     S
C100   O190    1.289   .     A
C100   O189    1.289   .     A
C101   C134    1.409   .     A
C101   C136    1.409   .     A
C101   C294    1.525   1_545 S
C102   C135    1.409   .     A
C102   C293    1.525   .     S
C103   C872    1.187   1_554 S
C104   C487    1.187   .     S
C105   H139    1.083   .     S
C105   C110    1.390   .     A
C105   C116    1.404   .     A
C106   C111    1.390   .     A
C106   C117    1.404   .     A
C106   H150    1.083   .     S
C107   C117    1.404   .     A
C107   C112    1.390   .     A
C107   H161    1.083   .     S
C108   O186    1.296   .     A
C108   O185    1.296   .     A
C108   C115    1.460   .     S
C109   H172    1.083   .     S
C109   C116    1.404   .     A
C109   C113    1.390   .     A
C110   C114    1.402   .     A
C110   H174    1.083   .     S
C111   C115    1.402   .     A
C111   H175    1.083   .     S
C112   H176    1.083   .     S
C112   C115    1.402   .     A
C113   C114    1.402   .     A
C113   H177    1.083   .     S
C117   C20     1.470   1_655 S
C118   H144    1.117   .     S
C118   H143    1.111   .     S
C118   C120    1.530   .     S
C118   O192    1.417   .     S
C119   O192    1.384   .     S
C119   N179    1.369   .     A
C119   C134    1.415   .     A
C120   H146    1.111   .     S
C120   C121    1.526   .     S
C120   H145    1.112   .     S
C121   H149    1.111   .     S
C121   H147    1.111   .     S
C121   H532    1.110   .     S
C122   H151    1.110   .     S
C122   C123    1.529   .     S
C122   O182    1.421   .     S
C122   H152    1.117   .     S
C123   H153    1.112   .     S
C123   H154    1.111   .     S
C123   C892    1.527   1_554 S
C124   H157    1.111   .     S
C124   H156    1.110   .     S
C124   H155    1.111   .     S
C124   C507    1.527   .     S
C125   H159    1.117   .     S
C125   C126    1.530   .     S
C125   H158    1.111   .     S
C125   O183    1.417   .     S
C126   H160    1.112   .     S
C126   C127    1.526   .     S
C126   H162    1.111   .     S
C127   H163    1.111   .     S
C127   H165    1.111   .     S
C127   H932    1.110   1_554 S
C128   O184    1.421   .     S
C128   H167    1.117   .     S
C128   H166    1.110   .     S
C128   C129    1.529   .     S
C129   H168    1.112   .     S
C129   H169    1.111   .     S
C129   C515    1.527   .     S
C130   O182    1.386   .     S
C130   N180    1.369   .     A
C130   C135    1.415   .     A
C131   H170    1.111   .     S
C131   H171    1.110   .     S
C131   H173    1.111   .     S
C131   C897    1.527   1_554 S
C132   N179    1.369   .     A
C132   C136    1.415   .     A
C132   O183    1.384   .     S
C133   O184    1.386   .     S
C133   N180    1.369   .     A
C134   H178    1.078   .     S
C135   H140    1.078   .     S
C136   H141    1.078   .     S
Cu137  Cu138   2.686   .     S
Cu137  N180    2.018   .     S
Cu137  O190    1.926   .     S
Cu137  O181    1.956   .     S
Cu137  O186    1.956   .     S
Cu137  O188    1.926   .     S
Cu138  O189    1.926   .     S
Cu138  O187    1.956   .     S
Cu138  O191    1.926   .     S
Cu138  N179    2.018   .     S
Cu138  O185    1.956   .     S
H148   C889    1.110   1_554 S
H164   C511    1.110   .     S
C193   O283    1.296   .     A
C193   O277    1.296   .     A
C193   C210    1.460   .     S
C194   C198    1.409   .     A
C194   H238    1.078   .     S
C194   C229    1.415   .     A
C195   C199    1.403   .     S
C195   O284    1.289   .     A
C195   O287    1.289   .     A
C196   C200    1.403   .     S
C196   O286    1.289   .     A
C196   O285    1.289   .     A
C197   C230    1.409   .     A
C197   C232    1.409   .     A
C198   C231    1.409   .     A
C198   C5      1.525   1_565 S
C199   C968    1.187   1_554 S
C200   C583    1.187   .     S
C201   H235    1.083   .     S
C201   C206    1.390   .     A
C201   C212    1.404   .     A
C202   C207    1.390   .     A
C202   C213    1.404   .     A
C202   H246    1.083   .     S
C203   C213    1.404   .     A
C203   C208    1.390   .     A
C203   H257    1.083   .     S
C204   O282    1.296   .     A
C204   O281    1.296   .     A
C204   C211    1.460   .     S
C205   H268    1.083   .     S
C205   C212    1.404   .     A
C205   C209    1.390   .     A
C206   C210    1.402   .     A
C206   H270    1.083   .     S
C207   C211    1.402   .     A
C207   H271    1.083   .     S
C208   H272    1.083   .     S
C208   C211    1.402   .     A
C209   C210    1.402   .     A
C209   H273    1.083   .     S
C212   C309    1.470   1_455 S
C213   C308    1.470   .     S
C214   H240    1.117   .     S
C214   H239    1.111   .     S
C214   C216    1.530   .     S
C214   O288    1.417   .     S
C215   O288    1.384   .     S
C215   N275    1.369   .     A
C215   C230    1.415   .     A
C216   H242    1.111   .     S
C216   C217    1.526   .     S
C216   H241    1.112   .     S
C217   H245    1.111   .     S
C217   H243    1.111   .     S
C217   H628    1.110   .     S
C218   H247    1.110   .     S
C218   C219    1.529   .     S
C218   O278    1.421   .     S
C218   H248    1.117   .     S
C219   H249    1.112   .     S
C219   H250    1.111   .     S
C219   C988    1.527   1_554 S
C220   H253    1.111   .     S
C220   H252    1.110   .     S
C220   H251    1.111   .     S
C220   C603    1.527   .     S
C221   H255    1.117   .     S
C221   C222    1.530   .     S
C221   H254    1.111   .     S
C221   O279    1.417   .     S
C222   H256    1.112   .     S
C222   C223    1.526   .     S
C222   H258    1.111   .     S
C223   H259    1.111   .     S
C223   H261    1.111   .     S
C223   H1028   1.110   1_554 S
C224   O280    1.421   .     S
C224   H263    1.117   .     S
C224   H262    1.110   .     S
C224   C225    1.529   .     S
C225   H264    1.112   .     S
C225   H265    1.111   .     S
C225   C611    1.527   .     S
C226   O278    1.386   .     S
C226   N276    1.369   .     A
C226   C231    1.415   .     A
C227   H266    1.111   .     S
C227   H267    1.110   .     S
C227   H269    1.111   .     S
C227   C993    1.527   1_554 S
C228   N275    1.369   .     A
C228   C232    1.415   .     A
C228   O279    1.384   .     S
C229   O280    1.386   .     S
C229   N276    1.369   .     A
C230   H274    1.078   .     S
C231   H236    1.078   .     S
C232   H237    1.078   .     S
Cu233  Cu234   2.686   .     S
Cu233  N276    2.018   .     S
Cu233  O286    1.926   .     S
Cu233  O277    1.956   .     S
Cu233  O282    1.956   .     S
Cu233  O284    1.926   .     S
Cu234  O285    1.926   .     S
Cu234  O283    1.956   .     S
Cu234  O287    1.926   .     S
Cu234  N275    2.018   .     S
Cu234  O281    1.956   .     S
H244   C985    1.110   1_554 S
H260   C607    1.110   .     S
C289   O379    1.296   .     A
C289   O373    1.296   .     A
C289   C306    1.460   .     S
C290   C294    1.409   .     A
C290   H334    1.078   .     S
C290   C325    1.415   .     A
C291   C295    1.403   .     S
C291   O380    1.289   .     A
C291   O383    1.289   .     A
C292   C296    1.403   .     S
C292   O382    1.289   .     A
C292   O381    1.289   .     A
C293   C326    1.409   .     A
C293   C328    1.409   .     A
C294   C327    1.409   .     A
C294   C101    1.525   1_565 S
C295   C1064   1.187   1_554 S
C296   C679    1.187   .     S
C297   H331    1.083   .     S
C297   C302    1.390   .     A
C297   C308    1.404   .     A
C298   C303    1.390   .     A
C298   C309    1.404   .     A
C298   H342    1.083   .     S
C299   C309    1.404   .     A
C299   C304    1.390   .     A
C299   H353    1.083   .     S
C300   O378    1.296   .     A
C300   O377    1.296   .     A
C300   C307    1.460   .     S
C301   H364    1.083   .     S
C301   C308    1.404   .     A
C301   C305    1.390   .     A
C302   C306    1.402   .     A
C302   H366    1.083   .     S
C303   C307    1.402   .     A
C303   H367    1.083   .     S
C304   H368    1.083   .     S
C304   C307    1.402   .     A
C305   C306    1.402   .     A
C305   H369    1.083   .     S
C309   C212    1.470   1_655 S
C310   H336    1.117   .     S
C310   H335    1.111   .     S
C310   C312    1.530   .     S
C310   O384    1.417   .     S
C311   O384    1.384   .     S
C311   N371    1.369   .     A
C311   C326    1.415   .     A
C312   H338    1.111   .     S
C312   C313    1.526   .     S
C312   H337    1.112   .     S
C313   H341    1.111   .     S
C313   H339    1.111   .     S
C313   H724    1.110   .     S
C314   H343    1.110   .     S
C314   C315    1.529   .     S
C314   O374    1.421   .     S
C314   H344    1.117   .     S
C315   H345    1.112   .     S
C315   H346    1.111   .     S
C315   C1084   1.527   1_554 S
C316   H349    1.111   .     S
C316   H348    1.110   .     S
C316   H347    1.111   .     S
C316   C699    1.527   .     S
C317   H351    1.117   .     S
C317   C318    1.530   .     S
C317   H350    1.111   .     S
C317   O375    1.417   .     S
C318   H352    1.112   .     S
C318   C319    1.526   .     S
C318   H354    1.111   .     S
C319   H355    1.111   .     S
C319   H357    1.111   .     S
C319   H1124   1.110   1_554 S
C320   O376    1.421   .     S
C320   H359    1.117   .     S
C320   H358    1.110   .     S
C320   C321    1.529   .     S
C321   H360    1.112   .     S
C321   H361    1.111   .     S
C321   C707    1.527   .     S
C322   O374    1.386   .     S
C322   N372    1.369   .     A
C322   C327    1.415   .     A
C323   H362    1.111   .     S
C323   H363    1.110   .     S
C323   H365    1.111   .     S
C323   C1089   1.527   1_554 S
C324   N371    1.369   .     A
C324   C328    1.415   .     A
C324   O375    1.384   .     S
C325   O376    1.386   .     S
C325   N372    1.369   .     A
C326   H370    1.078   .     S
C327   H332    1.078   .     S
C328   H333    1.078   .     S
Cu329  Cu330   2.686   .     S
Cu329  N372    2.018   .     S
Cu329  O382    1.926   .     S
Cu329  O373    1.956   .     S
Cu329  O378    1.956   .     S
Cu329  O380    1.926   .     S
Cu330  O381    1.926   .     S
Cu330  O379    1.956   .     S
Cu330  O383    1.926   .     S
Cu330  N371    2.018   .     S
Cu330  O377    1.956   .     S
H340   C1081   1.110   1_554 S
H356   C703    1.110   .     S
C385   O475    1.296   .     A
C385   O469    1.296   .     A
C385   C402    1.460   .     S
C386   C390    1.409   .     A
C386   H430    1.078   .     S
C386   C421    1.415   .     A
C387   C391    1.403   .     S
C387   O476    1.289   .     A
C387   O479    1.289   .     A
C388   C392    1.403   .     S
C388   O478    1.289   .     A
C388   O477    1.289   .     A
C389   C422    1.409   .     A
C389   C424    1.409   .     A
C389   C582    1.525   1_545 S
C390   C423    1.409   .     A
C390   C581    1.525   .     S
C392   C775    1.187   .     S
C393   H427    1.083   .     S
C393   C398    1.390   .     A
C393   C404    1.404   .     A
C394   C399    1.390   .     A
C394   C405    1.404   .     A
C394   H438    1.083   .     S
C395   C405    1.404   .     A
C395   C400    1.390   .     A
C395   H449    1.083   .     S
C396   O474    1.296   .     A
C396   O473    1.296   .     A
C396   C403    1.460   .     S
C397   H460    1.083   .     S
C397   C404    1.404   .     A
C397   C401    1.390   .     A
C398   C402    1.402   .     A
C398   H462    1.083   .     S
C399   C403    1.402   .     A
C399   H463    1.083   .     S
C400   H464    1.083   .     S
C400   C403    1.402   .     A
C401   C402    1.402   .     A
C401   H465    1.083   .     S
C404   C501    1.470   1_455 S
C405   C500    1.470   .     S
C406   H432    1.117   .     S
C406   H431    1.111   .     S
C406   C408    1.530   .     S
C406   O480    1.417   .     S
C407   O480    1.384   .     S
C407   N467    1.369   .     A
C407   C422    1.415   .     A
C408   H434    1.111   .     S
C408   C409    1.526   .     S
C408   H433    1.112   .     S
C409   H437    1.111   .     S
C409   H435    1.111   .     S
C409   H820    1.110   .     S
C410   H439    1.110   .     S
C410   C411    1.529   .     S
C410   O470    1.421   .     S
C410   H440    1.117   .     S
C411   H441    1.112   .     S
C411   H442    1.111   .     S
C412   H445    1.111   .     S
C412   H444    1.110   .     S
C412   H443    1.111   .     S
C412   C795    1.527   .     S
C413   H447    1.117   .     S
C413   C414    1.530   .     S
C413   H446    1.111   .     S
C413   O471    1.417   .     S
C414   H448    1.112   .     S
C414   C415    1.526   .     S
C414   H450    1.111   .     S
C415   H451    1.111   .     S
C415   H453    1.111   .     S
C416   O472    1.421   .     S
C416   H455    1.117   .     S
C416   H454    1.110   .     S
C416   C417    1.529   .     S
C417   H456    1.112   .     S
C417   H457    1.111   .     S
C417   C803    1.527   .     S
C418   O470    1.386   .     S
C418   N468    1.369   .     A
C418   C423    1.415   .     A
C419   H458    1.111   .     S
C419   H459    1.110   .     S
C419   H461    1.111   .     S
C420   N467    1.369   .     A
C420   C424    1.415   .     A
C420   O471    1.384   .     S
C421   O472    1.386   .     S
C421   N468    1.369   .     A
C422   H466    1.078   .     S
C423   H428    1.078   .     S
C424   H429    1.078   .     S
Cu425  Cu426   2.686   .     S
Cu425  N468    2.018   .     S
Cu425  O478    1.926   .     S
Cu425  O469    1.956   .     S
Cu425  O474    1.956   .     S
Cu425  O476    1.926   .     S
Cu426  O477    1.926   .     S
Cu426  O475    1.956   .     S
Cu426  O479    1.926   .     S
Cu426  N467    2.018   .     S
Cu426  O473    1.956   .     S
H452   C799    1.110   .     S
C481   O571    1.296   .     A
C481   O565    1.296   .     A
C481   C498    1.460   .     S
C482   C486    1.409   .     A
C482   H526    1.078   .     S
C482   C517    1.415   .     A
C483   C487    1.403   .     S
C483   O572    1.289   .     A
C483   O575    1.289   .     A
C484   C488    1.403   .     S
C484   O574    1.289   .     A
C484   O573    1.289   .     A
C485   C518    1.409   .     A
C485   C520    1.409   .     A
C485   C678    1.525   1_545 S
C486   C519    1.409   .     A
C486   C677    1.525   .     S
C488   C871    1.187   .     S
C489   H523    1.083   .     S
C489   C494    1.390   .     A
C489   C500    1.404   .     A
C490   C495    1.390   .     A
C490   C501    1.404   .     A
C490   H534    1.083   .     S
C491   C501    1.404   .     A
C491   C496    1.390   .     A
C491   H545    1.083   .     S
C492   O570    1.296   .     A
C492   O569    1.296   .     A
C492   C499    1.460   .     S
C493   H556    1.083   .     S
C493   C500    1.404   .     A
C493   C497    1.390   .     A
C494   C498    1.402   .     A
C494   H558    1.083   .     S
C495   C499    1.402   .     A
C495   H559    1.083   .     S
C496   H560    1.083   .     S
C496   C499    1.402   .     A
C497   C498    1.402   .     A
C497   H561    1.083   .     S
C501   C404    1.470   1_655 S
C502   H528    1.117   .     S
C502   H527    1.111   .     S
C502   C504    1.530   .     S
C502   O576    1.417   .     S
C503   O576    1.384   .     S
C503   N563    1.369   .     A
C503   C518    1.415   .     A
C504   H530    1.111   .     S
C504   C505    1.526   .     S
C504   H529    1.112   .     S
C505   H533    1.111   .     S
C505   H531    1.111   .     S
C505   H916    1.110   .     S
C506   H535    1.110   .     S
C506   C507    1.529   .     S
C506   O566    1.421   .     S
C506   H536    1.117   .     S
C507   H537    1.112   .     S
C507   H538    1.111   .     S
C508   H541    1.111   .     S
C508   H540    1.110   .     S
C508   H539    1.111   .     S
C508   C891    1.527   .     S
C509   H543    1.117   .     S
C509   C510    1.530   .     S
C509   H542    1.111   .     S
C509   O567    1.417   .     S
C510   H544    1.112   .     S
C510   C511    1.526   .     S
C510   H546    1.111   .     S
C511   H547    1.111   .     S
C511   H549    1.111   .     S
C512   O568    1.421   .     S
C512   H551    1.117   .     S
C512   H550    1.110   .     S
C512   C513    1.529   .     S
C513   H552    1.112   .     S
C513   H553    1.111   .     S
C513   C899    1.527   .     S
C514   O566    1.386   .     S
C514   N564    1.369   .     A
C514   C519    1.415   .     A
C515   H554    1.111   .     S
C515   H555    1.110   .     S
C515   H557    1.111   .     S
C516   N563    1.369   .     A
C516   C520    1.415   .     A
C516   O567    1.384   .     S
C517   O568    1.386   .     S
C517   N564    1.369   .     A
C518   H562    1.078   .     S
C519   H524    1.078   .     S
C520   H525    1.078   .     S
Cu521  Cu522   2.686   .     S
Cu521  N564    2.018   .     S
Cu521  O574    1.926   .     S
Cu521  O565    1.956   .     S
Cu521  O570    1.956   .     S
Cu521  O572    1.926   .     S
Cu522  O573    1.926   .     S
Cu522  O571    1.956   .     S
Cu522  O575    1.926   .     S
Cu522  N563    2.018   .     S
Cu522  O569    1.956   .     S
H548   C895    1.110   .     S
C577   O667    1.296   .     A
C577   O661    1.296   .     A
C577   C594    1.460   .     S
C578   C582    1.409   .     A
C578   H622    1.078   .     S
C578   C613    1.415   .     A
C579   C583    1.403   .     S
C579   O668    1.289   .     A
C579   O671    1.289   .     A
C580   C584    1.403   .     S
C580   O670    1.289   .     A
C580   O669    1.289   .     A
C581   C614    1.409   .     A
C581   C616    1.409   .     A
C582   C615    1.409   .     A
C582   C389    1.525   1_565 S
C584   C967    1.187   .     S
C585   H619    1.083   .     S
C585   C590    1.390   .     A
C585   C596    1.404   .     A
C586   C591    1.390   .     A
C586   C597    1.404   .     A
C586   H630    1.083   .     S
C587   C597    1.404   .     A
C587   C592    1.390   .     A
C587   H641    1.083   .     S
C588   O666    1.296   .     A
C588   O665    1.296   .     A
C588   C595    1.460   .     S
C589   H652    1.083   .     S
C589   C596    1.404   .     A
C589   C593    1.390   .     A
C590   C594    1.402   .     A
C590   H654    1.083   .     S
C591   C595    1.402   .     A
C591   H655    1.083   .     S
C592   H656    1.083   .     S
C592   C595    1.402   .     A
C593   C594    1.402   .     A
C593   H657    1.083   .     S
C596   C693    1.470   1_455 S
C597   C692    1.470   .     S
C598   H624    1.117   .     S
C598   H623    1.111   .     S
C598   C600    1.530   .     S
C598   O672    1.417   .     S
C599   O672    1.384   .     S
C599   N659    1.369   .     A
C599   C614    1.415   .     A
C600   H626    1.111   .     S
C600   C601    1.526   .     S
C600   H625    1.112   .     S
C601   H629    1.111   .     S
C601   H627    1.111   .     S
C601   H1012   1.110   .     S
C602   H631    1.110   .     S
C602   C603    1.529   .     S
C602   O662    1.421   .     S
C602   H632    1.117   .     S
C603   H633    1.112   .     S
C603   H634    1.111   .     S
C604   H637    1.111   .     S
C604   H636    1.110   .     S
C604   H635    1.111   .     S
C604   C987    1.527   .     S
C605   H639    1.117   .     S
C605   C606    1.530   .     S
C605   H638    1.111   .     S
C605   O663    1.417   .     S
C606   H640    1.112   .     S
C606   C607    1.526   .     S
C606   H642    1.111   .     S
C607   H643    1.111   .     S
C607   H645    1.111   .     S
C608   O664    1.421   .     S
C608   H647    1.117   .     S
C608   H646    1.110   .     S
C608   C609    1.529   .     S
C609   H648    1.112   .     S
C609   H649    1.111   .     S
C609   C995    1.527   .     S
C610   O662    1.386   .     S
C610   N660    1.369   .     A
C610   C615    1.415   .     A
C611   H650    1.111   .     S
C611   H651    1.110   .     S
C611   H653    1.111   .     S
C612   N659    1.369   .     A
C612   C616    1.415   .     A
C612   O663    1.384   .     S
C613   O664    1.386   .     S
C613   N660    1.369   .     A
C614   H658    1.078   .     S
C615   H620    1.078   .     S
C616   H621    1.078   .     S
Cu617  Cu618   2.686   .     S
Cu617  N660    2.018   .     S
Cu617  O670    1.926   .     S
Cu617  O661    1.956   .     S
Cu617  O666    1.956   .     S
Cu617  O668    1.926   .     S
Cu618  O669    1.926   .     S
Cu618  O667    1.956   .     S
Cu618  O671    1.926   .     S
Cu618  N659    2.018   .     S
Cu618  O665    1.956   .     S
H644   C991    1.110   .     S
C673   O763    1.296   .     A
C673   O757    1.296   .     A
C673   C690    1.460   .     S
C674   C678    1.409   .     A
C674   H718    1.078   .     S
C674   C709    1.415   .     A
C675   C679    1.403   .     S
C675   O764    1.289   .     A
C675   O767    1.289   .     A
C676   C680    1.403   .     S
C676   O766    1.289   .     A
C676   O765    1.289   .     A
C677   C710    1.409   .     A
C677   C712    1.409   .     A
C678   C711    1.409   .     A
C678   C485    1.525   1_565 S
C680   C1063   1.187   .     S
C681   H715    1.083   .     S
C681   C686    1.390   .     A
C681   C692    1.404   .     A
C682   C687    1.390   .     A
C682   C693    1.404   .     A
C682   H726    1.083   .     S
C683   C693    1.404   .     A
C683   C688    1.390   .     A
C683   H737    1.083   .     S
C684   O762    1.296   .     A
C684   O761    1.296   .     A
C684   C691    1.460   .     S
C685   H748    1.083   .     S
C685   C692    1.404   .     A
C685   C689    1.390   .     A
C686   C690    1.402   .     A
C686   H750    1.083   .     S
C687   C691    1.402   .     A
C687   H751    1.083   .     S
C688   H752    1.083   .     S
C688   C691    1.402   .     A
C689   C690    1.402   .     A
C689   H753    1.083   .     S
C693   C596    1.470   1_655 S
C694   H720    1.117   .     S
C694   H719    1.111   .     S
C694   C696    1.530   .     S
C694   O768    1.417   .     S
C695   O768    1.384   .     S
C695   N755    1.369   .     A
C695   C710    1.415   .     A
C696   H722    1.111   .     S
C696   C697    1.526   .     S
C696   H721    1.112   .     S
C697   H725    1.111   .     S
C697   H723    1.111   .     S
C697   H1108   1.110   .     S
C698   H727    1.110   .     S
C698   C699    1.529   .     S
C698   O758    1.421   .     S
C698   H728    1.117   .     S
C699   H729    1.112   .     S
C699   H730    1.111   .     S
C700   H733    1.111   .     S
C700   H732    1.110   .     S
C700   H731    1.111   .     S
C700   C1083   1.527   .     S
C701   H735    1.117   .     S
C701   C702    1.530   .     S
C701   H734    1.111   .     S
C701   O759    1.417   .     S
C702   H736    1.112   .     S
C702   C703    1.526   .     S
C702   H738    1.111   .     S
C703   H739    1.111   .     S
C703   H741    1.111   .     S
C704   O760    1.421   .     S
C704   H743    1.117   .     S
C704   H742    1.110   .     S
C704   C705    1.529   .     S
C705   H744    1.112   .     S
C705   H745    1.111   .     S
C705   C1091   1.527   .     S
C706   O758    1.386   .     S
C706   N756    1.369   .     A
C706   C711    1.415   .     A
C707   H746    1.111   .     S
C707   H747    1.110   .     S
C707   H749    1.111   .     S
C708   N755    1.369   .     A
C708   C712    1.415   .     A
C708   O759    1.384   .     S
C709   O760    1.386   .     S
C709   N756    1.369   .     A
C710   H754    1.078   .     S
C711   H716    1.078   .     S
C712   H717    1.078   .     S
Cu713  Cu714   2.686   .     S
Cu713  N756    2.018   .     S
Cu713  O766    1.926   .     S
Cu713  O757    1.956   .     S
Cu713  O762    1.956   .     S
Cu713  O764    1.926   .     S
Cu714  O765    1.926   .     S
Cu714  O763    1.956   .     S
Cu714  O767    1.926   .     S
Cu714  N755    2.018   .     S
Cu714  O761    1.956   .     S
H740   C1087   1.110   .     S
C769   O859    1.296   .     A
C769   O853    1.296   .     A
C769   C786    1.460   .     S
C770   C774    1.409   .     A
C770   H814    1.078   .     S
C770   C805    1.415   .     A
C771   C775    1.403   .     S
C771   O860    1.289   .     A
C771   O863    1.289   .     A
C772   C776    1.403   .     S
C772   O862    1.289   .     A
C772   O861    1.289   .     A
C773   C806    1.409   .     A
C773   C808    1.409   .     A
C773   C966    1.525   1_545 S
C774   C807    1.409   .     A
C774   C965    1.525   .     S
C776   C7      1.187   1_556 S
C777   H811    1.083   .     S
C777   C782    1.390   .     A
C777   C788    1.404   .     A
C778   C783    1.390   .     A
C778   C789    1.404   .     A
C778   H822    1.083   .     S
C779   C789    1.404   .     A
C779   C784    1.390   .     A
C779   H833    1.083   .     S
C780   O858    1.296   .     A
C780   O857    1.296   .     A
C780   C787    1.460   .     S
C781   H844    1.083   .     S
C781   C788    1.404   .     A
C781   C785    1.390   .     A
C782   C786    1.402   .     A
C782   H846    1.083   .     S
C783   C787    1.402   .     A
C783   H847    1.083   .     S
C784   H848    1.083   .     S
C784   C787    1.402   .     A
C785   C786    1.402   .     A
C785   H849    1.083   .     S
C788   C885    1.470   1_455 S
C789   C884    1.470   .     S
C790   H816    1.117   .     S
C790   H815    1.111   .     S
C790   C792    1.530   .     S
C790   O864    1.417   .     S
C791   O864    1.384   .     S
C791   N851    1.369   .     A
C791   C806    1.415   .     A
C792   H818    1.111   .     S
C792   C793    1.526   .     S
C792   H817    1.112   .     S
C793   H821    1.111   .     S
C793   H819    1.111   .     S
C793   H52     1.110   1_556 S
C794   H823    1.110   .     S
C794   C795    1.529   .     S
C794   O854    1.421   .     S
C794   H824    1.117   .     S
C795   H825    1.112   .     S
C795   H826    1.111   .     S
C796   H829    1.111   .     S
C796   H828    1.110   .     S
C796   H827    1.111   .     S
C796   C27     1.527   1_556 S
C797   H831    1.117   .     S
C797   C798    1.530   .     S
C797   H830    1.111   .     S
C797   O855    1.417   .     S
C798   H832    1.112   .     S
C798   C799    1.526   .     S
C798   H834    1.111   .     S
C799   H835    1.111   .     S
C799   H837    1.111   .     S
C800   O856    1.421   .     S
C800   H839    1.117   .     S
C800   H838    1.110   .     S
C800   C801    1.529   .     S
C801   H840    1.112   .     S
C801   H841    1.111   .     S
C801   C35     1.527   1_556 S
C802   O854    1.386   .     S
C802   N852    1.369   .     A
C802   C807    1.415   .     A
C803   H842    1.111   .     S
C803   H843    1.110   .     S
C803   H845    1.111   .     S
C804   N851    1.369   .     A
C804   C808    1.415   .     A
C804   O855    1.384   .     S
C805   O856    1.386   .     S
C805   N852    1.369   .     A
C806   H850    1.078   .     S
C807   H812    1.078   .     S
C808   H813    1.078   .     S
Cu809  Cu810   2.686   .     S
Cu809  N852    2.018   .     S
Cu809  O862    1.926   .     S
Cu809  O853    1.956   .     S
Cu809  O858    1.956   .     S
Cu809  O860    1.926   .     S
Cu810  O861    1.926   .     S
Cu810  O859    1.956   .     S
Cu810  O863    1.926   .     S
Cu810  N851    2.018   .     S
Cu810  O857    1.956   .     S
H836   C31     1.110   1_556 S
C865   O955    1.296   .     A
C865   O949    1.296   .     A
C865   C882    1.460   .     S
C866   C870    1.409   .     A
C866   H910    1.078   .     S
C866   C901    1.415   .     A
C867   C871    1.403   .     S
C867   O956    1.289   .     A
C867   O959    1.289   .     A
C868   C872    1.403   .     S
C868   O958    1.289   .     A
C868   O957    1.289   .     A
C869   C902    1.409   .     A
C869   C904    1.409   .     A
C869   C1062   1.525   1_545 S
C870   C903    1.409   .     A
C870   C1061   1.525   .     S
C872   C103    1.187   1_556 S
C873   H907    1.083   .     S
C873   C878    1.390   .     A
C873   C884    1.404   .     A
C874   C879    1.390   .     A
C874   C885    1.404   .     A
C874   H918    1.083   .     S
C875   C885    1.404   .     A
C875   C880    1.390   .     A
C875   H929    1.083   .     S
C876   O954    1.296   .     A
C876   O953    1.296   .     A
C876   C883    1.460   .     S
C877   H940    1.083   .     S
C877   C884    1.404   .     A
C877   C881    1.390   .     A
C878   C882    1.402   .     A
C878   H942    1.083   .     S
C879   C883    1.402   .     A
C879   H943    1.083   .     S
C880   H944    1.083   .     S
C880   C883    1.402   .     A
C881   C882    1.402   .     A
C881   H945    1.083   .     S
C885   C788    1.470   1_655 S
C886   H912    1.117   .     S
C886   H911    1.111   .     S
C886   C888    1.530   .     S
C886   O960    1.417   .     S
C887   O960    1.384   .     S
C887   N947    1.369   .     A
C887   C902    1.415   .     A
C888   H914    1.111   .     S
C888   C889    1.526   .     S
C888   H913    1.112   .     S
C889   H917    1.111   .     S
C889   H915    1.111   .     S
C889   H148    1.110   1_556 S
C890   H919    1.110   .     S
C890   C891    1.529   .     S
C890   O950    1.421   .     S
C890   H920    1.117   .     S
C891   H921    1.112   .     S
C891   H922    1.111   .     S
C892   H925    1.111   .     S
C892   H924    1.110   .     S
C892   H923    1.111   .     S
C892   C123    1.527   1_556 S
C893   H927    1.117   .     S
C893   C894    1.530   .     S
C893   H926    1.111   .     S
C893   O951    1.417   .     S
C894   H928    1.112   .     S
C894   C895    1.526   .     S
C894   H930    1.111   .     S
C895   H931    1.111   .     S
C895   H933    1.111   .     S
C896   O952    1.421   .     S
C896   H935    1.117   .     S
C896   H934    1.110   .     S
C896   C897    1.529   .     S
C897   H936    1.112   .     S
C897   H937    1.111   .     S
C897   C131    1.527   1_556 S
C898   O950    1.386   .     S
C898   N948    1.369   .     A
C898   C903    1.415   .     A
C899   H938    1.111   .     S
C899   H939    1.110   .     S
C899   H941    1.111   .     S
C900   N947    1.369   .     A
C900   C904    1.415   .     A
C900   O951    1.384   .     S
C901   O952    1.386   .     S
C901   N948    1.369   .     A
C902   H946    1.078   .     S
C903   H908    1.078   .     S
C904   H909    1.078   .     S
Cu905  Cu906   2.686   .     S
Cu905  N948    2.018   .     S
Cu905  O958    1.926   .     S
Cu905  O949    1.956   .     S
Cu905  O954    1.956   .     S
Cu905  O956    1.926   .     S
Cu906  O957    1.926   .     S
Cu906  O955    1.956   .     S
Cu906  O959    1.926   .     S
Cu906  N947    2.018   .     S
Cu906  O953    1.956   .     S
H932   C127    1.110   1_556 S
C961   O1051   1.296   .     A
C961   O1045   1.296   .     A
C961   C978    1.460   .     S
C962   C966    1.409   .     A
C962   H1006   1.078   .     S
C962   C997    1.415   .     A
C963   C967    1.403   .     S
C963   O1052   1.289   .     A
C963   O1055   1.289   .     A
C964   C968    1.403   .     S
C964   O1054   1.289   .     A
C964   O1053   1.289   .     A
C965   C998    1.409   .     A
C965   C1000   1.409   .     A
C966   C999    1.409   .     A
C966   C773    1.525   1_565 S
C968   C199    1.187   1_556 S
C969   H1003   1.083   .     S
C969   C974    1.390   .     A
C969   C980    1.404   .     A
C970   C975    1.390   .     A
C970   C981    1.404   .     A
C970   H1014   1.083   .     S
C971   C981    1.404   .     A
C971   C976    1.390   .     A
C971   H1025   1.083   .     S
C972   O1050   1.296   .     A
C972   O1049   1.296   .     A
C972   C979    1.460   .     S
C973   H1036   1.083   .     S
C973   C980    1.404   .     A
C973   C977    1.390   .     A
C974   C978    1.402   .     A
C974   H1038   1.083   .     S
C975   C979    1.402   .     A
C975   H1039   1.083   .     S
C976   H1040   1.083   .     S
C976   C979    1.402   .     A
C977   C978    1.402   .     A
C977   H1041   1.083   .     S
C980   C1077   1.470   1_455 S
C981   C1076   1.470   .     S
C982   H1008   1.117   .     S
C982   H1007   1.111   .     S
C982   C984    1.530   .     S
C982   O1056   1.417   .     S
C983   O1056   1.384   .     S
C983   N1043   1.369   .     A
C983   C998    1.415   .     A
C984   H1010   1.111   .     S
C984   C985    1.526   .     S
C984   H1009   1.112   .     S
C985   H1013   1.111   .     S
C985   H1011   1.111   .     S
C985   H244    1.110   1_556 S
C986   H1015   1.110   .     S
C986   C987    1.529   .     S
C986   O1046   1.421   .     S
C986   H1016   1.117   .     S
C987   H1017   1.112   .     S
C987   H1018   1.111   .     S
C988   H1021   1.111   .     S
C988   H1020   1.110   .     S
C988   H1019   1.111   .     S
C988   C219    1.527   1_556 S
C989   H1023   1.117   .     S
C989   C990    1.530   .     S
C989   H1022   1.111   .     S
C989   O1047   1.417   .     S
C990   H1024   1.112   .     S
C990   C991    1.526   .     S
C990   H1026   1.111   .     S
C991   H1027   1.111   .     S
C991   H1029   1.111   .     S
C992   O1048   1.421   .     S
C992   H1031   1.117   .     S
C992   H1030   1.110   .     S
C992   C993    1.529   .     S
C993   H1032   1.112   .     S
C993   H1033   1.111   .     S
C993   C227    1.527   1_556 S
C994   O1046   1.386   .     S
C994   N1044   1.369   .     A
C994   C999    1.415   .     A
C995   H1034   1.111   .     S
C995   H1035   1.110   .     S
C995   H1037   1.111   .     S
C996   N1043   1.369   .     A
C996   C1000   1.415   .     A
C996   O1047   1.384   .     S
C997   O1048   1.386   .     S
C997   N1044   1.369   .     A
C998   H1042   1.078   .     S
C999   H1004   1.078   .     S
C1000  H1005   1.078   .     S
Cu1001 Cu1002  2.686   .     S
Cu1001 N1044   2.018   .     S
Cu1001 O1054   1.926   .     S
Cu1001 O1045   1.956   .     S
Cu1001 O1050   1.956   .     S
Cu1001 O1052   1.926   .     S
Cu1002 O1053   1.926   .     S
Cu1002 O1051   1.956   .     S
Cu1002 O1055   1.926   .     S
Cu1002 N1043   2.018   .     S
Cu1002 O1049   1.956   .     S
H1028  C223    1.110   1_556 S
C1057  O1147   1.296   .     A
C1057  O1141   1.296   .     A
C1057  C1074   1.460   .     S
C1058  C1062   1.409   .     A
C1058  H1102   1.078   .     S
C1058  C1093   1.415   .     A
C1059  C1063   1.403   .     S
C1059  O1148   1.289   .     A
C1059  O1151   1.289   .     A
C1060  C1064   1.403   .     S
C1060  O1150   1.289   .     A
C1060  O1149   1.289   .     A
C1061  C1094   1.409   .     A
C1061  C1096   1.409   .     A
C1062  C1095   1.409   .     A
C1062  C869    1.525   1_565 S
C1064  C295    1.187   1_556 S
C1065  H1099   1.083   .     S
C1065  C1070   1.390   .     A
C1065  C1076   1.404   .     A
C1066  C1071   1.390   .     A
C1066  C1077   1.404   .     A
C1066  H1110   1.083   .     S
C1067  C1077   1.404   .     A
C1067  C1072   1.390   .     A
C1067  H1121   1.083   .     S
C1068  O1146   1.296   .     A
C1068  O1145   1.296   .     A
C1068  C1075   1.460   .     S
C1069  H1132   1.083   .     S
C1069  C1076   1.404   .     A
C1069  C1073   1.390   .     A
C1070  C1074   1.402   .     A
C1070  H1134   1.083   .     S
C1071  C1075   1.402   .     A
C1071  H1135   1.083   .     S
C1072  H1136   1.083   .     S
C1072  C1075   1.402   .     A
C1073  C1074   1.402   .     A
C1073  H1137   1.083   .     S
C1077  C980    1.470   1_655 S
C1078  H1104   1.117   .     S
C1078  H1103   1.111   .     S
C1078  C1080   1.530   .     S
C1078  O1152   1.417   .     S
C1079  O1152   1.384   .     S
C1079  N1139   1.369   .     A
C1079  C1094   1.415   .     A
C1080  H1106   1.111   .     S
C1080  C1081   1.526   .     S
C1080  H1105   1.112   .     S
C1081  H1109   1.111   .     S
C1081  H1107   1.111   .     S
C1081  H340    1.110   1_556 S
C1082  H1111   1.110   .     S
C1082  C1083   1.529   .     S
C1082  O1142   1.421   .     S
C1082  H1112   1.117   .     S
C1083  H1113   1.112   .     S
C1083  H1114   1.111   .     S
C1084  H1117   1.111   .     S
C1084  H1116   1.110   .     S
C1084  H1115   1.111   .     S
C1084  C315    1.527   1_556 S
C1085  H1119   1.117   .     S
C1085  C1086   1.530   .     S
C1085  H1118   1.111   .     S
C1085  O1143   1.417   .     S
C1086  H1120   1.112   .     S
C1086  C1087   1.526   .     S
C1086  H1122   1.111   .     S
C1087  H1123   1.111   .     S
C1087  H1125   1.111   .     S
C1088  O1144   1.421   .     S
C1088  H1127   1.117   .     S
C1088  H1126   1.110   .     S
C1088  C1089   1.529   .     S
C1089  H1128   1.112   .     S
C1089  H1129   1.111   .     S
C1089  C323    1.527   1_556 S
C1090  O1142   1.386   .     S
C1090  N1140   1.369   .     A
C1090  C1095   1.415   .     A
C1091  H1130   1.111   .     S
C1091  H1131   1.110   .     S
C1091  H1133   1.111   .     S
C1092  N1139   1.369   .     A
C1092  C1096   1.415   .     A
C1092  O1143   1.384   .     S
C1093  O1144   1.386   .     S
C1093  N1140   1.369   .     A
C1094  H1138   1.078   .     S
C1095  H1100   1.078   .     S
C1096  H1101   1.078   .     S
Cu1097 Cu1098  2.686   .     S
Cu1097 N1140   2.018   .     S
Cu1097 O1150   1.926   .     S
Cu1097 O1141   1.956   .     S
Cu1097 O1146   1.956   .     S
Cu1097 O1148   1.926   .     S
Cu1098 O1149   1.926   .     S
Cu1098 O1147   1.956   .     S
Cu1098 O1151   1.926   .     S
Cu1098 N1139   2.018   .     S
Cu1098 O1145   1.956   .     S
H1124  C319    1.110   1_556 S
