data_str_m2_o10_o18_pcu_sym.147
_audit_creation_date              2020-01-03
_audit_creation_method            'Materials Studio'
_symmetry_space_group_name_H-M    'P1'
_symmetry_Int_Tables_number       1
_symmetry_cell_setting            triclinic
loop_
_symmetry_equiv_pos_as_xyz
  x,y,z
_cell_length_a                    22.3794
_cell_length_b                    26.0794
_cell_length_c                    31.6448
_cell_angle_alpha                 94.7402
_cell_angle_beta                  75.1808
_cell_angle_gamma                 103.3807
loop_
_atom_site_label
_atom_site_type_symbol
_atom_site_fract_x
_atom_site_fract_y
_atom_site_fract_z
_atom_site_U_iso_or_equiv
_atom_site_adp_type
_atom_site_occupancy
C1     C     0.18175   0.26673   0.25132   0.00000  Uiso   1.00
C2     C     0.15158   0.06661   0.24868   0.00000  Uiso   1.00
C3     C     0.09571   0.12447   0.03744   0.00000  Uiso   1.00
C4     C     0.24179   0.19389   0.45958   0.00000  Uiso   1.00
C5     C     0.05295   0.11167   0.01131   0.00000  Uiso   1.00
C6     C     0.28484   0.20571   0.48552   0.00000  Uiso   1.00
C7     C     0.19016   0.32277   0.25194   0.00000  Uiso   1.00
C8     C     0.14316   0.01056   0.24808   0.00000  Uiso   1.00
C9     C     0.12812   0.16266   0.33305   0.00000  Uiso   1.00
C10    C     0.20519   0.17032   0.16690   0.00000  Uiso   1.00
C11    C     0.10484   0.15536   0.38036   0.00000  Uiso   1.00
C12    C     0.22844   0.17464   0.11926   0.00000  Uiso   1.00
C13    C     0.02620   0.11385   0.44240   0.00000  Uiso   1.00
C14    C     0.31034   0.20650   0.05521   0.00000  Uiso   1.00
C15    C     0.04336   0.12759   0.39865   0.00000  Uiso   1.00
C16    C     0.29176   0.19686   0.09983   0.00000  Uiso   1.00
C17    C     0.14793   0.17132   0.40657   0.00000  Uiso   1.00
C18    C     0.18479   0.15957   0.09333   0.00000  Uiso   1.00
C19    C     0.13274   0.15636   0.45038   0.00000  Uiso   1.00
C20    C     0.20243   0.16796   0.04810   0.00000  Uiso   1.00
C21    C     0.07043   0.12746   0.46818   0.00000  Uiso   1.00
C22    C     0.26605   0.19325   0.02948   0.00000  Uiso   1.00
C23    C     0.17774   0.16848   0.47664   0.00000  Uiso   1.00
C24    C     0.15829   0.15368   0.02128   0.00000  Uiso   1.00
Cu25   Cu    0.10737   0.16108   0.24517   0.00000  Uiso   1.00
Cu26   Cu    0.22596   0.17225   0.25483   0.00000  Uiso   1.00
H27    H     0.00559   0.08915   0.02510   0.00000  Uiso   1.00
H28    H     0.00010   0.22496   0.47095   0.00000  Uiso   1.00
H29    H     0.32625   0.20864   0.11932   0.00000  Uiso   1.00
H30    H     0.00941   0.11491   0.37883   0.00000  Uiso   1.00
H31    H     0.31191   0.09174   0.45595   0.00000  Uiso   1.00
H32    H     0.02589   0.22515   0.04090   0.00000  Uiso   1.00
H33    H     0.23538   0.01341   0.25557   0.00000  Uiso   1.00
H34    H     0.09795   0.31993   0.24445   0.00000  Uiso   1.00
N35    N     0.31506   0.18068   0.26212   0.00000  Uiso   1.00
N36    N     0.01827   0.15265   0.23788   0.00000  Uiso   1.00
O37    O     0.12815   0.23809   0.24686   0.00000  Uiso   1.00
O38    O     0.20518   0.09524   0.25314   0.00000  Uiso   1.00
O39    O     0.22829   0.24753   0.25502   0.00000  Uiso   1.00
O40    O     0.10504   0.08580   0.24497   0.00000  Uiso   1.00
O41    O     0.08851   0.15930   0.30855   0.00000  Uiso   1.00
O42    O     0.24482   0.17403   0.19145   0.00000  Uiso   1.00
O43    O     0.18866   0.16874   0.31671   0.00000  Uiso   1.00
O44    O     0.14468   0.16460   0.18329   0.00000  Uiso   1.00
H45    H     0.13655   0.14315   0.10975   0.00000  Uiso   1.00
H46    H     0.19351   0.19481   0.39141   0.00000  Uiso   1.00
H47    H     0.07819   0.10949   0.07000   0.00000  Uiso   1.00
H48    H     0.26115   0.20446   0.42590   0.00000  Uiso   1.00
F49    F     0.00344   0.20871   0.29443   0.00000  Uiso   1.00
F50    F     0.32989   0.12462   0.20557   0.00000  Uiso   1.00
C51    C     0.51508   0.26673   0.25132   0.00000  Uiso   1.00
C52    C     0.48492   0.06661   0.24868   0.00000  Uiso   1.00
C53    C     0.42904   0.12447   0.03744   0.00000  Uiso   1.00
C54    C     0.57512   0.19389   0.45958   0.00000  Uiso   1.00
C55    C     0.38628   0.11167   0.01131   0.00000  Uiso   1.00
C56    C     0.61818   0.20571   0.48552   0.00000  Uiso   1.00
C57    C     0.52349   0.32277   0.25194   0.00000  Uiso   1.00
C58    C     0.47650   0.01056   0.24808   0.00000  Uiso   1.00
C59    C     0.46145   0.16266   0.33305   0.00000  Uiso   1.00
C60    C     0.53852   0.17032   0.16690   0.00000  Uiso   1.00
C61    C     0.43818   0.15536   0.38036   0.00000  Uiso   1.00
C62    C     0.56177   0.17464   0.11926   0.00000  Uiso   1.00
C63    C     0.35954   0.11385   0.44240   0.00000  Uiso   1.00
C64    C     0.64368   0.20650   0.05521   0.00000  Uiso   1.00
C65    C     0.37669   0.12759   0.39865   0.00000  Uiso   1.00
C66    C     0.62510   0.19686   0.09983   0.00000  Uiso   1.00
C67    C     0.48126   0.17132   0.40657   0.00000  Uiso   1.00
C68    C     0.51812   0.15957   0.09333   0.00000  Uiso   1.00
C69    C     0.46607   0.15636   0.45038   0.00000  Uiso   1.00
C70    C     0.53576   0.16796   0.04810   0.00000  Uiso   1.00
C71    C     0.40377   0.12746   0.46818   0.00000  Uiso   1.00
C72    C     0.59938   0.19325   0.02948   0.00000  Uiso   1.00
C73    C     0.51107   0.16848   0.47664   0.00000  Uiso   1.00
C74    C     0.49163   0.15368   0.02128   0.00000  Uiso   1.00
Cu75   Cu    0.44071   0.16108   0.24517   0.00000  Uiso   1.00
Cu76   Cu    0.55929   0.17225   0.25483   0.00000  Uiso   1.00
H77    H     0.33892   0.08915   0.02510   0.00000  Uiso   1.00
H78    H     0.33344   0.22496   0.47095   0.00000  Uiso   1.00
H79    H     0.65958   0.20864   0.11932   0.00000  Uiso   1.00
H80    H     0.34274   0.11491   0.37883   0.00000  Uiso   1.00
H81    H     0.64524   0.09174   0.45595   0.00000  Uiso   1.00
H82    H     0.35923   0.22515   0.04090   0.00000  Uiso   1.00
H83    H     0.56871   0.01341   0.25557   0.00000  Uiso   1.00
H84    H     0.43128   0.31993   0.24445   0.00000  Uiso   1.00
N85    N     0.64839   0.18068   0.26212   0.00000  Uiso   1.00
N86    N     0.35161   0.15265   0.23788   0.00000  Uiso   1.00
O87    O     0.46148   0.23809   0.24686   0.00000  Uiso   1.00
O88    O     0.53852   0.09524   0.25314   0.00000  Uiso   1.00
O89    O     0.56163   0.24753   0.25502   0.00000  Uiso   1.00
O90    O     0.43837   0.08580   0.24497   0.00000  Uiso   1.00
O91    O     0.42185   0.15930   0.30855   0.00000  Uiso   1.00
O92    O     0.57815   0.17403   0.19145   0.00000  Uiso   1.00
O93    O     0.52199   0.16874   0.31671   0.00000  Uiso   1.00
O94    O     0.47801   0.16460   0.18329   0.00000  Uiso   1.00
H95    H     0.46988   0.14315   0.10975   0.00000  Uiso   1.00
H96    H     0.52685   0.19481   0.39141   0.00000  Uiso   1.00
H97    H     0.41153   0.10949   0.07000   0.00000  Uiso   1.00
H98    H     0.59449   0.20446   0.42590   0.00000  Uiso   1.00
F99    F     0.33678   0.20871   0.29443   0.00000  Uiso   1.00
F100   F     0.66322   0.12462   0.20557   0.00000  Uiso   1.00
C101   C     0.84841   0.26673   0.25132   0.00000  Uiso   1.00
C102   C     0.81825   0.06661   0.24868   0.00000  Uiso   1.00
C103   C     0.76237   0.12447   0.03744   0.00000  Uiso   1.00
C104   C     0.90845   0.19389   0.45958   0.00000  Uiso   1.00
C105   C     0.71961   0.11167   0.01131   0.00000  Uiso   1.00
C106   C     0.95151   0.20571   0.48552   0.00000  Uiso   1.00
C107   C     0.85683   0.32277   0.25194   0.00000  Uiso   1.00
C108   C     0.80983   0.01056   0.24808   0.00000  Uiso   1.00
C109   C     0.79478   0.16266   0.33305   0.00000  Uiso   1.00
C110   C     0.87185   0.17032   0.16690   0.00000  Uiso   1.00
C111   C     0.77151   0.15536   0.38036   0.00000  Uiso   1.00
C112   C     0.89510   0.17464   0.11926   0.00000  Uiso   1.00
C113   C     0.69287   0.11385   0.44240   0.00000  Uiso   1.00
C114   C     0.97701   0.20650   0.05521   0.00000  Uiso   1.00
C115   C     0.71003   0.12759   0.39865   0.00000  Uiso   1.00
C116   C     0.95843   0.19686   0.09983   0.00000  Uiso   1.00
C117   C     0.81459   0.17132   0.40657   0.00000  Uiso   1.00
C118   C     0.85145   0.15957   0.09333   0.00000  Uiso   1.00
C119   C     0.79941   0.15636   0.45038   0.00000  Uiso   1.00
C120   C     0.86909   0.16796   0.04810   0.00000  Uiso   1.00
C121   C     0.73710   0.12746   0.46818   0.00000  Uiso   1.00
C122   C     0.93272   0.19325   0.02948   0.00000  Uiso   1.00
C123   C     0.84440   0.16848   0.47664   0.00000  Uiso   1.00
C124   C     0.82496   0.15368   0.02128   0.00000  Uiso   1.00
Cu125  Cu    0.77404   0.16108   0.24517   0.00000  Uiso   1.00
Cu126  Cu    0.89263   0.17225   0.25483   0.00000  Uiso   1.00
H127   H     0.67225   0.08915   0.02510   0.00000  Uiso   1.00
H128   H     0.66677   0.22496   0.47095   0.00000  Uiso   1.00
H129   H     0.99292   0.20864   0.11932   0.00000  Uiso   1.00
H130   H     0.67608   0.11491   0.37883   0.00000  Uiso   1.00
H131   H     0.97857   0.09174   0.45595   0.00000  Uiso   1.00
H132   H     0.69256   0.22515   0.04090   0.00000  Uiso   1.00
H133   H     0.90204   0.01341   0.25557   0.00000  Uiso   1.00
H134   H     0.76461   0.31993   0.24445   0.00000  Uiso   1.00
N135   N     0.98173   0.18068   0.26212   0.00000  Uiso   1.00
N136   N     0.68494   0.15265   0.23788   0.00000  Uiso   1.00
O137   O     0.79482   0.23809   0.24686   0.00000  Uiso   1.00
O138   O     0.87185   0.09524   0.25314   0.00000  Uiso   1.00
O139   O     0.89496   0.24753   0.25502   0.00000  Uiso   1.00
O140   O     0.77171   0.08580   0.24497   0.00000  Uiso   1.00
O141   O     0.75518   0.15930   0.30855   0.00000  Uiso   1.00
O142   O     0.91149   0.17403   0.19145   0.00000  Uiso   1.00
O143   O     0.85532   0.16874   0.31671   0.00000  Uiso   1.00
O144   O     0.81134   0.16460   0.18329   0.00000  Uiso   1.00
H145   H     0.80321   0.14315   0.10975   0.00000  Uiso   1.00
H146   H     0.86018   0.19481   0.39141   0.00000  Uiso   1.00
H147   H     0.74486   0.10949   0.07000   0.00000  Uiso   1.00
H148   H     0.92782   0.20446   0.42590   0.00000  Uiso   1.00
F149   F     0.67011   0.20871   0.29443   0.00000  Uiso   1.00
F150   F     0.99656   0.12462   0.20557   0.00000  Uiso   1.00
C151   C     0.18175   0.60006   0.25132   0.00000  Uiso   1.00
C152   C     0.15158   0.39994   0.24868   0.00000  Uiso   1.00
C153   C     0.09571   0.45781   0.03744   0.00000  Uiso   1.00
C154   C     0.24179   0.52722   0.45958   0.00000  Uiso   1.00
C155   C     0.05295   0.44500   0.01131   0.00000  Uiso   1.00
C156   C     0.28484   0.53904   0.48552   0.00000  Uiso   1.00
C157   C     0.19016   0.65610   0.25194   0.00000  Uiso   1.00
C158   C     0.14316   0.34390   0.24808   0.00000  Uiso   1.00
C159   C     0.12812   0.49599   0.33305   0.00000  Uiso   1.00
C160   C     0.20519   0.50365   0.16690   0.00000  Uiso   1.00
C161   C     0.10484   0.48869   0.38036   0.00000  Uiso   1.00
C162   C     0.22844   0.50798   0.11926   0.00000  Uiso   1.00
C163   C     0.02620   0.44719   0.44240   0.00000  Uiso   1.00
C164   C     0.31034   0.53984   0.05521   0.00000  Uiso   1.00
C165   C     0.04336   0.46093   0.39865   0.00000  Uiso   1.00
C166   C     0.29176   0.53020   0.09983   0.00000  Uiso   1.00
C167   C     0.14793   0.50465   0.40657   0.00000  Uiso   1.00
C168   C     0.18479   0.49290   0.09333   0.00000  Uiso   1.00
C169   C     0.13274   0.48969   0.45038   0.00000  Uiso   1.00
C170   C     0.20243   0.50129   0.04810   0.00000  Uiso   1.00
C171   C     0.07043   0.46079   0.46818   0.00000  Uiso   1.00
C172   C     0.26605   0.52658   0.02948   0.00000  Uiso   1.00
C173   C     0.17774   0.50181   0.47664   0.00000  Uiso   1.00
C174   C     0.15829   0.48702   0.02128   0.00000  Uiso   1.00
Cu175  Cu    0.10737   0.49441   0.24517   0.00000  Uiso   1.00
Cu176  Cu    0.22596   0.50559   0.25483   0.00000  Uiso   1.00
H177   H     0.00559   0.42248   0.02510   0.00000  Uiso   1.00
H178   H     0.00010   0.55829   0.47095   0.00000  Uiso   1.00
H179   H     0.32625   0.54197   0.11932   0.00000  Uiso   1.00
H180   H     0.00941   0.44824   0.37883   0.00000  Uiso   1.00
H181   H     0.31191   0.42508   0.45595   0.00000  Uiso   1.00
H182   H     0.02589   0.55849   0.04090   0.00000  Uiso   1.00
H183   H     0.23538   0.34674   0.25557   0.00000  Uiso   1.00
H184   H     0.09795   0.65326   0.24445   0.00000  Uiso   1.00
N185   N     0.31506   0.51401   0.26212   0.00000  Uiso   1.00
N186   N     0.01827   0.48599   0.23788   0.00000  Uiso   1.00
O187   O     0.12815   0.57142   0.24686   0.00000  Uiso   1.00
O188   O     0.20518   0.42858   0.25314   0.00000  Uiso   1.00
O189   O     0.22829   0.58086   0.25502   0.00000  Uiso   1.00
O190   O     0.10504   0.41914   0.24497   0.00000  Uiso   1.00
O191   O     0.08851   0.49263   0.30855   0.00000  Uiso   1.00
O192   O     0.24482   0.50737   0.19145   0.00000  Uiso   1.00
O193   O     0.18866   0.50207   0.31671   0.00000  Uiso   1.00
O194   O     0.14468   0.49793   0.18329   0.00000  Uiso   1.00
H195   H     0.13655   0.47649   0.10975   0.00000  Uiso   1.00
H196   H     0.19351   0.52814   0.39141   0.00000  Uiso   1.00
H197   H     0.07819   0.44282   0.07000   0.00000  Uiso   1.00
H198   H     0.26115   0.53779   0.42590   0.00000  Uiso   1.00
F199   F     0.00344   0.54204   0.29443   0.00000  Uiso   1.00
F200   F     0.32989   0.45796   0.20557   0.00000  Uiso   1.00
C201   C     0.51508   0.60006   0.25132   0.00000  Uiso   1.00
C202   C     0.48492   0.39994   0.24868   0.00000  Uiso   1.00
C203   C     0.42904   0.45781   0.03744   0.00000  Uiso   1.00
C204   C     0.57512   0.52722   0.45958   0.00000  Uiso   1.00
C205   C     0.38628   0.44500   0.01131   0.00000  Uiso   1.00
C206   C     0.61818   0.53904   0.48552   0.00000  Uiso   1.00
C207   C     0.52349   0.65610   0.25194   0.00000  Uiso   1.00
C208   C     0.47650   0.34390   0.24808   0.00000  Uiso   1.00
C209   C     0.46145   0.49599   0.33305   0.00000  Uiso   1.00
C210   C     0.53852   0.50365   0.16690   0.00000  Uiso   1.00
C211   C     0.43818   0.48869   0.38036   0.00000  Uiso   1.00
C212   C     0.56177   0.50798   0.11926   0.00000  Uiso   1.00
C213   C     0.35954   0.44719   0.44240   0.00000  Uiso   1.00
C214   C     0.64368   0.53984   0.05521   0.00000  Uiso   1.00
C215   C     0.37669   0.46093   0.39865   0.00000  Uiso   1.00
C216   C     0.62510   0.53020   0.09983   0.00000  Uiso   1.00
C217   C     0.48126   0.50465   0.40657   0.00000  Uiso   1.00
C218   C     0.51812   0.49290   0.09333   0.00000  Uiso   1.00
C219   C     0.46607   0.48969   0.45038   0.00000  Uiso   1.00
C220   C     0.53576   0.50129   0.04810   0.00000  Uiso   1.00
C221   C     0.40377   0.46079   0.46818   0.00000  Uiso   1.00
C222   C     0.59938   0.52658   0.02948   0.00000  Uiso   1.00
C223   C     0.51107   0.50181   0.47664   0.00000  Uiso   1.00
C224   C     0.49163   0.48702   0.02128   0.00000  Uiso   1.00
Cu225  Cu    0.44071   0.49441   0.24517   0.00000  Uiso   1.00
Cu226  Cu    0.55929   0.50559   0.25483   0.00000  Uiso   1.00
H227   H     0.33892   0.42248   0.02510   0.00000  Uiso   1.00
H228   H     0.33344   0.55829   0.47095   0.00000  Uiso   1.00
H229   H     0.65958   0.54197   0.11932   0.00000  Uiso   1.00
H230   H     0.34274   0.44824   0.37883   0.00000  Uiso   1.00
H231   H     0.64524   0.42508   0.45595   0.00000  Uiso   1.00
H232   H     0.35923   0.55849   0.04090   0.00000  Uiso   1.00
H233   H     0.56871   0.34674   0.25557   0.00000  Uiso   1.00
H234   H     0.43128   0.65326   0.24445   0.00000  Uiso   1.00
N235   N     0.64839   0.51401   0.26212   0.00000  Uiso   1.00
N236   N     0.35161   0.48599   0.23788   0.00000  Uiso   1.00
O237   O     0.46148   0.57142   0.24686   0.00000  Uiso   1.00
O238   O     0.53852   0.42858   0.25314   0.00000  Uiso   1.00
O239   O     0.56163   0.58086   0.25502   0.00000  Uiso   1.00
O240   O     0.43837   0.41914   0.24497   0.00000  Uiso   1.00
O241   O     0.42185   0.49263   0.30855   0.00000  Uiso   1.00
O242   O     0.57815   0.50737   0.19145   0.00000  Uiso   1.00
O243   O     0.52199   0.50207   0.31671   0.00000  Uiso   1.00
O244   O     0.47801   0.49793   0.18329   0.00000  Uiso   1.00
H245   H     0.46988   0.47649   0.10975   0.00000  Uiso   1.00
H246   H     0.52685   0.52814   0.39141   0.00000  Uiso   1.00
H247   H     0.41153   0.44282   0.07000   0.00000  Uiso   1.00
H248   H     0.59449   0.53779   0.42590   0.00000  Uiso   1.00
F249   F     0.33678   0.54204   0.29443   0.00000  Uiso   1.00
F250   F     0.66322   0.45796   0.20557   0.00000  Uiso   1.00
C251   C     0.84841   0.60006   0.25132   0.00000  Uiso   1.00
C252   C     0.81825   0.39994   0.24868   0.00000  Uiso   1.00
C253   C     0.76237   0.45781   0.03744   0.00000  Uiso   1.00
C254   C     0.90845   0.52722   0.45958   0.00000  Uiso   1.00
C255   C     0.71961   0.44500   0.01131   0.00000  Uiso   1.00
C256   C     0.95151   0.53904   0.48552   0.00000  Uiso   1.00
C257   C     0.85683   0.65610   0.25194   0.00000  Uiso   1.00
C258   C     0.80983   0.34390   0.24808   0.00000  Uiso   1.00
C259   C     0.79478   0.49599   0.33305   0.00000  Uiso   1.00
C260   C     0.87185   0.50365   0.16690   0.00000  Uiso   1.00
C261   C     0.77151   0.48869   0.38036   0.00000  Uiso   1.00
C262   C     0.89510   0.50798   0.11926   0.00000  Uiso   1.00
C263   C     0.69287   0.44719   0.44240   0.00000  Uiso   1.00
C264   C     0.97701   0.53984   0.05521   0.00000  Uiso   1.00
C265   C     0.71003   0.46093   0.39865   0.00000  Uiso   1.00
C266   C     0.95843   0.53020   0.09983   0.00000  Uiso   1.00
C267   C     0.81459   0.50465   0.40657   0.00000  Uiso   1.00
C268   C     0.85145   0.49290   0.09333   0.00000  Uiso   1.00
C269   C     0.79941   0.48969   0.45038   0.00000  Uiso   1.00
C270   C     0.86909   0.50129   0.04810   0.00000  Uiso   1.00
C271   C     0.73710   0.46079   0.46818   0.00000  Uiso   1.00
C272   C     0.93272   0.52658   0.02948   0.00000  Uiso   1.00
C273   C     0.84440   0.50181   0.47664   0.00000  Uiso   1.00
C274   C     0.82496   0.48702   0.02128   0.00000  Uiso   1.00
Cu275  Cu    0.77404   0.49441   0.24517   0.00000  Uiso   1.00
Cu276  Cu    0.89263   0.50559   0.25483   0.00000  Uiso   1.00
H277   H     0.67225   0.42248   0.02510   0.00000  Uiso   1.00
H278   H     0.66677   0.55829   0.47095   0.00000  Uiso   1.00
H279   H     0.99292   0.54197   0.11932   0.00000  Uiso   1.00
H280   H     0.67608   0.44824   0.37883   0.00000  Uiso   1.00
H281   H     0.97857   0.42508   0.45595   0.00000  Uiso   1.00
H282   H     0.69256   0.55849   0.04090   0.00000  Uiso   1.00
H283   H     0.90204   0.34674   0.25557   0.00000  Uiso   1.00
H284   H     0.76461   0.65326   0.24445   0.00000  Uiso   1.00
N285   N     0.98173   0.51401   0.26212   0.00000  Uiso   1.00
N286   N     0.68494   0.48599   0.23788   0.00000  Uiso   1.00
O287   O     0.79482   0.57142   0.24686   0.00000  Uiso   1.00
O288   O     0.87185   0.42858   0.25314   0.00000  Uiso   1.00
O289   O     0.89496   0.58086   0.25502   0.00000  Uiso   1.00
O290   O     0.77171   0.41914   0.24497   0.00000  Uiso   1.00
O291   O     0.75518   0.49263   0.30855   0.00000  Uiso   1.00
O292   O     0.91149   0.50737   0.19145   0.00000  Uiso   1.00
O293   O     0.85532   0.50207   0.31671   0.00000  Uiso   1.00
O294   O     0.81134   0.49793   0.18329   0.00000  Uiso   1.00
H295   H     0.80321   0.47649   0.10975   0.00000  Uiso   1.00
H296   H     0.86018   0.52814   0.39141   0.00000  Uiso   1.00
H297   H     0.74486   0.44282   0.07000   0.00000  Uiso   1.00
H298   H     0.92782   0.53779   0.42590   0.00000  Uiso   1.00
F299   F     0.67011   0.54204   0.29443   0.00000  Uiso   1.00
F300   F     0.99656   0.45796   0.20557   0.00000  Uiso   1.00
C301   C     0.18175   0.93339   0.25132   0.00000  Uiso   1.00
C302   C     0.15158   0.73327   0.24868   0.00000  Uiso   1.00
C303   C     0.09571   0.79114   0.03744   0.00000  Uiso   1.00
C304   C     0.24179   0.86056   0.45958   0.00000  Uiso   1.00
C305   C     0.05295   0.77833   0.01131   0.00000  Uiso   1.00
C306   C     0.28484   0.87238   0.48552   0.00000  Uiso   1.00
C307   C     0.19016   0.98944   0.25194   0.00000  Uiso   1.00
C308   C     0.14316   0.67723   0.24808   0.00000  Uiso   1.00
C309   C     0.12812   0.82932   0.33305   0.00000  Uiso   1.00
C310   C     0.20519   0.83698   0.16690   0.00000  Uiso   1.00
C311   C     0.10484   0.82202   0.38036   0.00000  Uiso   1.00
C312   C     0.22844   0.84131   0.11926   0.00000  Uiso   1.00
C313   C     0.02620   0.78052   0.44240   0.00000  Uiso   1.00
C314   C     0.31034   0.87317   0.05521   0.00000  Uiso   1.00
C315   C     0.04336   0.79426   0.39865   0.00000  Uiso   1.00
C316   C     0.29176   0.86353   0.09983   0.00000  Uiso   1.00
C317   C     0.14793   0.83798   0.40657   0.00000  Uiso   1.00
C318   C     0.18479   0.82623   0.09333   0.00000  Uiso   1.00
C319   C     0.13274   0.82303   0.45038   0.00000  Uiso   1.00
C320   C     0.20243   0.83462   0.04810   0.00000  Uiso   1.00
C321   C     0.07043   0.79413   0.46818   0.00000  Uiso   1.00
C322   C     0.26605   0.85991   0.02948   0.00000  Uiso   1.00
C323   C     0.17774   0.83515   0.47664   0.00000  Uiso   1.00
C324   C     0.15829   0.82035   0.02128   0.00000  Uiso   1.00
Cu325  Cu    0.10737   0.82775   0.24517   0.00000  Uiso   1.00
Cu326  Cu    0.22596   0.83892   0.25483   0.00000  Uiso   1.00
H327   H     0.00559   0.75582   0.02510   0.00000  Uiso   1.00
H328   H     0.00010   0.89162   0.47095   0.00000  Uiso   1.00
H329   H     0.32625   0.87531   0.11932   0.00000  Uiso   1.00
H330   H     0.00941   0.78158   0.37883   0.00000  Uiso   1.00
H331   H     0.31191   0.75841   0.45595   0.00000  Uiso   1.00
H332   H     0.02589   0.89182   0.04090   0.00000  Uiso   1.00
H333   H     0.23538   0.68007   0.25557   0.00000  Uiso   1.00
H334   H     0.09795   0.98659   0.24445   0.00000  Uiso   1.00
N335   N     0.31506   0.84735   0.26212   0.00000  Uiso   1.00
N336   N     0.01827   0.81932   0.23788   0.00000  Uiso   1.00
O337   O     0.12815   0.90476   0.24686   0.00000  Uiso   1.00
O338   O     0.20518   0.76191   0.25314   0.00000  Uiso   1.00
O339   O     0.22829   0.91420   0.25502   0.00000  Uiso   1.00
O340   O     0.10504   0.75247   0.24497   0.00000  Uiso   1.00
O341   O     0.08851   0.82597   0.30855   0.00000  Uiso   1.00
O342   O     0.24482   0.84070   0.19145   0.00000  Uiso   1.00
O343   O     0.18866   0.83540   0.31671   0.00000  Uiso   1.00
O344   O     0.14468   0.83126   0.18329   0.00000  Uiso   1.00
H345   H     0.13655   0.80982   0.10975   0.00000  Uiso   1.00
H346   H     0.19351   0.86147   0.39141   0.00000  Uiso   1.00
H347   H     0.07819   0.77615   0.07000   0.00000  Uiso   1.00
H348   H     0.26115   0.87113   0.42590   0.00000  Uiso   1.00
F349   F     0.00344   0.87538   0.29443   0.00000  Uiso   1.00
F350   F     0.32989   0.79129   0.20557   0.00000  Uiso   1.00
C351   C     0.51508   0.93339   0.25132   0.00000  Uiso   1.00
C352   C     0.48492   0.73327   0.24868   0.00000  Uiso   1.00
C353   C     0.42904   0.79114   0.03744   0.00000  Uiso   1.00
C354   C     0.57512   0.86056   0.45958   0.00000  Uiso   1.00
C355   C     0.38628   0.77833   0.01131   0.00000  Uiso   1.00
C356   C     0.61818   0.87238   0.48552   0.00000  Uiso   1.00
C357   C     0.52349   0.98944   0.25194   0.00000  Uiso   1.00
C358   C     0.47650   0.67723   0.24808   0.00000  Uiso   1.00
C359   C     0.46145   0.82932   0.33305   0.00000  Uiso   1.00
C360   C     0.53852   0.83698   0.16690   0.00000  Uiso   1.00
C361   C     0.43818   0.82202   0.38036   0.00000  Uiso   1.00
C362   C     0.56177   0.84131   0.11926   0.00000  Uiso   1.00
C363   C     0.35954   0.78052   0.44240   0.00000  Uiso   1.00
C364   C     0.64368   0.87317   0.05521   0.00000  Uiso   1.00
C365   C     0.37669   0.79426   0.39865   0.00000  Uiso   1.00
C366   C     0.62510   0.86353   0.09983   0.00000  Uiso   1.00
C367   C     0.48126   0.83798   0.40657   0.00000  Uiso   1.00
C368   C     0.51812   0.82623   0.09333   0.00000  Uiso   1.00
C369   C     0.46607   0.82303   0.45038   0.00000  Uiso   1.00
C370   C     0.53576   0.83462   0.04810   0.00000  Uiso   1.00
C371   C     0.40377   0.79413   0.46818   0.00000  Uiso   1.00
C372   C     0.59938   0.85991   0.02948   0.00000  Uiso   1.00
C373   C     0.51107   0.83515   0.47664   0.00000  Uiso   1.00
C374   C     0.49163   0.82035   0.02128   0.00000  Uiso   1.00
Cu375  Cu    0.44071   0.82775   0.24517   0.00000  Uiso   1.00
Cu376  Cu    0.55929   0.83892   0.25483   0.00000  Uiso   1.00
H377   H     0.33892   0.75582   0.02510   0.00000  Uiso   1.00
H378   H     0.33344   0.89162   0.47095   0.00000  Uiso   1.00
H379   H     0.65958   0.87531   0.11932   0.00000  Uiso   1.00
H380   H     0.34274   0.78158   0.37883   0.00000  Uiso   1.00
H381   H     0.64524   0.75841   0.45595   0.00000  Uiso   1.00
H382   H     0.35923   0.89182   0.04090   0.00000  Uiso   1.00
H383   H     0.56871   0.68007   0.25557   0.00000  Uiso   1.00
H384   H     0.43128   0.98659   0.24445   0.00000  Uiso   1.00
N385   N     0.64839   0.84735   0.26212   0.00000  Uiso   1.00
N386   N     0.35161   0.81932   0.23788   0.00000  Uiso   1.00
O387   O     0.46148   0.90476   0.24686   0.00000  Uiso   1.00
O388   O     0.53852   0.76191   0.25314   0.00000  Uiso   1.00
O389   O     0.56163   0.91420   0.25502   0.00000  Uiso   1.00
O390   O     0.43837   0.75247   0.24497   0.00000  Uiso   1.00
O391   O     0.42185   0.82597   0.30855   0.00000  Uiso   1.00
O392   O     0.57815   0.84070   0.19145   0.00000  Uiso   1.00
O393   O     0.52199   0.83540   0.31671   0.00000  Uiso   1.00
O394   O     0.47801   0.83126   0.18329   0.00000  Uiso   1.00
H395   H     0.46988   0.80982   0.10975   0.00000  Uiso   1.00
H396   H     0.52685   0.86147   0.39141   0.00000  Uiso   1.00
H397   H     0.41153   0.77615   0.07000   0.00000  Uiso   1.00
H398   H     0.59449   0.87113   0.42590   0.00000  Uiso   1.00
F399   F     0.33678   0.87538   0.29443   0.00000  Uiso   1.00
F400   F     0.66322   0.79129   0.20557   0.00000  Uiso   1.00
C401   C     0.84841   0.93339   0.25132   0.00000  Uiso   1.00
C402   C     0.81825   0.73327   0.24868   0.00000  Uiso   1.00
C403   C     0.76237   0.79114   0.03744   0.00000  Uiso   1.00
C404   C     0.90845   0.86056   0.45958   0.00000  Uiso   1.00
C405   C     0.71961   0.77833   0.01131   0.00000  Uiso   1.00
C406   C     0.95151   0.87238   0.48552   0.00000  Uiso   1.00
C407   C     0.85683   0.98944   0.25194   0.00000  Uiso   1.00
C408   C     0.80983   0.67723   0.24808   0.00000  Uiso   1.00
C409   C     0.79478   0.82932   0.33305   0.00000  Uiso   1.00
C410   C     0.87185   0.83698   0.16690   0.00000  Uiso   1.00
C411   C     0.77151   0.82202   0.38036   0.00000  Uiso   1.00
C412   C     0.89510   0.84131   0.11926   0.00000  Uiso   1.00
C413   C     0.69287   0.78052   0.44240   0.00000  Uiso   1.00
C414   C     0.97701   0.87317   0.05521   0.00000  Uiso   1.00
C415   C     0.71003   0.79426   0.39865   0.00000  Uiso   1.00
C416   C     0.95843   0.86353   0.09983   0.00000  Uiso   1.00
C417   C     0.81459   0.83798   0.40657   0.00000  Uiso   1.00
C418   C     0.85145   0.82623   0.09333   0.00000  Uiso   1.00
C419   C     0.79941   0.82303   0.45038   0.00000  Uiso   1.00
C420   C     0.86909   0.83462   0.04810   0.00000  Uiso   1.00
C421   C     0.73710   0.79413   0.46818   0.00000  Uiso   1.00
C422   C     0.93272   0.85991   0.02948   0.00000  Uiso   1.00
C423   C     0.84440   0.83515   0.47664   0.00000  Uiso   1.00
C424   C     0.82496   0.82035   0.02128   0.00000  Uiso   1.00
Cu425  Cu    0.77404   0.82775   0.24517   0.00000  Uiso   1.00
Cu426  Cu    0.89263   0.83892   0.25483   0.00000  Uiso   1.00
H427   H     0.67225   0.75582   0.02510   0.00000  Uiso   1.00
H428   H     0.66677   0.89162   0.47095   0.00000  Uiso   1.00
H429   H     0.99292   0.87531   0.11932   0.00000  Uiso   1.00
H430   H     0.67608   0.78158   0.37883   0.00000  Uiso   1.00
H431   H     0.97857   0.75841   0.45595   0.00000  Uiso   1.00
H432   H     0.69256   0.89182   0.04090   0.00000  Uiso   1.00
H433   H     0.90204   0.68007   0.25557   0.00000  Uiso   1.00
H434   H     0.76461   0.98659   0.24445   0.00000  Uiso   1.00
N435   N     0.98173   0.84735   0.26212   0.00000  Uiso   1.00
N436   N     0.68494   0.81932   0.23788   0.00000  Uiso   1.00
O437   O     0.79482   0.90476   0.24686   0.00000  Uiso   1.00
O438   O     0.87185   0.76191   0.25314   0.00000  Uiso   1.00
O439   O     0.89496   0.91420   0.25502   0.00000  Uiso   1.00
O440   O     0.77171   0.75247   0.24497   0.00000  Uiso   1.00
O441   O     0.75518   0.82597   0.30855   0.00000  Uiso   1.00
O442   O     0.91149   0.84070   0.19145   0.00000  Uiso   1.00
O443   O     0.85532   0.83540   0.31671   0.00000  Uiso   1.00
O444   O     0.81134   0.83126   0.18329   0.00000  Uiso   1.00
H445   H     0.80321   0.80982   0.10975   0.00000  Uiso   1.00
H446   H     0.86018   0.86147   0.39141   0.00000  Uiso   1.00
H447   H     0.74486   0.77615   0.07000   0.00000  Uiso   1.00
H448   H     0.92782   0.87113   0.42590   0.00000  Uiso   1.00
F449   F     0.67011   0.87538   0.29443   0.00000  Uiso   1.00
F450   F     0.99656   0.79129   0.20557   0.00000  Uiso   1.00
C451   C     0.18175   0.26673   0.75132   0.00000  Uiso   1.00
C452   C     0.15158   0.06661   0.74868   0.00000  Uiso   1.00
C453   C     0.09571   0.12447   0.53744   0.00000  Uiso   1.00
C454   C     0.24179   0.19389   0.95958   0.00000  Uiso   1.00
C455   C     0.05295   0.11167   0.51131   0.00000  Uiso   1.00
C456   C     0.28484   0.20571   0.98552   0.00000  Uiso   1.00
C457   C     0.19016   0.32277   0.75194   0.00000  Uiso   1.00
C458   C     0.14316   0.01056   0.74808   0.00000  Uiso   1.00
C459   C     0.12812   0.16266   0.83305   0.00000  Uiso   1.00
C460   C     0.20519   0.17032   0.66690   0.00000  Uiso   1.00
C461   C     0.10484   0.15536   0.88036   0.00000  Uiso   1.00
C462   C     0.22844   0.17464   0.61926   0.00000  Uiso   1.00
C463   C     0.02620   0.11385   0.94240   0.00000  Uiso   1.00
C464   C     0.31034   0.20650   0.55521   0.00000  Uiso   1.00
C465   C     0.04336   0.12759   0.89865   0.00000  Uiso   1.00
C466   C     0.29176   0.19686   0.59983   0.00000  Uiso   1.00
C467   C     0.14793   0.17132   0.90657   0.00000  Uiso   1.00
C468   C     0.18479   0.15957   0.59333   0.00000  Uiso   1.00
C469   C     0.13274   0.15636   0.95038   0.00000  Uiso   1.00
C470   C     0.20243   0.16796   0.54810   0.00000  Uiso   1.00
C471   C     0.07043   0.12746   0.96818   0.00000  Uiso   1.00
C472   C     0.26605   0.19325   0.52948   0.00000  Uiso   1.00
C473   C     0.17774   0.16848   0.97664   0.00000  Uiso   1.00
C474   C     0.15829   0.15368   0.52128   0.00000  Uiso   1.00
Cu475  Cu    0.10737   0.16108   0.74517   0.00000  Uiso   1.00
Cu476  Cu    0.22596   0.17225   0.75483   0.00000  Uiso   1.00
H477   H     0.00559   0.08915   0.52510   0.00000  Uiso   1.00
H478   H     0.00010   0.22496   0.97095   0.00000  Uiso   1.00
H479   H     0.32625   0.20864   0.61932   0.00000  Uiso   1.00
H480   H     0.00941   0.11491   0.87883   0.00000  Uiso   1.00
H481   H     0.31191   0.09174   0.95595   0.00000  Uiso   1.00
H482   H     0.02589   0.22515   0.54090   0.00000  Uiso   1.00
H483   H     0.23538   0.01341   0.75557   0.00000  Uiso   1.00
H484   H     0.09795   0.31993   0.74445   0.00000  Uiso   1.00
N485   N     0.31506   0.18068   0.76212   0.00000  Uiso   1.00
N486   N     0.01827   0.15265   0.73788   0.00000  Uiso   1.00
O487   O     0.12815   0.23809   0.74686   0.00000  Uiso   1.00
O488   O     0.20518   0.09524   0.75314   0.00000  Uiso   1.00
O489   O     0.22829   0.24753   0.75502   0.00000  Uiso   1.00
O490   O     0.10504   0.08580   0.74497   0.00000  Uiso   1.00
O491   O     0.08851   0.15930   0.80855   0.00000  Uiso   1.00
O492   O     0.24482   0.17403   0.69145   0.00000  Uiso   1.00
O493   O     0.18866   0.16874   0.81671   0.00000  Uiso   1.00
O494   O     0.14468   0.16460   0.68329   0.00000  Uiso   1.00
H495   H     0.13655   0.14315   0.60975   0.00000  Uiso   1.00
H496   H     0.19351   0.19481   0.89141   0.00000  Uiso   1.00
H497   H     0.07819   0.10949   0.57000   0.00000  Uiso   1.00
H498   H     0.26115   0.20446   0.92590   0.00000  Uiso   1.00
F499   F     0.00344   0.20871   0.79443   0.00000  Uiso   1.00
F500   F     0.32989   0.12462   0.70557   0.00000  Uiso   1.00
C501   C     0.51508   0.26673   0.75132   0.00000  Uiso   1.00
C502   C     0.48492   0.06661   0.74868   0.00000  Uiso   1.00
C503   C     0.42904   0.12447   0.53744   0.00000  Uiso   1.00
C504   C     0.57512   0.19389   0.95958   0.00000  Uiso   1.00
C505   C     0.38628   0.11167   0.51131   0.00000  Uiso   1.00
C506   C     0.61818   0.20571   0.98552   0.00000  Uiso   1.00
C507   C     0.52349   0.32277   0.75194   0.00000  Uiso   1.00
C508   C     0.47650   0.01056   0.74808   0.00000  Uiso   1.00
C509   C     0.46145   0.16266   0.83305   0.00000  Uiso   1.00
C510   C     0.53852   0.17032   0.66690   0.00000  Uiso   1.00
C511   C     0.43818   0.15536   0.88036   0.00000  Uiso   1.00
C512   C     0.56177   0.17464   0.61926   0.00000  Uiso   1.00
C513   C     0.35954   0.11385   0.94240   0.00000  Uiso   1.00
C514   C     0.64368   0.20650   0.55521   0.00000  Uiso   1.00
C515   C     0.37669   0.12759   0.89865   0.00000  Uiso   1.00
C516   C     0.62510   0.19686   0.59983   0.00000  Uiso   1.00
C517   C     0.48126   0.17132   0.90657   0.00000  Uiso   1.00
C518   C     0.51812   0.15957   0.59333   0.00000  Uiso   1.00
C519   C     0.46607   0.15636   0.95038   0.00000  Uiso   1.00
C520   C     0.53576   0.16796   0.54810   0.00000  Uiso   1.00
C521   C     0.40377   0.12746   0.96818   0.00000  Uiso   1.00
C522   C     0.59938   0.19325   0.52948   0.00000  Uiso   1.00
C523   C     0.51107   0.16848   0.97664   0.00000  Uiso   1.00
C524   C     0.49163   0.15368   0.52128   0.00000  Uiso   1.00
Cu525  Cu    0.44071   0.16108   0.74517   0.00000  Uiso   1.00
Cu526  Cu    0.55929   0.17225   0.75483   0.00000  Uiso   1.00
H527   H     0.33892   0.08915   0.52510   0.00000  Uiso   1.00
H528   H     0.33344   0.22496   0.97095   0.00000  Uiso   1.00
H529   H     0.65958   0.20864   0.61932   0.00000  Uiso   1.00
H530   H     0.34274   0.11491   0.87883   0.00000  Uiso   1.00
H531   H     0.64524   0.09174   0.95595   0.00000  Uiso   1.00
H532   H     0.35923   0.22515   0.54090   0.00000  Uiso   1.00
H533   H     0.56871   0.01341   0.75557   0.00000  Uiso   1.00
H534   H     0.43128   0.31993   0.74445   0.00000  Uiso   1.00
N535   N     0.64839   0.18068   0.76212   0.00000  Uiso   1.00
N536   N     0.35161   0.15265   0.73788   0.00000  Uiso   1.00
O537   O     0.46148   0.23809   0.74686   0.00000  Uiso   1.00
O538   O     0.53852   0.09524   0.75314   0.00000  Uiso   1.00
O539   O     0.56163   0.24753   0.75502   0.00000  Uiso   1.00
O540   O     0.43837   0.08580   0.74497   0.00000  Uiso   1.00
O541   O     0.42185   0.15930   0.80855   0.00000  Uiso   1.00
O542   O     0.57815   0.17403   0.69145   0.00000  Uiso   1.00
O543   O     0.52199   0.16874   0.81671   0.00000  Uiso   1.00
O544   O     0.47801   0.16460   0.68329   0.00000  Uiso   1.00
H545   H     0.46988   0.14315   0.60975   0.00000  Uiso   1.00
H546   H     0.52685   0.19481   0.89141   0.00000  Uiso   1.00
H547   H     0.41153   0.10949   0.57000   0.00000  Uiso   1.00
H548   H     0.59449   0.20446   0.92590   0.00000  Uiso   1.00
F549   F     0.33678   0.20871   0.79443   0.00000  Uiso   1.00
F550   F     0.66322   0.12462   0.70557   0.00000  Uiso   1.00
C551   C     0.84841   0.26673   0.75132   0.00000  Uiso   1.00
C552   C     0.81825   0.06661   0.74868   0.00000  Uiso   1.00
C553   C     0.76237   0.12447   0.53744   0.00000  Uiso   1.00
C554   C     0.90845   0.19389   0.95958   0.00000  Uiso   1.00
C555   C     0.71961   0.11167   0.51131   0.00000  Uiso   1.00
C556   C     0.95151   0.20571   0.98552   0.00000  Uiso   1.00
C557   C     0.85683   0.32277   0.75194   0.00000  Uiso   1.00
C558   C     0.80983   0.01056   0.74808   0.00000  Uiso   1.00
C559   C     0.79478   0.16266   0.83305   0.00000  Uiso   1.00
C560   C     0.87185   0.17032   0.66690   0.00000  Uiso   1.00
C561   C     0.77151   0.15536   0.88036   0.00000  Uiso   1.00
C562   C     0.89510   0.17464   0.61926   0.00000  Uiso   1.00
C563   C     0.69287   0.11385   0.94240   0.00000  Uiso   1.00
C564   C     0.97701   0.20650   0.55521   0.00000  Uiso   1.00
C565   C     0.71003   0.12759   0.89865   0.00000  Uiso   1.00
C566   C     0.95843   0.19686   0.59983   0.00000  Uiso   1.00
C567   C     0.81459   0.17132   0.90657   0.00000  Uiso   1.00
C568   C     0.85145   0.15957   0.59333   0.00000  Uiso   1.00
C569   C     0.79941   0.15636   0.95038   0.00000  Uiso   1.00
C570   C     0.86909   0.16796   0.54810   0.00000  Uiso   1.00
C571   C     0.73710   0.12746   0.96818   0.00000  Uiso   1.00
C572   C     0.93272   0.19325   0.52948   0.00000  Uiso   1.00
C573   C     0.84440   0.16848   0.97664   0.00000  Uiso   1.00
C574   C     0.82496   0.15368   0.52128   0.00000  Uiso   1.00
Cu575  Cu    0.77404   0.16108   0.74517   0.00000  Uiso   1.00
Cu576  Cu    0.89263   0.17225   0.75483   0.00000  Uiso   1.00
H577   H     0.67225   0.08915   0.52510   0.00000  Uiso   1.00
H578   H     0.66677   0.22496   0.97095   0.00000  Uiso   1.00
H579   H     0.99292   0.20864   0.61932   0.00000  Uiso   1.00
H580   H     0.67608   0.11491   0.87883   0.00000  Uiso   1.00
H581   H     0.97857   0.09174   0.95595   0.00000  Uiso   1.00
H582   H     0.69256   0.22515   0.54090   0.00000  Uiso   1.00
H583   H     0.90204   0.01341   0.75557   0.00000  Uiso   1.00
H584   H     0.76461   0.31993   0.74445   0.00000  Uiso   1.00
N585   N     0.98173   0.18068   0.76212   0.00000  Uiso   1.00
N586   N     0.68494   0.15265   0.73788   0.00000  Uiso   1.00
O587   O     0.79482   0.23809   0.74686   0.00000  Uiso   1.00
O588   O     0.87185   0.09524   0.75314   0.00000  Uiso   1.00
O589   O     0.89496   0.24753   0.75502   0.00000  Uiso   1.00
O590   O     0.77171   0.08580   0.74497   0.00000  Uiso   1.00
O591   O     0.75518   0.15930   0.80855   0.00000  Uiso   1.00
O592   O     0.91149   0.17403   0.69145   0.00000  Uiso   1.00
O593   O     0.85532   0.16874   0.81671   0.00000  Uiso   1.00
O594   O     0.81134   0.16460   0.68329   0.00000  Uiso   1.00
H595   H     0.80321   0.14315   0.60975   0.00000  Uiso   1.00
H596   H     0.86018   0.19481   0.89141   0.00000  Uiso   1.00
H597   H     0.74486   0.10949   0.57000   0.00000  Uiso   1.00
H598   H     0.92782   0.20446   0.92590   0.00000  Uiso   1.00
F599   F     0.67011   0.20871   0.79443   0.00000  Uiso   1.00
F600   F     0.99656   0.12462   0.70557   0.00000  Uiso   1.00
C601   C     0.18175   0.60006   0.75132   0.00000  Uiso   1.00
C602   C     0.15158   0.39994   0.74868   0.00000  Uiso   1.00
C603   C     0.09571   0.45781   0.53744   0.00000  Uiso   1.00
C604   C     0.24179   0.52722   0.95958   0.00000  Uiso   1.00
C605   C     0.05295   0.44500   0.51131   0.00000  Uiso   1.00
C606   C     0.28484   0.53904   0.98552   0.00000  Uiso   1.00
C607   C     0.19016   0.65610   0.75194   0.00000  Uiso   1.00
C608   C     0.14316   0.34390   0.74808   0.00000  Uiso   1.00
C609   C     0.12812   0.49599   0.83305   0.00000  Uiso   1.00
C610   C     0.20519   0.50365   0.66690   0.00000  Uiso   1.00
C611   C     0.10484   0.48869   0.88036   0.00000  Uiso   1.00
C612   C     0.22844   0.50798   0.61926   0.00000  Uiso   1.00
C613   C     0.02620   0.44719   0.94240   0.00000  Uiso   1.00
C614   C     0.31034   0.53984   0.55521   0.00000  Uiso   1.00
C615   C     0.04336   0.46093   0.89865   0.00000  Uiso   1.00
C616   C     0.29176   0.53020   0.59983   0.00000  Uiso   1.00
C617   C     0.14793   0.50465   0.90657   0.00000  Uiso   1.00
C618   C     0.18479   0.49290   0.59333   0.00000  Uiso   1.00
C619   C     0.13274   0.48969   0.95038   0.00000  Uiso   1.00
C620   C     0.20243   0.50129   0.54810   0.00000  Uiso   1.00
C621   C     0.07043   0.46079   0.96818   0.00000  Uiso   1.00
C622   C     0.26605   0.52658   0.52948   0.00000  Uiso   1.00
C623   C     0.17774   0.50181   0.97664   0.00000  Uiso   1.00
C624   C     0.15829   0.48702   0.52128   0.00000  Uiso   1.00
Cu625  Cu    0.10737   0.49441   0.74517   0.00000  Uiso   1.00
Cu626  Cu    0.22596   0.50559   0.75483   0.00000  Uiso   1.00
H627   H     0.00559   0.42248   0.52510   0.00000  Uiso   1.00
H628   H     0.00010   0.55829   0.97095   0.00000  Uiso   1.00
H629   H     0.32625   0.54197   0.61932   0.00000  Uiso   1.00
H630   H     0.00941   0.44824   0.87883   0.00000  Uiso   1.00
H631   H     0.31191   0.42508   0.95595   0.00000  Uiso   1.00
H632   H     0.02589   0.55849   0.54090   0.00000  Uiso   1.00
H633   H     0.23538   0.34674   0.75557   0.00000  Uiso   1.00
H634   H     0.09795   0.65326   0.74445   0.00000  Uiso   1.00
N635   N     0.31506   0.51401   0.76212   0.00000  Uiso   1.00
N636   N     0.01827   0.48599   0.73788   0.00000  Uiso   1.00
O637   O     0.12815   0.57142   0.74686   0.00000  Uiso   1.00
O638   O     0.20518   0.42858   0.75314   0.00000  Uiso   1.00
O639   O     0.22829   0.58086   0.75502   0.00000  Uiso   1.00
O640   O     0.10504   0.41914   0.74497   0.00000  Uiso   1.00
O641   O     0.08851   0.49263   0.80855   0.00000  Uiso   1.00
O642   O     0.24482   0.50737   0.69145   0.00000  Uiso   1.00
O643   O     0.18866   0.50207   0.81671   0.00000  Uiso   1.00
O644   O     0.14468   0.49793   0.68329   0.00000  Uiso   1.00
H645   H     0.13655   0.47649   0.60975   0.00000  Uiso   1.00
H646   H     0.19351   0.52814   0.89141   0.00000  Uiso   1.00
H647   H     0.07819   0.44282   0.57000   0.00000  Uiso   1.00
H648   H     0.26115   0.53779   0.92590   0.00000  Uiso   1.00
F649   F     0.00344   0.54204   0.79443   0.00000  Uiso   1.00
F650   F     0.32989   0.45796   0.70557   0.00000  Uiso   1.00
C651   C     0.51508   0.60006   0.75132   0.00000  Uiso   1.00
C652   C     0.48492   0.39994   0.74868   0.00000  Uiso   1.00
C653   C     0.42904   0.45781   0.53744   0.00000  Uiso   1.00
C654   C     0.57512   0.52722   0.95958   0.00000  Uiso   1.00
C655   C     0.38628   0.44500   0.51131   0.00000  Uiso   1.00
C656   C     0.61818   0.53904   0.98552   0.00000  Uiso   1.00
C657   C     0.52349   0.65610   0.75194   0.00000  Uiso   1.00
C658   C     0.47650   0.34390   0.74808   0.00000  Uiso   1.00
C659   C     0.46145   0.49599   0.83305   0.00000  Uiso   1.00
C660   C     0.53852   0.50365   0.66690   0.00000  Uiso   1.00
C661   C     0.43818   0.48869   0.88036   0.00000  Uiso   1.00
C662   C     0.56177   0.50798   0.61926   0.00000  Uiso   1.00
C663   C     0.35954   0.44719   0.94240   0.00000  Uiso   1.00
C664   C     0.64368   0.53984   0.55521   0.00000  Uiso   1.00
C665   C     0.37669   0.46093   0.89865   0.00000  Uiso   1.00
C666   C     0.62510   0.53020   0.59983   0.00000  Uiso   1.00
C667   C     0.48126   0.50465   0.90657   0.00000  Uiso   1.00
C668   C     0.51812   0.49290   0.59333   0.00000  Uiso   1.00
C669   C     0.46607   0.48969   0.95038   0.00000  Uiso   1.00
C670   C     0.53576   0.50129   0.54810   0.00000  Uiso   1.00
C671   C     0.40377   0.46079   0.96818   0.00000  Uiso   1.00
C672   C     0.59938   0.52658   0.52948   0.00000  Uiso   1.00
C673   C     0.51107   0.50181   0.97664   0.00000  Uiso   1.00
C674   C     0.49163   0.48702   0.52128   0.00000  Uiso   1.00
Cu675  Cu    0.44071   0.49441   0.74517   0.00000  Uiso   1.00
Cu676  Cu    0.55929   0.50559   0.75483   0.00000  Uiso   1.00
H677   H     0.33892   0.42248   0.52510   0.00000  Uiso   1.00
H678   H     0.33344   0.55829   0.97095   0.00000  Uiso   1.00
H679   H     0.65958   0.54197   0.61932   0.00000  Uiso   1.00
H680   H     0.34274   0.44824   0.87883   0.00000  Uiso   1.00
H681   H     0.64524   0.42508   0.95595   0.00000  Uiso   1.00
H682   H     0.35923   0.55849   0.54090   0.00000  Uiso   1.00
H683   H     0.56871   0.34674   0.75557   0.00000  Uiso   1.00
H684   H     0.43128   0.65326   0.74445   0.00000  Uiso   1.00
N685   N     0.64839   0.51401   0.76212   0.00000  Uiso   1.00
N686   N     0.35161   0.48599   0.73788   0.00000  Uiso   1.00
O687   O     0.46148   0.57142   0.74686   0.00000  Uiso   1.00
O688   O     0.53852   0.42858   0.75314   0.00000  Uiso   1.00
O689   O     0.56163   0.58086   0.75502   0.00000  Uiso   1.00
O690   O     0.43837   0.41914   0.74497   0.00000  Uiso   1.00
O691   O     0.42185   0.49263   0.80855   0.00000  Uiso   1.00
O692   O     0.57815   0.50737   0.69145   0.00000  Uiso   1.00
O693   O     0.52199   0.50207   0.81671   0.00000  Uiso   1.00
O694   O     0.47801   0.49793   0.68329   0.00000  Uiso   1.00
H695   H     0.46988   0.47649   0.60975   0.00000  Uiso   1.00
H696   H     0.52685   0.52814   0.89141   0.00000  Uiso   1.00
H697   H     0.41153   0.44282   0.57000   0.00000  Uiso   1.00
H698   H     0.59449   0.53779   0.92590   0.00000  Uiso   1.00
F699   F     0.33678   0.54204   0.79443   0.00000  Uiso   1.00
F700   F     0.66322   0.45796   0.70557   0.00000  Uiso   1.00
C701   C     0.84841   0.60006   0.75132   0.00000  Uiso   1.00
C702   C     0.81825   0.39994   0.74868   0.00000  Uiso   1.00
C703   C     0.76237   0.45781   0.53744   0.00000  Uiso   1.00
C704   C     0.90845   0.52722   0.95958   0.00000  Uiso   1.00
C705   C     0.71961   0.44500   0.51131   0.00000  Uiso   1.00
C706   C     0.95151   0.53904   0.98552   0.00000  Uiso   1.00
C707   C     0.85683   0.65610   0.75194   0.00000  Uiso   1.00
C708   C     0.80983   0.34390   0.74808   0.00000  Uiso   1.00
C709   C     0.79478   0.49599   0.83305   0.00000  Uiso   1.00
C710   C     0.87185   0.50365   0.66690   0.00000  Uiso   1.00
C711   C     0.77151   0.48869   0.88036   0.00000  Uiso   1.00
C712   C     0.89510   0.50798   0.61926   0.00000  Uiso   1.00
C713   C     0.69287   0.44719   0.94240   0.00000  Uiso   1.00
C714   C     0.97701   0.53984   0.55521   0.00000  Uiso   1.00
C715   C     0.71003   0.46093   0.89865   0.00000  Uiso   1.00
C716   C     0.95843   0.53020   0.59983   0.00000  Uiso   1.00
C717   C     0.81459   0.50465   0.90657   0.00000  Uiso   1.00
C718   C     0.85145   0.49290   0.59333   0.00000  Uiso   1.00
C719   C     0.79941   0.48969   0.95038   0.00000  Uiso   1.00
C720   C     0.86909   0.50129   0.54810   0.00000  Uiso   1.00
C721   C     0.73710   0.46079   0.96818   0.00000  Uiso   1.00
C722   C     0.93272   0.52658   0.52948   0.00000  Uiso   1.00
C723   C     0.84440   0.50181   0.97664   0.00000  Uiso   1.00
C724   C     0.82496   0.48702   0.52128   0.00000  Uiso   1.00
Cu725  Cu    0.77404   0.49441   0.74517   0.00000  Uiso   1.00
Cu726  Cu    0.89263   0.50559   0.75483   0.00000  Uiso   1.00
H727   H     0.67225   0.42248   0.52510   0.00000  Uiso   1.00
H728   H     0.66677   0.55829   0.97095   0.00000  Uiso   1.00
H729   H     0.99292   0.54197   0.61932   0.00000  Uiso   1.00
H730   H     0.67608   0.44824   0.87883   0.00000  Uiso   1.00
H731   H     0.97857   0.42508   0.95595   0.00000  Uiso   1.00
H732   H     0.69256   0.55849   0.54090   0.00000  Uiso   1.00
H733   H     0.90204   0.34674   0.75557   0.00000  Uiso   1.00
H734   H     0.76461   0.65326   0.74445   0.00000  Uiso   1.00
N735   N     0.98173   0.51401   0.76212   0.00000  Uiso   1.00
N736   N     0.68494   0.48599   0.73788   0.00000  Uiso   1.00
O737   O     0.79482   0.57142   0.74686   0.00000  Uiso   1.00
O738   O     0.87185   0.42858   0.75314   0.00000  Uiso   1.00
O739   O     0.89496   0.58086   0.75502   0.00000  Uiso   1.00
O740   O     0.77171   0.41914   0.74497   0.00000  Uiso   1.00
O741   O     0.75518   0.49263   0.80855   0.00000  Uiso   1.00
O742   O     0.91149   0.50737   0.69145   0.00000  Uiso   1.00
O743   O     0.85532   0.50207   0.81671   0.00000  Uiso   1.00
O744   O     0.81134   0.49793   0.68329   0.00000  Uiso   1.00
H745   H     0.80321   0.47649   0.60975   0.00000  Uiso   1.00
H746   H     0.86018   0.52814   0.89141   0.00000  Uiso   1.00
H747   H     0.74486   0.44282   0.57000   0.00000  Uiso   1.00
H748   H     0.92782   0.53779   0.92590   0.00000  Uiso   1.00
F749   F     0.67011   0.54204   0.79443   0.00000  Uiso   1.00
F750   F     0.99656   0.45796   0.70557   0.00000  Uiso   1.00
C751   C     0.18175   0.93339   0.75132   0.00000  Uiso   1.00
C752   C     0.15158   0.73327   0.74868   0.00000  Uiso   1.00
C753   C     0.09571   0.79114   0.53744   0.00000  Uiso   1.00
C754   C     0.24179   0.86056   0.95958   0.00000  Uiso   1.00
C755   C     0.05295   0.77833   0.51131   0.00000  Uiso   1.00
C756   C     0.28484   0.87238   0.98552   0.00000  Uiso   1.00
C757   C     0.19016   0.98944   0.75194   0.00000  Uiso   1.00
C758   C     0.14316   0.67723   0.74808   0.00000  Uiso   1.00
C759   C     0.12812   0.82932   0.83305   0.00000  Uiso   1.00
C760   C     0.20519   0.83698   0.66690   0.00000  Uiso   1.00
C761   C     0.10484   0.82202   0.88036   0.00000  Uiso   1.00
C762   C     0.22844   0.84131   0.61926   0.00000  Uiso   1.00
C763   C     0.02620   0.78052   0.94240   0.00000  Uiso   1.00
C764   C     0.31034   0.87317   0.55521   0.00000  Uiso   1.00
C765   C     0.04336   0.79426   0.89865   0.00000  Uiso   1.00
C766   C     0.29176   0.86353   0.59983   0.00000  Uiso   1.00
C767   C     0.14793   0.83798   0.90657   0.00000  Uiso   1.00
C768   C     0.18479   0.82623   0.59333   0.00000  Uiso   1.00
C769   C     0.13274   0.82303   0.95038   0.00000  Uiso   1.00
C770   C     0.20243   0.83462   0.54810   0.00000  Uiso   1.00
C771   C     0.07043   0.79413   0.96818   0.00000  Uiso   1.00
C772   C     0.26605   0.85991   0.52948   0.00000  Uiso   1.00
C773   C     0.17774   0.83515   0.97664   0.00000  Uiso   1.00
C774   C     0.15829   0.82035   0.52128   0.00000  Uiso   1.00
Cu775  Cu    0.10737   0.82775   0.74517   0.00000  Uiso   1.00
Cu776  Cu    0.22596   0.83892   0.75483   0.00000  Uiso   1.00
H777   H     0.00559   0.75582   0.52510   0.00000  Uiso   1.00
H778   H     0.00010   0.89162   0.97095   0.00000  Uiso   1.00
H779   H     0.32625   0.87531   0.61932   0.00000  Uiso   1.00
H780   H     0.00941   0.78158   0.87883   0.00000  Uiso   1.00
H781   H     0.31191   0.75841   0.95595   0.00000  Uiso   1.00
H782   H     0.02589   0.89182   0.54090   0.00000  Uiso   1.00
H783   H     0.23538   0.68007   0.75557   0.00000  Uiso   1.00
H784   H     0.09795   0.98659   0.74445   0.00000  Uiso   1.00
N785   N     0.31506   0.84735   0.76212   0.00000  Uiso   1.00
N786   N     0.01827   0.81932   0.73788   0.00000  Uiso   1.00
O787   O     0.12815   0.90476   0.74686   0.00000  Uiso   1.00
O788   O     0.20518   0.76191   0.75314   0.00000  Uiso   1.00
O789   O     0.22829   0.91420   0.75502   0.00000  Uiso   1.00
O790   O     0.10504   0.75247   0.74497   0.00000  Uiso   1.00
O791   O     0.08851   0.82597   0.80855   0.00000  Uiso   1.00
O792   O     0.24482   0.84070   0.69145   0.00000  Uiso   1.00
O793   O     0.18866   0.83540   0.81671   0.00000  Uiso   1.00
O794   O     0.14468   0.83126   0.68329   0.00000  Uiso   1.00
H795   H     0.13655   0.80982   0.60975   0.00000  Uiso   1.00
H796   H     0.19351   0.86147   0.89141   0.00000  Uiso   1.00
H797   H     0.07819   0.77615   0.57000   0.00000  Uiso   1.00
H798   H     0.26115   0.87113   0.92590   0.00000  Uiso   1.00
F799   F     0.00344   0.87538   0.79443   0.00000  Uiso   1.00
F800   F     0.32989   0.79129   0.70557   0.00000  Uiso   1.00
C801   C     0.51508   0.93339   0.75132   0.00000  Uiso   1.00
C802   C     0.48492   0.73327   0.74868   0.00000  Uiso   1.00
C803   C     0.42904   0.79114   0.53744   0.00000  Uiso   1.00
C804   C     0.57512   0.86056   0.95958   0.00000  Uiso   1.00
C805   C     0.38628   0.77833   0.51131   0.00000  Uiso   1.00
C806   C     0.61818   0.87238   0.98552   0.00000  Uiso   1.00
C807   C     0.52349   0.98944   0.75194   0.00000  Uiso   1.00
C808   C     0.47650   0.67723   0.74808   0.00000  Uiso   1.00
C809   C     0.46145   0.82932   0.83305   0.00000  Uiso   1.00
C810   C     0.53852   0.83698   0.66690   0.00000  Uiso   1.00
C811   C     0.43818   0.82202   0.88036   0.00000  Uiso   1.00
C812   C     0.56177   0.84131   0.61926   0.00000  Uiso   1.00
C813   C     0.35954   0.78052   0.94240   0.00000  Uiso   1.00
C814   C     0.64368   0.87317   0.55521   0.00000  Uiso   1.00
C815   C     0.37669   0.79426   0.89865   0.00000  Uiso   1.00
C816   C     0.62510   0.86353   0.59983   0.00000  Uiso   1.00
C817   C     0.48126   0.83798   0.90657   0.00000  Uiso   1.00
C818   C     0.51812   0.82623   0.59333   0.00000  Uiso   1.00
C819   C     0.46607   0.82303   0.95038   0.00000  Uiso   1.00
C820   C     0.53576   0.83462   0.54810   0.00000  Uiso   1.00
C821   C     0.40377   0.79413   0.96818   0.00000  Uiso   1.00
C822   C     0.59938   0.85991   0.52948   0.00000  Uiso   1.00
C823   C     0.51107   0.83515   0.97664   0.00000  Uiso   1.00
C824   C     0.49163   0.82035   0.52128   0.00000  Uiso   1.00
Cu825  Cu    0.44071   0.82775   0.74517   0.00000  Uiso   1.00
Cu826  Cu    0.55929   0.83892   0.75483   0.00000  Uiso   1.00
H827   H     0.33892   0.75582   0.52510   0.00000  Uiso   1.00
H828   H     0.33344   0.89162   0.97095   0.00000  Uiso   1.00
H829   H     0.65958   0.87531   0.61932   0.00000  Uiso   1.00
H830   H     0.34274   0.78158   0.87883   0.00000  Uiso   1.00
H831   H     0.64524   0.75841   0.95595   0.00000  Uiso   1.00
H832   H     0.35923   0.89182   0.54090   0.00000  Uiso   1.00
H833   H     0.56871   0.68007   0.75557   0.00000  Uiso   1.00
H834   H     0.43128   0.98659   0.74445   0.00000  Uiso   1.00
N835   N     0.64839   0.84735   0.76212   0.00000  Uiso   1.00
N836   N     0.35161   0.81932   0.73788   0.00000  Uiso   1.00
O837   O     0.46148   0.90476   0.74686   0.00000  Uiso   1.00
O838   O     0.53852   0.76191   0.75314   0.00000  Uiso   1.00
O839   O     0.56163   0.91420   0.75502   0.00000  Uiso   1.00
O840   O     0.43837   0.75247   0.74497   0.00000  Uiso   1.00
O841   O     0.42185   0.82597   0.80855   0.00000  Uiso   1.00
O842   O     0.57815   0.84070   0.69145   0.00000  Uiso   1.00
O843   O     0.52199   0.83540   0.81671   0.00000  Uiso   1.00
O844   O     0.47801   0.83126   0.68329   0.00000  Uiso   1.00
H845   H     0.46988   0.80982   0.60975   0.00000  Uiso   1.00
H846   H     0.52685   0.86147   0.89141   0.00000  Uiso   1.00
H847   H     0.41153   0.77615   0.57000   0.00000  Uiso   1.00
H848   H     0.59449   0.87113   0.92590   0.00000  Uiso   1.00
F849   F     0.33678   0.87538   0.79443   0.00000  Uiso   1.00
F850   F     0.66322   0.79129   0.70557   0.00000  Uiso   1.00
C851   C     0.84841   0.93339   0.75132   0.00000  Uiso   1.00
C852   C     0.81825   0.73327   0.74868   0.00000  Uiso   1.00
C853   C     0.76237   0.79114   0.53744   0.00000  Uiso   1.00
C854   C     0.90845   0.86056   0.95958   0.00000  Uiso   1.00
C855   C     0.71961   0.77833   0.51131   0.00000  Uiso   1.00
C856   C     0.95151   0.87238   0.98552   0.00000  Uiso   1.00
C857   C     0.85683   0.98944   0.75194   0.00000  Uiso   1.00
C858   C     0.80983   0.67723   0.74808   0.00000  Uiso   1.00
C859   C     0.79478   0.82932   0.83305   0.00000  Uiso   1.00
C860   C     0.87185   0.83698   0.66690   0.00000  Uiso   1.00
C861   C     0.77151   0.82202   0.88036   0.00000  Uiso   1.00
C862   C     0.89510   0.84131   0.61926   0.00000  Uiso   1.00
C863   C     0.69287   0.78052   0.94240   0.00000  Uiso   1.00
C864   C     0.97701   0.87317   0.55521   0.00000  Uiso   1.00
C865   C     0.71003   0.79426   0.89865   0.00000  Uiso   1.00
C866   C     0.95843   0.86353   0.59983   0.00000  Uiso   1.00
C867   C     0.81459   0.83798   0.90657   0.00000  Uiso   1.00
C868   C     0.85145   0.82623   0.59333   0.00000  Uiso   1.00
C869   C     0.79941   0.82303   0.95038   0.00000  Uiso   1.00
C870   C     0.86909   0.83462   0.54810   0.00000  Uiso   1.00
C871   C     0.73710   0.79413   0.96818   0.00000  Uiso   1.00
C872   C     0.93272   0.85991   0.52948   0.00000  Uiso   1.00
C873   C     0.84440   0.83515   0.97664   0.00000  Uiso   1.00
C874   C     0.82496   0.82035   0.52128   0.00000  Uiso   1.00
Cu875  Cu    0.77404   0.82775   0.74517   0.00000  Uiso   1.00
Cu876  Cu    0.89263   0.83892   0.75483   0.00000  Uiso   1.00
H877   H     0.67225   0.75582   0.52510   0.00000  Uiso   1.00
H878   H     0.66677   0.89162   0.97095   0.00000  Uiso   1.00
H879   H     0.99292   0.87531   0.61932   0.00000  Uiso   1.00
H880   H     0.67608   0.78158   0.87883   0.00000  Uiso   1.00
H881   H     0.97857   0.75841   0.95595   0.00000  Uiso   1.00
H882   H     0.69256   0.89182   0.54090   0.00000  Uiso   1.00
H883   H     0.90204   0.68007   0.75557   0.00000  Uiso   1.00
H884   H     0.76461   0.98659   0.74445   0.00000  Uiso   1.00
N885   N     0.98173   0.84735   0.76212   0.00000  Uiso   1.00
N886   N     0.68494   0.81932   0.73788   0.00000  Uiso   1.00
O887   O     0.79482   0.90476   0.74686   0.00000  Uiso   1.00
O888   O     0.87185   0.76191   0.75314   0.00000  Uiso   1.00
O889   O     0.89496   0.91420   0.75502   0.00000  Uiso   1.00
O890   O     0.77171   0.75247   0.74497   0.00000  Uiso   1.00
O891   O     0.75518   0.82597   0.80855   0.00000  Uiso   1.00
O892   O     0.91149   0.84070   0.69145   0.00000  Uiso   1.00
O893   O     0.85532   0.83540   0.81671   0.00000  Uiso   1.00
O894   O     0.81134   0.83126   0.68329   0.00000  Uiso   1.00
H895   H     0.80321   0.80982   0.60975   0.00000  Uiso   1.00
H896   H     0.86018   0.86147   0.89141   0.00000  Uiso   1.00
H897   H     0.74486   0.77615   0.57000   0.00000  Uiso   1.00
H898   H     0.92782   0.87113   0.92590   0.00000  Uiso   1.00
F899   F     0.67011   0.87538   0.79443   0.00000  Uiso   1.00
F900   F     0.99656   0.79129   0.70557   0.00000  Uiso   1.00
loop_
_geom_bond_atom_site_label_1
_geom_bond_atom_site_label_2
_geom_bond_distance
_geom_bond_site_symmetry_2
_ccdc_geom_bond_type
C1     O37     1.293   .     A
C1     C7      1.429   .     S
C1     O39     1.290   .     A
C2     O38     1.293   .     A
C2     O40     1.290   .     A
C2     C8      1.429   .     S
C3     C24     1.417   .     A
C3     H47     1.076   .     S
C3     C5      1.386   .     A
C4     C6      1.387   .     A
C4     H48     1.075   .     S
C4     C23     1.417   .     A
C5     H27     1.084   .     S
C5     C471    1.390   1_554 S
C6     C472    1.389   .     S
C6     H78     1.085   .     S
C7     C158    1.330   .     S
C7     H183    1.088   .     S
C8     C307    1.330   1_545 S
C8     H334    1.088   1_545 S
C9     C11     1.467   .     S
C9     O41     1.303   .     A
C9     O43     1.298   .     A
C10    O42     1.304   .     A
C10    O44     1.298   .     A
C10    C12     1.468   .     S
C11    C15     1.398   .     A
C11    C17     1.399   .     A
C12    C18     1.400   .     A
C12    C16     1.398   .     A
C13    C21     1.405   .     A
C13    C15     1.393   .     A
C13    H131    1.084   1_455 S
C14    C22     1.405   .     A
C14    C16     1.393   .     A
C14    H82     1.084   .     S
C15    H30     1.083   .     S
C16    H29     1.083   .     S
C17    C19     1.406   .     A
C17    H46     1.075   .     S
C18    C20     1.406   .     A
C18    H45     1.075   .     S
C19    C23     1.429   .     A
C19    C21     1.418   .     A
C20    C22     1.418   .     A
C20    C24     1.428   .     A
C21    C455    1.390   .     S
C22    C456    1.389   1_554 S
C23    C474    1.426   .     S
C24    C473    1.426   1_554 S
Cu25   O44     1.923   .     S
Cu25   O40     1.951   .     S
Cu25   N36     2.025   .     S
Cu25   O41     1.943   .     S
Cu25   O37     1.953   .     S
Cu25   Cu26    2.695   .     S
Cu26   O43     1.923   .     S
Cu26   O39     1.951   .     S
Cu26   N35     2.025   .     S
Cu26   O42     1.943   .     S
Cu26   O38     1.953   .     S
H28    C106    1.085   1_455 S
H31    C63     1.084   .     S
H32    C114    1.084   1_455 S
H33    C307    1.088   1_545 S
H34    C158    1.088   .     S
N35    N86     1.286   .     S
N35    F99     1.335   .     S
N36    N135    1.286   1_455 S
N36    F150    1.335   1_455 S
F49    N135    1.335   1_455 S
F50    N86     1.335   .     S
C51    O87     1.293   .     A
C51    C57     1.429   .     S
C51    O89     1.290   .     A
C52    O88     1.293   .     A
C52    O90     1.290   .     A
C52    C58     1.429   .     S
C53    C74     1.417   .     A
C53    H97     1.076   .     S
C53    C55     1.386   .     A
C54    C56     1.387   .     A
C54    H98     1.075   .     S
C54    C73     1.417   .     A
C55    H77     1.084   .     S
C55    C521    1.390   1_554 S
C56    C522    1.389   .     S
C56    H128    1.085   .     S
C57    C208    1.330   .     S
C57    H233    1.088   .     S
C58    C357    1.330   1_545 S
C58    H384    1.088   1_545 S
C59    C61     1.467   .     S
C59    O91     1.303   .     A
C59    O93     1.298   .     A
C60    O92     1.304   .     A
C60    O94     1.298   .     A
C60    C62     1.468   .     S
C61    C65     1.398   .     A
C61    C67     1.399   .     A
C62    C68     1.400   .     A
C62    C66     1.398   .     A
C63    C71     1.405   .     A
C63    C65     1.393   .     A
C64    C72     1.405   .     A
C64    C66     1.393   .     A
C64    H132    1.084   .     S
C65    H80     1.083   .     S
C66    H79     1.083   .     S
C67    C69     1.406   .     A
C67    H96     1.075   .     S
C68    C70     1.406   .     A
C68    H95     1.075   .     S
C69    C73     1.429   .     A
C69    C71     1.418   .     A
C70    C72     1.418   .     A
C70    C74     1.428   .     A
C71    C505    1.390   .     S
C72    C506    1.389   1_554 S
C73    C524    1.426   .     S
C74    C523    1.426   1_554 S
Cu75   O94     1.923   .     S
Cu75   O90     1.951   .     S
Cu75   N86     2.025   .     S
Cu75   O91     1.943   .     S
Cu75   O87     1.953   .     S
Cu75   Cu76    2.695   .     S
Cu76   O93     1.923   .     S
Cu76   O89     1.951   .     S
Cu76   N85     2.025   .     S
Cu76   O92     1.943   .     S
Cu76   O88     1.953   .     S
H81    C113    1.084   .     S
H83    C357    1.088   1_545 S
H84    C208    1.088   .     S
N85    N136    1.286   .     S
N85    F149    1.335   .     S
F100   N136    1.335   .     S
C101   O137    1.293   .     A
C101   C107    1.429   .     S
C101   O139    1.290   .     A
C102   O138    1.293   .     A
C102   O140    1.290   .     A
C102   C108    1.429   .     S
C103   C124    1.417   .     A
C103   H147    1.076   .     S
C103   C105    1.386   .     A
C104   C106    1.387   .     A
C104   H148    1.075   .     S
C104   C123    1.417   .     A
C105   H127    1.084   .     S
C105   C571    1.390   1_554 S
C106   C572    1.389   .     S
C106   H28     1.085   1_655 S
C107   C258    1.330   .     S
C107   H283    1.088   .     S
C108   C407    1.330   1_545 S
C108   H434    1.088   1_545 S
C109   C111    1.467   .     S
C109   O141    1.303   .     A
C109   O143    1.298   .     A
C110   O142    1.304   .     A
C110   O144    1.298   .     A
C110   C112    1.468   .     S
C111   C115    1.398   .     A
C111   C117    1.399   .     A
C112   C118    1.400   .     A
C112   C116    1.398   .     A
C113   C121    1.405   .     A
C113   C115    1.393   .     A
C114   C122    1.405   .     A
C114   C116    1.393   .     A
C114   H32     1.084   1_655 S
C115   H130    1.083   .     S
C116   H129    1.083   .     S
C117   C119    1.406   .     A
C117   H146    1.075   .     S
C118   C120    1.406   .     A
C118   H145    1.075   .     S
C119   C123    1.429   .     A
C119   C121    1.418   .     A
C120   C122    1.418   .     A
C120   C124    1.428   .     A
C121   C555    1.390   .     S
C122   C556    1.389   1_554 S
C123   C574    1.426   .     S
C124   C573    1.426   1_554 S
Cu125  O144    1.923   .     S
Cu125  O140    1.951   .     S
Cu125  N136    2.025   .     S
Cu125  O141    1.943   .     S
Cu125  O137    1.953   .     S
Cu125  Cu126   2.695   .     S
Cu126  O143    1.923   .     S
Cu126  O139    1.951   .     S
Cu126  N135    2.025   .     S
Cu126  O142    1.943   .     S
Cu126  O138    1.953   .     S
H131   C13     1.084   1_655 S
H133   C407    1.088   1_545 S
H134   C258    1.088   .     S
N135   N36     1.286   1_655 S
N135   F49     1.335   1_655 S
F150   N36     1.335   1_655 S
C151   O187    1.293   .     A
C151   C157    1.429   .     S
C151   O189    1.290   .     A
C152   O188    1.293   .     A
C152   O190    1.290   .     A
C152   C158    1.429   .     S
C153   C174    1.417   .     A
C153   H197    1.076   .     S
C153   C155    1.386   .     A
C154   C156    1.387   .     A
C154   H198    1.075   .     S
C154   C173    1.417   .     A
C155   H177    1.084   .     S
C155   C621    1.390   1_554 S
C156   C622    1.389   .     S
C156   H228    1.085   .     S
C157   C308    1.330   .     S
C157   H333    1.088   .     S
C159   C161    1.467   .     S
C159   O191    1.303   .     A
C159   O193    1.298   .     A
C160   O192    1.304   .     A
C160   O194    1.298   .     A
C160   C162    1.468   .     S
C161   C165    1.398   .     A
C161   C167    1.399   .     A
C162   C168    1.400   .     A
C162   C166    1.398   .     A
C163   C171    1.405   .     A
C163   C165    1.393   .     A
C163   H281    1.084   1_455 S
C164   C172    1.405   .     A
C164   C166    1.393   .     A
C164   H232    1.084   .     S
C165   H180    1.083   .     S
C166   H179    1.083   .     S
C167   C169    1.406   .     A
C167   H196    1.075   .     S
C168   C170    1.406   .     A
C168   H195    1.075   .     S
C169   C173    1.429   .     A
C169   C171    1.418   .     A
C170   C172    1.418   .     A
C170   C174    1.428   .     A
C171   C605    1.390   .     S
C172   C606    1.389   1_554 S
C173   C624    1.426   .     S
C174   C623    1.426   1_554 S
Cu175  O194    1.923   .     S
Cu175  O190    1.951   .     S
Cu175  N186    2.025   .     S
Cu175  O191    1.943   .     S
Cu175  O187    1.953   .     S
Cu175  Cu176   2.695   .     S
Cu176  O193    1.923   .     S
Cu176  O189    1.951   .     S
Cu176  N185    2.025   .     S
Cu176  O192    1.943   .     S
Cu176  O188    1.953   .     S
H178   C256    1.085   1_455 S
H181   C213    1.084   .     S
H182   C264    1.084   1_455 S
H184   C308    1.088   .     S
N185   N236    1.286   .     S
N185   F249    1.335   .     S
N186   N285    1.286   1_455 S
N186   F300    1.335   1_455 S
F199   N285    1.335   1_455 S
F200   N236    1.335   .     S
C201   O237    1.293   .     A
C201   C207    1.429   .     S
C201   O239    1.290   .     A
C202   O238    1.293   .     A
C202   O240    1.290   .     A
C202   C208    1.429   .     S
C203   C224    1.417   .     A
C203   H247    1.076   .     S
C203   C205    1.386   .     A
C204   C206    1.387   .     A
C204   H248    1.075   .     S
C204   C223    1.417   .     A
C205   H227    1.084   .     S
C205   C671    1.390   1_554 S
C206   C672    1.389   .     S
C206   H278    1.085   .     S
C207   C358    1.330   .     S
C207   H383    1.088   .     S
C209   C211    1.467   .     S
C209   O241    1.303   .     A
C209   O243    1.298   .     A
C210   O242    1.304   .     A
C210   O244    1.298   .     A
C210   C212    1.468   .     S
C211   C215    1.398   .     A
C211   C217    1.399   .     A
C212   C218    1.400   .     A
C212   C216    1.398   .     A
C213   C221    1.405   .     A
C213   C215    1.393   .     A
C214   C222    1.405   .     A
C214   C216    1.393   .     A
C214   H282    1.084   .     S
C215   H230    1.083   .     S
C216   H229    1.083   .     S
C217   C219    1.406   .     A
C217   H246    1.075   .     S
C218   C220    1.406   .     A
C218   H245    1.075   .     S
C219   C223    1.429   .     A
C219   C221    1.418   .     A
C220   C222    1.418   .     A
C220   C224    1.428   .     A
C221   C655    1.390   .     S
C222   C656    1.389   1_554 S
C223   C674    1.426   .     S
C224   C673    1.426   1_554 S
Cu225  O244    1.923   .     S
Cu225  O240    1.951   .     S
Cu225  N236    2.025   .     S
Cu225  O241    1.943   .     S
Cu225  O237    1.953   .     S
Cu225  Cu226   2.695   .     S
Cu226  O243    1.923   .     S
Cu226  O239    1.951   .     S
Cu226  N235    2.025   .     S
Cu226  O242    1.943   .     S
Cu226  O238    1.953   .     S
H231   C263    1.084   .     S
H234   C358    1.088   .     S
N235   N286    1.286   .     S
N235   F299    1.335   .     S
F250   N286    1.335   .     S
C251   O287    1.293   .     A
C251   C257    1.429   .     S
C251   O289    1.290   .     A
C252   O288    1.293   .     A
C252   O290    1.290   .     A
C252   C258    1.429   .     S
C253   C274    1.417   .     A
C253   H297    1.076   .     S
C253   C255    1.386   .     A
C254   C256    1.387   .     A
C254   H298    1.075   .     S
C254   C273    1.417   .     A
C255   H277    1.084   .     S
C255   C721    1.390   1_554 S
C256   C722    1.389   .     S
C256   H178    1.085   1_655 S
C257   C408    1.330   .     S
C257   H433    1.088   .     S
C259   C261    1.467   .     S
C259   O291    1.303   .     A
C259   O293    1.298   .     A
C260   O292    1.304   .     A
C260   O294    1.298   .     A
C260   C262    1.468   .     S
C261   C265    1.398   .     A
C261   C267    1.399   .     A
C262   C268    1.400   .     A
C262   C266    1.398   .     A
C263   C271    1.405   .     A
C263   C265    1.393   .     A
C264   C272    1.405   .     A
C264   C266    1.393   .     A
C264   H182    1.084   1_655 S
C265   H280    1.083   .     S
C266   H279    1.083   .     S
C267   C269    1.406   .     A
C267   H296    1.075   .     S
C268   C270    1.406   .     A
C268   H295    1.075   .     S
C269   C273    1.429   .     A
C269   C271    1.418   .     A
C270   C272    1.418   .     A
C270   C274    1.428   .     A
C271   C705    1.390   .     S
C272   C706    1.389   1_554 S
C273   C724    1.426   .     S
C274   C723    1.426   1_554 S
Cu275  O294    1.923   .     S
Cu275  O290    1.951   .     S
Cu275  N286    2.025   .     S
Cu275  O291    1.943   .     S
Cu275  O287    1.953   .     S
Cu275  Cu276   2.695   .     S
Cu276  O293    1.923   .     S
Cu276  O289    1.951   .     S
Cu276  N285    2.025   .     S
Cu276  O292    1.943   .     S
Cu276  O288    1.953   .     S
H281   C163    1.084   1_655 S
H284   C408    1.088   .     S
N285   N186    1.286   1_655 S
N285   F199    1.335   1_655 S
F300   N186    1.335   1_655 S
C301   O337    1.293   .     A
C301   C307    1.429   .     S
C301   O339    1.290   .     A
C302   O338    1.293   .     A
C302   O340    1.290   .     A
C302   C308    1.429   .     S
C303   C324    1.417   .     A
C303   H347    1.076   .     S
C303   C305    1.386   .     A
C304   C306    1.387   .     A
C304   H348    1.075   .     S
C304   C323    1.417   .     A
C305   H327    1.084   .     S
C305   C771    1.390   1_554 S
C306   C772    1.389   .     S
C306   H378    1.085   .     S
C307   C8      1.330   1_565 S
C307   H33     1.088   1_565 S
C309   C311    1.467   .     S
C309   O341    1.303   .     A
C309   O343    1.298   .     A
C310   O342    1.304   .     A
C310   O344    1.298   .     A
C310   C312    1.468   .     S
C311   C315    1.398   .     A
C311   C317    1.399   .     A
C312   C318    1.400   .     A
C312   C316    1.398   .     A
C313   C321    1.405   .     A
C313   C315    1.393   .     A
C313   H431    1.084   1_455 S
C314   C322    1.405   .     A
C314   C316    1.393   .     A
C314   H382    1.084   .     S
C315   H330    1.083   .     S
C316   H329    1.083   .     S
C317   C319    1.406   .     A
C317   H346    1.075   .     S
C318   C320    1.406   .     A
C318   H345    1.075   .     S
C319   C323    1.429   .     A
C319   C321    1.418   .     A
C320   C322    1.418   .     A
C320   C324    1.428   .     A
C321   C755    1.390   .     S
C322   C756    1.389   1_554 S
C323   C774    1.426   .     S
C324   C773    1.426   1_554 S
Cu325  O344    1.923   .     S
Cu325  O340    1.951   .     S
Cu325  N336    2.025   .     S
Cu325  O341    1.943   .     S
Cu325  O337    1.953   .     S
Cu325  Cu326   2.695   .     S
Cu326  O343    1.923   .     S
Cu326  O339    1.951   .     S
Cu326  N335    2.025   .     S
Cu326  O342    1.943   .     S
Cu326  O338    1.953   .     S
H328   C406    1.085   1_455 S
H331   C363    1.084   .     S
H332   C414    1.084   1_455 S
H334   C8      1.088   1_565 S
N335   N386    1.286   .     S
N335   F399    1.335   .     S
N336   N435    1.286   1_455 S
N336   F450    1.335   1_455 S
F349   N435    1.335   1_455 S
F350   N386    1.335   .     S
C351   O387    1.293   .     A
C351   C357    1.429   .     S
C351   O389    1.290   .     A
C352   O388    1.293   .     A
C352   O390    1.290   .     A
C352   C358    1.429   .     S
C353   C374    1.417   .     A
C353   H397    1.076   .     S
C353   C355    1.386   .     A
C354   C356    1.387   .     A
C354   H398    1.075   .     S
C354   C373    1.417   .     A
C355   H377    1.084   .     S
C355   C821    1.390   1_554 S
C356   C822    1.389   .     S
C356   H428    1.085   .     S
C357   C58     1.330   1_565 S
C357   H83     1.088   1_565 S
C359   C361    1.467   .     S
C359   O391    1.303   .     A
C359   O393    1.298   .     A
C360   O392    1.304   .     A
C360   O394    1.298   .     A
C360   C362    1.468   .     S
C361   C365    1.398   .     A
C361   C367    1.399   .     A
C362   C368    1.400   .     A
C362   C366    1.398   .     A
C363   C371    1.405   .     A
C363   C365    1.393   .     A
C364   C372    1.405   .     A
C364   C366    1.393   .     A
C364   H432    1.084   .     S
C365   H380    1.083   .     S
C366   H379    1.083   .     S
C367   C369    1.406   .     A
C367   H396    1.075   .     S
C368   C370    1.406   .     A
C368   H395    1.075   .     S
C369   C373    1.429   .     A
C369   C371    1.418   .     A
C370   C372    1.418   .     A
C370   C374    1.428   .     A
C371   C805    1.390   .     S
C372   C806    1.389   1_554 S
C373   C824    1.426   .     S
C374   C823    1.426   1_554 S
Cu375  O394    1.923   .     S
Cu375  O390    1.951   .     S
Cu375  N386    2.025   .     S
Cu375  O391    1.943   .     S
Cu375  O387    1.953   .     S
Cu375  Cu376   2.695   .     S
Cu376  O393    1.923   .     S
Cu376  O389    1.951   .     S
Cu376  N385    2.025   .     S
Cu376  O392    1.943   .     S
Cu376  O388    1.953   .     S
H381   C413    1.084   .     S
H384   C58     1.088   1_565 S
N385   N436    1.286   .     S
N385   F449    1.335   .     S
F400   N436    1.335   .     S
C401   O437    1.293   .     A
C401   C407    1.429   .     S
C401   O439    1.290   .     A
C402   O438    1.293   .     A
C402   O440    1.290   .     A
C402   C408    1.429   .     S
C403   C424    1.417   .     A
C403   H447    1.076   .     S
C403   C405    1.386   .     A
C404   C406    1.387   .     A
C404   H448    1.075   .     S
C404   C423    1.417   .     A
C405   H427    1.084   .     S
C405   C871    1.390   1_554 S
C406   C872    1.389   .     S
C406   H328    1.085   1_655 S
C407   C108    1.330   1_565 S
C407   H133    1.088   1_565 S
C409   C411    1.467   .     S
C409   O441    1.303   .     A
C409   O443    1.298   .     A
C410   O442    1.304   .     A
C410   O444    1.298   .     A
C410   C412    1.468   .     S
C411   C415    1.398   .     A
C411   C417    1.399   .     A
C412   C418    1.400   .     A
C412   C416    1.398   .     A
C413   C421    1.405   .     A
C413   C415    1.393   .     A
C414   C422    1.405   .     A
C414   C416    1.393   .     A
C414   H332    1.084   1_655 S
C415   H430    1.083   .     S
C416   H429    1.083   .     S
C417   C419    1.406   .     A
C417   H446    1.075   .     S
C418   C420    1.406   .     A
C418   H445    1.075   .     S
C419   C423    1.429   .     A
C419   C421    1.418   .     A
C420   C422    1.418   .     A
C420   C424    1.428   .     A
C421   C855    1.390   .     S
C422   C856    1.389   1_554 S
C423   C874    1.426   .     S
C424   C873    1.426   1_554 S
Cu425  O444    1.923   .     S
Cu425  O440    1.951   .     S
Cu425  N436    2.025   .     S
Cu425  O441    1.943   .     S
Cu425  O437    1.953   .     S
Cu425  Cu426   2.695   .     S
Cu426  O443    1.923   .     S
Cu426  O439    1.951   .     S
Cu426  N435    2.025   .     S
Cu426  O442    1.943   .     S
Cu426  O438    1.953   .     S
H431   C313    1.084   1_655 S
H434   C108    1.088   1_565 S
N435   N336    1.286   1_655 S
N435   F349    1.335   1_655 S
F450   N336    1.335   1_655 S
C451   O487    1.293   .     A
C451   C457    1.429   .     S
C451   O489    1.290   .     A
C452   O488    1.293   .     A
C452   O490    1.290   .     A
C452   C458    1.429   .     S
C453   C474    1.417   .     A
C453   H497    1.076   .     S
C453   C455    1.386   .     A
C454   C456    1.387   .     A
C454   H498    1.075   .     S
C454   C473    1.417   .     A
C455   H477    1.084   .     S
C456   C22     1.389   1_556 S
C456   H528    1.085   .     S
C457   C608    1.330   .     S
C457   H633    1.088   .     S
C458   C757    1.330   1_545 S
C458   H784    1.088   1_545 S
C459   C461    1.467   .     S
C459   O491    1.303   .     A
C459   O493    1.298   .     A
C460   O492    1.304   .     A
C460   O494    1.298   .     A
C460   C462    1.468   .     S
C461   C465    1.398   .     A
C461   C467    1.399   .     A
C462   C468    1.400   .     A
C462   C466    1.398   .     A
C463   C471    1.405   .     A
C463   C465    1.393   .     A
C463   H581    1.084   1_455 S
C464   C472    1.405   .     A
C464   C466    1.393   .     A
C464   H532    1.084   .     S
C465   H480    1.083   .     S
C466   H479    1.083   .     S
C467   C469    1.406   .     A
C467   H496    1.075   .     S
C468   C470    1.406   .     A
C468   H495    1.075   .     S
C469   C473    1.429   .     A
C469   C471    1.418   .     A
C470   C472    1.418   .     A
C470   C474    1.428   .     A
C471   C5      1.390   1_556 S
C473   C24     1.426   1_556 S
Cu475  O494    1.923   .     S
Cu475  O490    1.951   .     S
Cu475  N486    2.025   .     S
Cu475  O491    1.943   .     S
Cu475  O487    1.953   .     S
Cu475  Cu476   2.695   .     S
Cu476  O493    1.923   .     S
Cu476  O489    1.951   .     S
Cu476  N485    2.025   .     S
Cu476  O492    1.943   .     S
Cu476  O488    1.953   .     S
H478   C556    1.085   1_455 S
H481   C513    1.084   .     S
H482   C564    1.084   1_455 S
H483   C757    1.088   1_545 S
H484   C608    1.088   .     S
N485   N536    1.286   .     S
N485   F549    1.335   .     S
N486   N585    1.286   1_455 S
N486   F600    1.335   1_455 S
F499   N585    1.335   1_455 S
F500   N536    1.335   .     S
C501   O537    1.293   .     A
C501   C507    1.429   .     S
C501   O539    1.290   .     A
C502   O538    1.293   .     A
C502   O540    1.290   .     A
C502   C508    1.429   .     S
C503   C524    1.417   .     A
C503   H547    1.076   .     S
C503   C505    1.386   .     A
C504   C506    1.387   .     A
C504   H548    1.075   .     S
C504   C523    1.417   .     A
C505   H527    1.084   .     S
C506   C72     1.389   1_556 S
C506   H578    1.085   .     S
C507   C658    1.330   .     S
C507   H683    1.088   .     S
C508   C807    1.330   1_545 S
C508   H834    1.088   1_545 S
C509   C511    1.467   .     S
C509   O541    1.303   .     A
C509   O543    1.298   .     A
C510   O542    1.304   .     A
C510   O544    1.298   .     A
C510   C512    1.468   .     S
C511   C515    1.398   .     A
C511   C517    1.399   .     A
C512   C518    1.400   .     A
C512   C516    1.398   .     A
C513   C521    1.405   .     A
C513   C515    1.393   .     A
C514   C522    1.405   .     A
C514   C516    1.393   .     A
C514   H582    1.084   .     S
C515   H530    1.083   .     S
C516   H529    1.083   .     S
C517   C519    1.406   .     A
C517   H546    1.075   .     S
C518   C520    1.406   .     A
C518   H545    1.075   .     S
C519   C523    1.429   .     A
C519   C521    1.418   .     A
C520   C522    1.418   .     A
C520   C524    1.428   .     A
C521   C55     1.390   1_556 S
C523   C74     1.426   1_556 S
Cu525  O544    1.923   .     S
Cu525  O540    1.951   .     S
Cu525  N536    2.025   .     S
Cu525  O541    1.943   .     S
Cu525  O537    1.953   .     S
Cu525  Cu526   2.695   .     S
Cu526  O543    1.923   .     S
Cu526  O539    1.951   .     S
Cu526  N535    2.025   .     S
Cu526  O542    1.943   .     S
Cu526  O538    1.953   .     S
H531   C563    1.084   .     S
H533   C807    1.088   1_545 S
H534   C658    1.088   .     S
N535   N586    1.286   .     S
N535   F599    1.335   .     S
F550   N586    1.335   .     S
C551   O587    1.293   .     A
C551   C557    1.429   .     S
C551   O589    1.290   .     A
C552   O588    1.293   .     A
C552   O590    1.290   .     A
C552   C558    1.429   .     S
C553   C574    1.417   .     A
C553   H597    1.076   .     S
C553   C555    1.386   .     A
C554   C556    1.387   .     A
C554   H598    1.075   .     S
C554   C573    1.417   .     A
C555   H577    1.084   .     S
C556   C122    1.389   1_556 S
C556   H478    1.085   1_655 S
C557   C708    1.330   .     S
C557   H733    1.088   .     S
C558   C857    1.330   1_545 S
C558   H884    1.088   1_545 S
C559   C561    1.467   .     S
C559   O591    1.303   .     A
C559   O593    1.298   .     A
C560   O592    1.304   .     A
C560   O594    1.298   .     A
C560   C562    1.468   .     S
C561   C565    1.398   .     A
C561   C567    1.399   .     A
C562   C568    1.400   .     A
C562   C566    1.398   .     A
C563   C571    1.405   .     A
C563   C565    1.393   .     A
C564   C572    1.405   .     A
C564   C566    1.393   .     A
C564   H482    1.084   1_655 S
C565   H580    1.083   .     S
C566   H579    1.083   .     S
C567   C569    1.406   .     A
C567   H596    1.075   .     S
C568   C570    1.406   .     A
C568   H595    1.075   .     S
C569   C573    1.429   .     A
C569   C571    1.418   .     A
C570   C572    1.418   .     A
C570   C574    1.428   .     A
C571   C105    1.390   1_556 S
C573   C124    1.426   1_556 S
Cu575  O594    1.923   .     S
Cu575  O590    1.951   .     S
Cu575  N586    2.025   .     S
Cu575  O591    1.943   .     S
Cu575  O587    1.953   .     S
Cu575  Cu576   2.695   .     S
Cu576  O593    1.923   .     S
Cu576  O589    1.951   .     S
Cu576  N585    2.025   .     S
Cu576  O592    1.943   .     S
Cu576  O588    1.953   .     S
H581   C463    1.084   1_655 S
H583   C857    1.088   1_545 S
H584   C708    1.088   .     S
N585   N486    1.286   1_655 S
N585   F499    1.335   1_655 S
F600   N486    1.335   1_655 S
C601   O637    1.293   .     A
C601   C607    1.429   .     S
C601   O639    1.290   .     A
C602   O638    1.293   .     A
C602   O640    1.290   .     A
C602   C608    1.429   .     S
C603   C624    1.417   .     A
C603   H647    1.076   .     S
C603   C605    1.386   .     A
C604   C606    1.387   .     A
C604   H648    1.075   .     S
C604   C623    1.417   .     A
C605   H627    1.084   .     S
C606   C172    1.389   1_556 S
C606   H678    1.085   .     S
C607   C758    1.330   .     S
C607   H783    1.088   .     S
C609   C611    1.467   .     S
C609   O641    1.303   .     A
C609   O643    1.298   .     A
C610   O642    1.304   .     A
C610   O644    1.298   .     A
C610   C612    1.468   .     S
C611   C615    1.398   .     A
C611   C617    1.399   .     A
C612   C618    1.400   .     A
C612   C616    1.398   .     A
C613   C621    1.405   .     A
C613   C615    1.393   .     A
C613   H731    1.084   1_455 S
C614   C622    1.405   .     A
C614   C616    1.393   .     A
C614   H682    1.084   .     S
C615   H630    1.083   .     S
C616   H629    1.083   .     S
C617   C619    1.406   .     A
C617   H646    1.075   .     S
C618   C620    1.406   .     A
C618   H645    1.075   .     S
C619   C623    1.429   .     A
C619   C621    1.418   .     A
C620   C622    1.418   .     A
C620   C624    1.428   .     A
C621   C155    1.390   1_556 S
C623   C174    1.426   1_556 S
Cu625  O644    1.923   .     S
Cu625  O640    1.951   .     S
Cu625  N636    2.025   .     S
Cu625  O641    1.943   .     S
Cu625  O637    1.953   .     S
Cu625  Cu626   2.695   .     S
Cu626  O643    1.923   .     S
Cu626  O639    1.951   .     S
Cu626  N635    2.025   .     S
Cu626  O642    1.943   .     S
Cu626  O638    1.953   .     S
H628   C706    1.085   1_455 S
H631   C663    1.084   .     S
H632   C714    1.084   1_455 S
H634   C758    1.088   .     S
N635   N686    1.286   .     S
N635   F699    1.335   .     S
N636   N735    1.286   1_455 S
N636   F750    1.335   1_455 S
F649   N735    1.335   1_455 S
F650   N686    1.335   .     S
C651   O687    1.293   .     A
C651   C657    1.429   .     S
C651   O689    1.290   .     A
C652   O688    1.293   .     A
C652   O690    1.290   .     A
C652   C658    1.429   .     S
C653   C674    1.417   .     A
C653   H697    1.076   .     S
C653   C655    1.386   .     A
C654   C656    1.387   .     A
C654   H698    1.075   .     S
C654   C673    1.417   .     A
C655   H677    1.084   .     S
C656   C222    1.389   1_556 S
C656   H728    1.085   .     S
C657   C808    1.330   .     S
C657   H833    1.088   .     S
C659   C661    1.467   .     S
C659   O691    1.303   .     A
C659   O693    1.298   .     A
C660   O692    1.304   .     A
C660   O694    1.298   .     A
C660   C662    1.468   .     S
C661   C665    1.398   .     A
C661   C667    1.399   .     A
C662   C668    1.400   .     A
C662   C666    1.398   .     A
C663   C671    1.405   .     A
C663   C665    1.393   .     A
C664   C672    1.405   .     A
C664   C666    1.393   .     A
C664   H732    1.084   .     S
C665   H680    1.083   .     S
C666   H679    1.083   .     S
C667   C669    1.406   .     A
C667   H696    1.075   .     S
C668   C670    1.406   .     A
C668   H695    1.075   .     S
C669   C673    1.429   .     A
C669   C671    1.418   .     A
C670   C672    1.418   .     A
C670   C674    1.428   .     A
C671   C205    1.390   1_556 S
C673   C224    1.426   1_556 S
Cu675  O694    1.923   .     S
Cu675  O690    1.951   .     S
Cu675  N686    2.025   .     S
Cu675  O691    1.943   .     S
Cu675  O687    1.953   .     S
Cu675  Cu676   2.695   .     S
Cu676  O693    1.923   .     S
Cu676  O689    1.951   .     S
Cu676  N685    2.025   .     S
Cu676  O692    1.943   .     S
Cu676  O688    1.953   .     S
H681   C713    1.084   .     S
H684   C808    1.088   .     S
N685   N736    1.286   .     S
N685   F749    1.335   .     S
F700   N736    1.335   .     S
C701   O737    1.293   .     A
C701   C707    1.429   .     S
C701   O739    1.290   .     A
C702   O738    1.293   .     A
C702   O740    1.290   .     A
C702   C708    1.429   .     S
C703   C724    1.417   .     A
C703   H747    1.076   .     S
C703   C705    1.386   .     A
C704   C706    1.387   .     A
C704   H748    1.075   .     S
C704   C723    1.417   .     A
C705   H727    1.084   .     S
C706   C272    1.389   1_556 S
C706   H628    1.085   1_655 S
C707   C858    1.330   .     S
C707   H883    1.088   .     S
C709   C711    1.467   .     S
C709   O741    1.303   .     A
C709   O743    1.298   .     A
C710   O742    1.304   .     A
C710   O744    1.298   .     A
C710   C712    1.468   .     S
C711   C715    1.398   .     A
C711   C717    1.399   .     A
C712   C718    1.400   .     A
C712   C716    1.398   .     A
C713   C721    1.405   .     A
C713   C715    1.393   .     A
C714   C722    1.405   .     A
C714   C716    1.393   .     A
C714   H632    1.084   1_655 S
C715   H730    1.083   .     S
C716   H729    1.083   .     S
C717   C719    1.406   .     A
C717   H746    1.075   .     S
C718   C720    1.406   .     A
C718   H745    1.075   .     S
C719   C723    1.429   .     A
C719   C721    1.418   .     A
C720   C722    1.418   .     A
C720   C724    1.428   .     A
C721   C255    1.390   1_556 S
C723   C274    1.426   1_556 S
Cu725  O744    1.923   .     S
Cu725  O740    1.951   .     S
Cu725  N736    2.025   .     S
Cu725  O741    1.943   .     S
Cu725  O737    1.953   .     S
Cu725  Cu726   2.695   .     S
Cu726  O743    1.923   .     S
Cu726  O739    1.951   .     S
Cu726  N735    2.025   .     S
Cu726  O742    1.943   .     S
Cu726  O738    1.953   .     S
H731   C613    1.084   1_655 S
H734   C858    1.088   .     S
N735   N636    1.286   1_655 S
N735   F649    1.335   1_655 S
F750   N636    1.335   1_655 S
C751   O787    1.293   .     A
C751   C757    1.429   .     S
C751   O789    1.290   .     A
C752   O788    1.293   .     A
C752   O790    1.290   .     A
C752   C758    1.429   .     S
C753   C774    1.417   .     A
C753   H797    1.076   .     S
C753   C755    1.386   .     A
C754   C756    1.387   .     A
C754   H798    1.075   .     S
C754   C773    1.417   .     A
C755   H777    1.084   .     S
C756   C322    1.389   1_556 S
C756   H828    1.085   .     S
C757   C458    1.330   1_565 S
C757   H483    1.088   1_565 S
C759   C761    1.467   .     S
C759   O791    1.303   .     A
C759   O793    1.298   .     A
C760   O792    1.304   .     A
C760   O794    1.298   .     A
C760   C762    1.468   .     S
C761   C765    1.398   .     A
C761   C767    1.399   .     A
C762   C768    1.400   .     A
C762   C766    1.398   .     A
C763   C771    1.405   .     A
C763   C765    1.393   .     A
C763   H881    1.084   1_455 S
C764   C772    1.405   .     A
C764   C766    1.393   .     A
C764   H832    1.084   .     S
C765   H780    1.083   .     S
C766   H779    1.083   .     S
C767   C769    1.406   .     A
C767   H796    1.075   .     S
C768   C770    1.406   .     A
C768   H795    1.075   .     S
C769   C773    1.429   .     A
C769   C771    1.418   .     A
C770   C772    1.418   .     A
C770   C774    1.428   .     A
C771   C305    1.390   1_556 S
C773   C324    1.426   1_556 S
Cu775  O794    1.923   .     S
Cu775  O790    1.951   .     S
Cu775  N786    2.025   .     S
Cu775  O791    1.943   .     S
Cu775  O787    1.953   .     S
Cu775  Cu776   2.695   .     S
Cu776  O793    1.923   .     S
Cu776  O789    1.951   .     S
Cu776  N785    2.025   .     S
Cu776  O792    1.943   .     S
Cu776  O788    1.953   .     S
H778   C856    1.085   1_455 S
H781   C813    1.084   .     S
H782   C864    1.084   1_455 S
H784   C458    1.088   1_565 S
N785   N836    1.286   .     S
N785   F849    1.335   .     S
N786   N885    1.286   1_455 S
N786   F900    1.335   1_455 S
F799   N885    1.335   1_455 S
F800   N836    1.335   .     S
C801   O837    1.293   .     A
C801   C807    1.429   .     S
C801   O839    1.290   .     A
C802   O838    1.293   .     A
C802   O840    1.290   .     A
C802   C808    1.429   .     S
C803   C824    1.417   .     A
C803   H847    1.076   .     S
C803   C805    1.386   .     A
C804   C806    1.387   .     A
C804   H848    1.075   .     S
C804   C823    1.417   .     A
C805   H827    1.084   .     S
C806   C372    1.389   1_556 S
C806   H878    1.085   .     S
C807   C508    1.330   1_565 S
C807   H533    1.088   1_565 S
C809   C811    1.467   .     S
C809   O841    1.303   .     A
C809   O843    1.298   .     A
C810   O842    1.304   .     A
C810   O844    1.298   .     A
C810   C812    1.468   .     S
C811   C815    1.398   .     A
C811   C817    1.399   .     A
C812   C818    1.400   .     A
C812   C816    1.398   .     A
C813   C821    1.405   .     A
C813   C815    1.393   .     A
C814   C822    1.405   .     A
C814   C816    1.393   .     A
C814   H882    1.084   .     S
C815   H830    1.083   .     S
C816   H829    1.083   .     S
C817   C819    1.406   .     A
C817   H846    1.075   .     S
C818   C820    1.406   .     A
C818   H845    1.075   .     S
C819   C823    1.429   .     A
C819   C821    1.418   .     A
C820   C822    1.418   .     A
C820   C824    1.428   .     A
C821   C355    1.390   1_556 S
C823   C374    1.426   1_556 S
Cu825  O844    1.923   .     S
Cu825  O840    1.951   .     S
Cu825  N836    2.025   .     S
Cu825  O841    1.943   .     S
Cu825  O837    1.953   .     S
Cu825  Cu826   2.695   .     S
Cu826  O843    1.923   .     S
Cu826  O839    1.951   .     S
Cu826  N835    2.025   .     S
Cu826  O842    1.943   .     S
Cu826  O838    1.953   .     S
H831   C863    1.084   .     S
H834   C508    1.088   1_565 S
N835   N886    1.286   .     S
N835   F899    1.335   .     S
F850   N886    1.335   .     S
C851   O887    1.293   .     A
C851   C857    1.429   .     S
C851   O889    1.290   .     A
C852   O888    1.293   .     A
C852   O890    1.290   .     A
C852   C858    1.429   .     S
C853   C874    1.417   .     A
C853   H897    1.076   .     S
C853   C855    1.386   .     A
C854   C856    1.387   .     A
C854   H898    1.075   .     S
C854   C873    1.417   .     A
C855   H877    1.084   .     S
C856   C422    1.389   1_556 S
C856   H778    1.085   1_655 S
C857   C558    1.330   1_565 S
C857   H583    1.088   1_565 S
C859   C861    1.467   .     S
C859   O891    1.303   .     A
C859   O893    1.298   .     A
C860   O892    1.304   .     A
C860   O894    1.298   .     A
C860   C862    1.468   .     S
C861   C865    1.398   .     A
C861   C867    1.399   .     A
C862   C868    1.400   .     A
C862   C866    1.398   .     A
C863   C871    1.405   .     A
C863   C865    1.393   .     A
C864   C872    1.405   .     A
C864   C866    1.393   .     A
C864   H782    1.084   1_655 S
C865   H880    1.083   .     S
C866   H879    1.083   .     S
C867   C869    1.406   .     A
C867   H896    1.075   .     S
C868   C870    1.406   .     A
C868   H895    1.075   .     S
C869   C873    1.429   .     A
C869   C871    1.418   .     A
C870   C872    1.418   .     A
C870   C874    1.428   .     A
C871   C405    1.390   1_556 S
C873   C424    1.426   1_556 S
Cu875  O894    1.923   .     S
Cu875  O890    1.951   .     S
Cu875  N886    2.025   .     S
Cu875  O891    1.943   .     S
Cu875  O887    1.953   .     S
Cu875  Cu876   2.695   .     S
Cu876  O893    1.923   .     S
Cu876  O889    1.951   .     S
Cu876  N885    2.025   .     S
Cu876  O892    1.943   .     S
Cu876  O888    1.953   .     S
H881   C763    1.084   1_655 S
H884   C558    1.088   1_565 S
N885   N786    1.286   1_655 S
N885   F799    1.335   1_655 S
F900   N786    1.335   1_655 S
