data_str_m2_o1_o16_pcu_sym.209
_audit_creation_date              2020-01-03
_audit_creation_method            'Materials Studio'
_symmetry_space_group_name_H-M    'P1'
_symmetry_Int_Tables_number       1
_symmetry_cell_setting            triclinic
loop_
_symmetry_equiv_pos_as_xyz
  x,y,z
_cell_length_a                    28.5210
_cell_length_b                    32.4256
_cell_length_c                    26.9748
_cell_angle_alpha                 90.0352
_cell_angle_beta                  72.8655
_cell_angle_gamma                 89.8681
loop_
_atom_site_label
_atom_site_type_symbol
_atom_site_fract_x
_atom_site_fract_y
_atom_site_fract_z
_atom_site_U_iso_or_equiv
_atom_site_adp_type
_atom_site_occupancy
C1     C     0.16720   0.24592   0.24752   0.00000  Uiso   1.00
C2     C     0.14744   0.16411   0.48831   0.00000  Uiso   1.00
C3     C     0.15767   0.15380   0.43540   0.00000  Uiso   1.00
C4     C     0.18207   0.15377   0.01469   0.00000  Uiso   1.00
C5     C     0.22995   0.14075   0.48652   0.00000  Uiso   1.00
C6     C     0.23822   0.12680   0.43510   0.00000  Uiso   1.00
C7     C     0.20059   0.13066   0.41190   0.00000  Uiso   1.00
C8     C     0.16940   0.15383   0.06882   0.00000  Uiso   1.00
C9     C     0.25543   0.15032   0.06443   0.00000  Uiso   1.00
C10    C     0.12541   0.16763   0.40725   0.00000  Uiso   1.00
C11    C     0.19122   0.31184   0.27536   0.00000  Uiso   1.00
C12    C     0.14058   0.16582   0.35007   0.00000  Uiso   1.00
C13    C     0.19154   0.02104   0.27579   0.00000  Uiso   1.00
C14    C     0.16832   0.04294   0.24522   0.00000  Uiso   1.00
C15    C     0.14635   0.02224   0.21166   0.00000  Uiso   1.00
C16    C     0.14563   0.31231   0.21126   0.00000  Uiso   1.00
C17    C     0.16772   0.29062   0.24434   0.00000  Uiso   1.00
C18    C     0.29995   0.19359   0.28056   0.00000  Uiso   1.00
C19    C     0.01627   0.19359   0.28052   0.00000  Uiso   1.00
C20    C     0.03319   0.13940   0.21998   0.00000  Uiso   1.00
C21    C     0.31696   0.13954   0.21979   0.00000  Uiso   1.00
C22    C     0.16700   0.08744   0.24907   0.00000  Uiso   1.00
C23    C     0.19256   0.16336   0.15021   0.00000  Uiso   1.00
C24    C     0.26682   0.14034   0.01177   0.00000  Uiso   1.00
C25    C     0.20639   0.15616   0.09378   0.00000  Uiso   1.00
C26    C     0.08166   0.18890   0.43330   0.00000  Uiso   1.00
C27    C     0.07165   0.19789   0.48608   0.00000  Uiso   1.00
C28    C     0.10474   0.18718   0.01254   0.00000  Uiso   1.00
Cu29   Cu    0.11978   0.16666   0.25000   0.00000  Uiso   1.00
Cu30   Cu    0.21355   0.16667   0.25000   0.00000  Uiso   1.00
H31    H     0.28453   0.15109   0.08270   0.00000  Uiso   1.00
H32    H     0.20883   0.03694   0.30113   0.00000  Uiso   1.00
H33    H     0.27436   0.21512   0.30506   0.00000  Uiso   1.00
H34    H     0.02815   0.21515   0.30494   0.00000  Uiso   1.00
H35    H     0.05844   0.11728   0.19636   0.00000  Uiso   1.00
H36    H     0.30502   0.11782   0.19558   0.00000  Uiso   1.00
H37    H     0.30453   0.13300   0.49121   0.00000  Uiso   1.00
H38    H     0.09733   0.19916   0.05147   0.00000  Uiso   1.00
H39    H     0.03927   0.21543   0.00626   0.00000  Uiso   1.00
H40    H     0.20569   0.11584   0.37489   0.00000  Uiso   1.00
H41    H     0.20844   0.29536   0.30034   0.00000  Uiso   1.00
N42    N     0.04931   0.16666   0.24998   0.00000  Uiso   1.00
N43    N     0.28402   0.16669   0.24999   0.00000  Uiso   1.00
O44    O     0.12708   0.22678   0.25000   0.00000  Uiso   1.00
O45    O     0.20627   0.22679   0.25000   0.00000  Uiso   1.00
O46    O     0.10775   0.16665   0.32549   0.00000  Uiso   1.00
O47    O     0.18694   0.16666   0.32549   0.00000  Uiso   1.00
O48    O     0.12706   0.10654   0.24999   0.00000  Uiso   1.00
O49    O     0.20625   0.10655   0.24999   0.00000  Uiso   1.00
O50    O     0.14640   0.16667   0.17451   0.00000  Uiso   1.00
O51    O     0.22559   0.16668   0.17451   0.00000  Uiso   1.00
O52    O     0.12625   0.04356   0.17855   0.00000  Uiso   1.00
H53    H     0.14553   0.06899   0.16715   0.00000  Uiso   1.00
S54    S     0.12147   0.28598   0.16599   0.00000  Uiso   1.00
O55    O     0.07410   0.26532   0.19450   0.00000  Uiso   1.00
O56    O     0.11203   0.31472   0.12625   0.00000  Uiso   1.00
O57    O     0.16218   0.25023   0.13478   0.00000  Uiso   1.00
H58    H     0.14917   0.23983   0.10692   0.00000  Uiso   1.00
S59    S     0.29327   0.10176   0.39974   0.00000  Uiso   1.00
O60    O     0.00137   0.13214   0.38861   0.00000  Uiso   1.00
O61    O     0.30400   0.06686   0.43143   0.00000  Uiso   1.00
O62    O     0.28846   0.08305   0.34324   0.00000  Uiso   1.00
H63    H     0.32235   0.07540   0.32305   0.00000  Uiso   1.00
O64    O     0.12129   0.14589   0.09615   0.00000  Uiso   1.00
H65    H     0.12173   0.12069   0.11675   0.00000  Uiso   1.00
O66    O     0.05106   0.20342   0.40584   0.00000  Uiso   1.00
H67    H     0.02223   0.21729   0.42993   0.00000  Uiso   1.00
C68    C     0.50053   0.24592   0.24752   0.00000  Uiso   1.00
C69    C     0.48078   0.16411   0.48831   0.00000  Uiso   1.00
C70    C     0.49100   0.15380   0.43540   0.00000  Uiso   1.00
C71    C     0.51540   0.15377   0.01469   0.00000  Uiso   1.00
C72    C     0.56328   0.14075   0.48652   0.00000  Uiso   1.00
C73    C     0.57155   0.12680   0.43510   0.00000  Uiso   1.00
C74    C     0.53392   0.13066   0.41190   0.00000  Uiso   1.00
C75    C     0.50273   0.15383   0.06882   0.00000  Uiso   1.00
C76    C     0.58876   0.15032   0.06443   0.00000  Uiso   1.00
C77    C     0.45875   0.16763   0.40725   0.00000  Uiso   1.00
C78    C     0.52455   0.31184   0.27536   0.00000  Uiso   1.00
C79    C     0.47391   0.16582   0.35007   0.00000  Uiso   1.00
C80    C     0.52487   0.02104   0.27579   0.00000  Uiso   1.00
C81    C     0.50165   0.04294   0.24522   0.00000  Uiso   1.00
C82    C     0.47969   0.02224   0.21166   0.00000  Uiso   1.00
C83    C     0.47897   0.31231   0.21126   0.00000  Uiso   1.00
C84    C     0.50105   0.29062   0.24434   0.00000  Uiso   1.00
C85    C     0.63328   0.19359   0.28056   0.00000  Uiso   1.00
C86    C     0.34960   0.19359   0.28052   0.00000  Uiso   1.00
C87    C     0.36652   0.13940   0.21998   0.00000  Uiso   1.00
C88    C     0.65030   0.13954   0.21979   0.00000  Uiso   1.00
C89    C     0.50033   0.08744   0.24907   0.00000  Uiso   1.00
C90    C     0.52589   0.16336   0.15021   0.00000  Uiso   1.00
C91    C     0.60015   0.14034   0.01177   0.00000  Uiso   1.00
C92    C     0.53973   0.15616   0.09378   0.00000  Uiso   1.00
C93    C     0.41499   0.18890   0.43330   0.00000  Uiso   1.00
C94    C     0.40498   0.19789   0.48608   0.00000  Uiso   1.00
C95    C     0.43808   0.18718   0.01254   0.00000  Uiso   1.00
Cu96   Cu    0.45311   0.16666   0.25000   0.00000  Uiso   1.00
Cu97   Cu    0.54689   0.16667   0.25000   0.00000  Uiso   1.00
H98    H     0.61786   0.15109   0.08270   0.00000  Uiso   1.00
H99    H     0.54216   0.03694   0.30113   0.00000  Uiso   1.00
H100   H     0.60770   0.21512   0.30506   0.00000  Uiso   1.00
H101   H     0.36149   0.21515   0.30494   0.00000  Uiso   1.00
H102   H     0.39178   0.11728   0.19636   0.00000  Uiso   1.00
H103   H     0.63835   0.11782   0.19558   0.00000  Uiso   1.00
H104   H     0.63786   0.13300   0.49121   0.00000  Uiso   1.00
H105   H     0.43066   0.19916   0.05147   0.00000  Uiso   1.00
H106   H     0.37260   0.21543   0.00626   0.00000  Uiso   1.00
H107   H     0.53902   0.11584   0.37489   0.00000  Uiso   1.00
H108   H     0.54177   0.29536   0.30034   0.00000  Uiso   1.00
N109   N     0.38265   0.16666   0.24998   0.00000  Uiso   1.00
N110   N     0.61735   0.16669   0.24999   0.00000  Uiso   1.00
O111   O     0.46042   0.22678   0.25000   0.00000  Uiso   1.00
O112   O     0.53961   0.22679   0.25000   0.00000  Uiso   1.00
O113   O     0.44108   0.16665   0.32549   0.00000  Uiso   1.00
O114   O     0.52027   0.16666   0.32549   0.00000  Uiso   1.00
O115   O     0.46039   0.10654   0.24999   0.00000  Uiso   1.00
O116   O     0.53958   0.10655   0.24999   0.00000  Uiso   1.00
O117   O     0.47973   0.16667   0.17451   0.00000  Uiso   1.00
O118   O     0.55892   0.16668   0.17451   0.00000  Uiso   1.00
O119   O     0.45958   0.04356   0.17855   0.00000  Uiso   1.00
H120   H     0.47886   0.06899   0.16715   0.00000  Uiso   1.00
S121   S     0.45481   0.28598   0.16599   0.00000  Uiso   1.00
O122   O     0.40743   0.26532   0.19450   0.00000  Uiso   1.00
O123   O     0.44536   0.31472   0.12625   0.00000  Uiso   1.00
O124   O     0.49551   0.25023   0.13478   0.00000  Uiso   1.00
H125   H     0.48250   0.23983   0.10692   0.00000  Uiso   1.00
S126   S     0.62660   0.10176   0.39974   0.00000  Uiso   1.00
O127   O     0.33471   0.13214   0.38861   0.00000  Uiso   1.00
O128   O     0.63733   0.06686   0.43143   0.00000  Uiso   1.00
O129   O     0.62179   0.08305   0.34324   0.00000  Uiso   1.00
H130   H     0.65569   0.07540   0.32305   0.00000  Uiso   1.00
O131   O     0.45462   0.14589   0.09615   0.00000  Uiso   1.00
H132   H     0.45506   0.12069   0.11675   0.00000  Uiso   1.00
O133   O     0.38440   0.20342   0.40584   0.00000  Uiso   1.00
H134   H     0.35556   0.21729   0.42993   0.00000  Uiso   1.00
C135   C     0.83387   0.24592   0.24752   0.00000  Uiso   1.00
C136   C     0.81411   0.16411   0.48831   0.00000  Uiso   1.00
C137   C     0.82434   0.15380   0.43540   0.00000  Uiso   1.00
C138   C     0.84874   0.15377   0.01469   0.00000  Uiso   1.00
C139   C     0.89662   0.14075   0.48652   0.00000  Uiso   1.00
C140   C     0.90488   0.12680   0.43510   0.00000  Uiso   1.00
C141   C     0.86725   0.13066   0.41190   0.00000  Uiso   1.00
C142   C     0.83606   0.15383   0.06882   0.00000  Uiso   1.00
C143   C     0.92209   0.15032   0.06443   0.00000  Uiso   1.00
C144   C     0.79208   0.16763   0.40725   0.00000  Uiso   1.00
C145   C     0.85788   0.31184   0.27536   0.00000  Uiso   1.00
C146   C     0.80724   0.16582   0.35007   0.00000  Uiso   1.00
C147   C     0.85820   0.02104   0.27579   0.00000  Uiso   1.00
C148   C     0.83499   0.04294   0.24522   0.00000  Uiso   1.00
C149   C     0.81302   0.02224   0.21166   0.00000  Uiso   1.00
C150   C     0.81230   0.31231   0.21126   0.00000  Uiso   1.00
C151   C     0.83438   0.29062   0.24434   0.00000  Uiso   1.00
C152   C     0.96662   0.19359   0.28056   0.00000  Uiso   1.00
C153   C     0.68293   0.19359   0.28052   0.00000  Uiso   1.00
C154   C     0.69986   0.13940   0.21998   0.00000  Uiso   1.00
C155   C     0.98363   0.13954   0.21979   0.00000  Uiso   1.00
C156   C     0.83366   0.08744   0.24907   0.00000  Uiso   1.00
C157   C     0.85922   0.16336   0.15021   0.00000  Uiso   1.00
C158   C     0.93349   0.14034   0.01177   0.00000  Uiso   1.00
C159   C     0.87306   0.15616   0.09378   0.00000  Uiso   1.00
C160   C     0.74833   0.18890   0.43330   0.00000  Uiso   1.00
C161   C     0.73832   0.19789   0.48608   0.00000  Uiso   1.00
C162   C     0.77141   0.18718   0.01254   0.00000  Uiso   1.00
Cu163  Cu    0.78645   0.16666   0.25000   0.00000  Uiso   1.00
Cu164  Cu    0.88022   0.16667   0.25000   0.00000  Uiso   1.00
H165   H     0.95119   0.15109   0.08270   0.00000  Uiso   1.00
H166   H     0.87549   0.03694   0.30113   0.00000  Uiso   1.00
H167   H     0.94103   0.21512   0.30506   0.00000  Uiso   1.00
H168   H     0.69482   0.21515   0.30494   0.00000  Uiso   1.00
H169   H     0.72511   0.11728   0.19636   0.00000  Uiso   1.00
H170   H     0.97169   0.11782   0.19558   0.00000  Uiso   1.00
H171   H     0.97120   0.13300   0.49121   0.00000  Uiso   1.00
H172   H     0.76399   0.19916   0.05147   0.00000  Uiso   1.00
H173   H     0.70594   0.21543   0.00626   0.00000  Uiso   1.00
H174   H     0.87236   0.11584   0.37489   0.00000  Uiso   1.00
H175   H     0.87511   0.29536   0.30034   0.00000  Uiso   1.00
N176   N     0.71598   0.16666   0.24998   0.00000  Uiso   1.00
N177   N     0.95069   0.16669   0.24999   0.00000  Uiso   1.00
O178   O     0.79375   0.22678   0.25000   0.00000  Uiso   1.00
O179   O     0.87294   0.22679   0.25000   0.00000  Uiso   1.00
O180   O     0.77441   0.16665   0.32549   0.00000  Uiso   1.00
O181   O     0.85360   0.16666   0.32549   0.00000  Uiso   1.00
O182   O     0.79373   0.10654   0.24999   0.00000  Uiso   1.00
O183   O     0.87292   0.10655   0.24999   0.00000  Uiso   1.00
O184   O     0.81306   0.16667   0.17451   0.00000  Uiso   1.00
O185   O     0.89225   0.16668   0.17451   0.00000  Uiso   1.00
O186   O     0.79291   0.04356   0.17855   0.00000  Uiso   1.00
H187   H     0.81220   0.06899   0.16715   0.00000  Uiso   1.00
S188   S     0.78814   0.28598   0.16599   0.00000  Uiso   1.00
O189   O     0.74077   0.26532   0.19450   0.00000  Uiso   1.00
O190   O     0.77870   0.31472   0.12625   0.00000  Uiso   1.00
O191   O     0.82885   0.25023   0.13478   0.00000  Uiso   1.00
H192   H     0.81583   0.23983   0.10692   0.00000  Uiso   1.00
S193   S     0.95994   0.10176   0.39974   0.00000  Uiso   1.00
O194   O     0.66804   0.13214   0.38861   0.00000  Uiso   1.00
O195   O     0.97067   0.06686   0.43143   0.00000  Uiso   1.00
O196   O     0.95512   0.08305   0.34324   0.00000  Uiso   1.00
H197   H     0.98902   0.07540   0.32305   0.00000  Uiso   1.00
O198   O     0.78796   0.14589   0.09615   0.00000  Uiso   1.00
H199   H     0.78840   0.12069   0.11675   0.00000  Uiso   1.00
O200   O     0.71773   0.20342   0.40584   0.00000  Uiso   1.00
H201   H     0.68890   0.21729   0.42993   0.00000  Uiso   1.00
C202   C     0.16720   0.57925   0.24752   0.00000  Uiso   1.00
C203   C     0.14744   0.49745   0.48831   0.00000  Uiso   1.00
C204   C     0.15767   0.48713   0.43540   0.00000  Uiso   1.00
C205   C     0.18207   0.48710   0.01469   0.00000  Uiso   1.00
C206   C     0.22995   0.47409   0.48652   0.00000  Uiso   1.00
C207   C     0.23822   0.46014   0.43510   0.00000  Uiso   1.00
C208   C     0.20059   0.46400   0.41190   0.00000  Uiso   1.00
C209   C     0.16940   0.48716   0.06882   0.00000  Uiso   1.00
C210   C     0.25543   0.48365   0.06443   0.00000  Uiso   1.00
C211   C     0.12541   0.50096   0.40725   0.00000  Uiso   1.00
C212   C     0.19122   0.64517   0.27536   0.00000  Uiso   1.00
C213   C     0.14058   0.49915   0.35007   0.00000  Uiso   1.00
C214   C     0.19154   0.35437   0.27579   0.00000  Uiso   1.00
C215   C     0.16832   0.37627   0.24522   0.00000  Uiso   1.00
C216   C     0.14635   0.35557   0.21166   0.00000  Uiso   1.00
C217   C     0.14563   0.64564   0.21126   0.00000  Uiso   1.00
C218   C     0.16772   0.62395   0.24434   0.00000  Uiso   1.00
C219   C     0.29995   0.52692   0.28056   0.00000  Uiso   1.00
C220   C     0.01627   0.52692   0.28052   0.00000  Uiso   1.00
C221   C     0.03319   0.47273   0.21998   0.00000  Uiso   1.00
C222   C     0.31696   0.47287   0.21979   0.00000  Uiso   1.00
C223   C     0.16700   0.42077   0.24907   0.00000  Uiso   1.00
C224   C     0.19256   0.49669   0.15021   0.00000  Uiso   1.00
C225   C     0.26682   0.47368   0.01177   0.00000  Uiso   1.00
C226   C     0.20639   0.48949   0.09378   0.00000  Uiso   1.00
C227   C     0.08166   0.52223   0.43330   0.00000  Uiso   1.00
C228   C     0.07165   0.53122   0.48608   0.00000  Uiso   1.00
C229   C     0.10474   0.52051   0.01254   0.00000  Uiso   1.00
Cu230  Cu    0.11978   0.49999   0.25000   0.00000  Uiso   1.00
Cu231  Cu    0.21355   0.50001   0.25000   0.00000  Uiso   1.00
H232   H     0.28453   0.48442   0.08270   0.00000  Uiso   1.00
H233   H     0.20883   0.37028   0.30113   0.00000  Uiso   1.00
H234   H     0.27436   0.54846   0.30506   0.00000  Uiso   1.00
H235   H     0.02815   0.54848   0.30494   0.00000  Uiso   1.00
H236   H     0.05844   0.45061   0.19636   0.00000  Uiso   1.00
H237   H     0.30502   0.45115   0.19558   0.00000  Uiso   1.00
H238   H     0.30453   0.46633   0.49121   0.00000  Uiso   1.00
H239   H     0.09733   0.53249   0.05147   0.00000  Uiso   1.00
H240   H     0.03927   0.54876   0.00626   0.00000  Uiso   1.00
H241   H     0.20569   0.44917   0.37489   0.00000  Uiso   1.00
H242   H     0.20844   0.62869   0.30034   0.00000  Uiso   1.00
N243   N     0.04931   0.49999   0.24998   0.00000  Uiso   1.00
N244   N     0.28402   0.50002   0.24999   0.00000  Uiso   1.00
O245   O     0.12708   0.56011   0.25000   0.00000  Uiso   1.00
O246   O     0.20627   0.56012   0.25000   0.00000  Uiso   1.00
O247   O     0.10775   0.49998   0.32549   0.00000  Uiso   1.00
O248   O     0.18694   0.49999   0.32549   0.00000  Uiso   1.00
O249   O     0.12706   0.43988   0.24999   0.00000  Uiso   1.00
O250   O     0.20625   0.43989   0.24999   0.00000  Uiso   1.00
O251   O     0.14640   0.50001   0.17451   0.00000  Uiso   1.00
O252   O     0.22559   0.50002   0.17451   0.00000  Uiso   1.00
O253   O     0.12625   0.37689   0.17855   0.00000  Uiso   1.00
H254   H     0.14553   0.40232   0.16715   0.00000  Uiso   1.00
S255   S     0.12147   0.61932   0.16599   0.00000  Uiso   1.00
O256   O     0.07410   0.59866   0.19450   0.00000  Uiso   1.00
O257   O     0.11203   0.64805   0.12625   0.00000  Uiso   1.00
O258   O     0.16218   0.58356   0.13478   0.00000  Uiso   1.00
H259   H     0.14917   0.57316   0.10692   0.00000  Uiso   1.00
S260   S     0.29327   0.43510   0.39974   0.00000  Uiso   1.00
O261   O     0.00137   0.46548   0.38861   0.00000  Uiso   1.00
O262   O     0.30400   0.40019   0.43143   0.00000  Uiso   1.00
O263   O     0.28846   0.41638   0.34324   0.00000  Uiso   1.00
H264   H     0.32235   0.40873   0.32305   0.00000  Uiso   1.00
O265   O     0.12129   0.47922   0.09615   0.00000  Uiso   1.00
H266   H     0.12173   0.45402   0.11675   0.00000  Uiso   1.00
O267   O     0.05106   0.53675   0.40584   0.00000  Uiso   1.00
H268   H     0.02223   0.55062   0.42993   0.00000  Uiso   1.00
C269   C     0.50053   0.57925   0.24752   0.00000  Uiso   1.00
C270   C     0.48078   0.49745   0.48831   0.00000  Uiso   1.00
C271   C     0.49100   0.48713   0.43540   0.00000  Uiso   1.00
C272   C     0.51540   0.48710   0.01469   0.00000  Uiso   1.00
C273   C     0.56328   0.47409   0.48652   0.00000  Uiso   1.00
C274   C     0.57155   0.46014   0.43510   0.00000  Uiso   1.00
C275   C     0.53392   0.46400   0.41190   0.00000  Uiso   1.00
C276   C     0.50273   0.48716   0.06882   0.00000  Uiso   1.00
C277   C     0.58876   0.48365   0.06443   0.00000  Uiso   1.00
C278   C     0.45875   0.50096   0.40725   0.00000  Uiso   1.00
C279   C     0.52455   0.64517   0.27536   0.00000  Uiso   1.00
C280   C     0.47391   0.49915   0.35007   0.00000  Uiso   1.00
C281   C     0.52487   0.35437   0.27579   0.00000  Uiso   1.00
C282   C     0.50165   0.37627   0.24522   0.00000  Uiso   1.00
C283   C     0.47969   0.35557   0.21166   0.00000  Uiso   1.00
C284   C     0.47897   0.64564   0.21126   0.00000  Uiso   1.00
C285   C     0.50105   0.62395   0.24434   0.00000  Uiso   1.00
C286   C     0.63328   0.52692   0.28056   0.00000  Uiso   1.00
C287   C     0.34960   0.52692   0.28052   0.00000  Uiso   1.00
C288   C     0.36652   0.47273   0.21998   0.00000  Uiso   1.00
C289   C     0.65030   0.47287   0.21979   0.00000  Uiso   1.00
C290   C     0.50033   0.42077   0.24907   0.00000  Uiso   1.00
C291   C     0.52589   0.49669   0.15021   0.00000  Uiso   1.00
C292   C     0.60015   0.47368   0.01177   0.00000  Uiso   1.00
C293   C     0.53973   0.48949   0.09378   0.00000  Uiso   1.00
C294   C     0.41499   0.52223   0.43330   0.00000  Uiso   1.00
C295   C     0.40498   0.53122   0.48608   0.00000  Uiso   1.00
C296   C     0.43808   0.52051   0.01254   0.00000  Uiso   1.00
Cu297  Cu    0.45311   0.49999   0.25000   0.00000  Uiso   1.00
Cu298  Cu    0.54689   0.50001   0.25000   0.00000  Uiso   1.00
H299   H     0.61786   0.48442   0.08270   0.00000  Uiso   1.00
H300   H     0.54216   0.37028   0.30113   0.00000  Uiso   1.00
H301   H     0.60770   0.54846   0.30506   0.00000  Uiso   1.00
H302   H     0.36149   0.54848   0.30494   0.00000  Uiso   1.00
H303   H     0.39178   0.45061   0.19636   0.00000  Uiso   1.00
H304   H     0.63835   0.45115   0.19558   0.00000  Uiso   1.00
H305   H     0.63786   0.46633   0.49121   0.00000  Uiso   1.00
H306   H     0.43066   0.53249   0.05147   0.00000  Uiso   1.00
H307   H     0.37260   0.54876   0.00626   0.00000  Uiso   1.00
H308   H     0.53902   0.44917   0.37489   0.00000  Uiso   1.00
H309   H     0.54177   0.62869   0.30034   0.00000  Uiso   1.00
N310   N     0.38265   0.49999   0.24998   0.00000  Uiso   1.00
N311   N     0.61735   0.50002   0.24999   0.00000  Uiso   1.00
O312   O     0.46042   0.56011   0.25000   0.00000  Uiso   1.00
O313   O     0.53961   0.56012   0.25000   0.00000  Uiso   1.00
O314   O     0.44108   0.49998   0.32549   0.00000  Uiso   1.00
O315   O     0.52027   0.49999   0.32549   0.00000  Uiso   1.00
O316   O     0.46039   0.43988   0.24999   0.00000  Uiso   1.00
O317   O     0.53958   0.43989   0.24999   0.00000  Uiso   1.00
O318   O     0.47973   0.50001   0.17451   0.00000  Uiso   1.00
O319   O     0.55892   0.50002   0.17451   0.00000  Uiso   1.00
O320   O     0.45958   0.37689   0.17855   0.00000  Uiso   1.00
H321   H     0.47886   0.40232   0.16715   0.00000  Uiso   1.00
S322   S     0.45481   0.61932   0.16599   0.00000  Uiso   1.00
O323   O     0.40743   0.59866   0.19450   0.00000  Uiso   1.00
O324   O     0.44536   0.64805   0.12625   0.00000  Uiso   1.00
O325   O     0.49551   0.58356   0.13478   0.00000  Uiso   1.00
H326   H     0.48250   0.57316   0.10692   0.00000  Uiso   1.00
S327   S     0.62660   0.43510   0.39974   0.00000  Uiso   1.00
O328   O     0.33471   0.46548   0.38861   0.00000  Uiso   1.00
O329   O     0.63733   0.40019   0.43143   0.00000  Uiso   1.00
O330   O     0.62179   0.41638   0.34324   0.00000  Uiso   1.00
H331   H     0.65569   0.40873   0.32305   0.00000  Uiso   1.00
O332   O     0.45462   0.47922   0.09615   0.00000  Uiso   1.00
H333   H     0.45506   0.45402   0.11675   0.00000  Uiso   1.00
O334   O     0.38440   0.53675   0.40584   0.00000  Uiso   1.00
H335   H     0.35556   0.55062   0.42993   0.00000  Uiso   1.00
C336   C     0.83387   0.57925   0.24752   0.00000  Uiso   1.00
C337   C     0.81411   0.49745   0.48831   0.00000  Uiso   1.00
C338   C     0.82434   0.48713   0.43540   0.00000  Uiso   1.00
C339   C     0.84874   0.48710   0.01469   0.00000  Uiso   1.00
C340   C     0.89662   0.47409   0.48652   0.00000  Uiso   1.00
C341   C     0.90488   0.46014   0.43510   0.00000  Uiso   1.00
C342   C     0.86725   0.46400   0.41190   0.00000  Uiso   1.00
C343   C     0.83606   0.48716   0.06882   0.00000  Uiso   1.00
C344   C     0.92209   0.48365   0.06443   0.00000  Uiso   1.00
C345   C     0.79208   0.50096   0.40725   0.00000  Uiso   1.00
C346   C     0.85788   0.64517   0.27536   0.00000  Uiso   1.00
C347   C     0.80724   0.49915   0.35007   0.00000  Uiso   1.00
C348   C     0.85820   0.35437   0.27579   0.00000  Uiso   1.00
C349   C     0.83499   0.37627   0.24522   0.00000  Uiso   1.00
C350   C     0.81302   0.35557   0.21166   0.00000  Uiso   1.00
C351   C     0.81230   0.64564   0.21126   0.00000  Uiso   1.00
C352   C     0.83438   0.62395   0.24434   0.00000  Uiso   1.00
C353   C     0.96662   0.52692   0.28056   0.00000  Uiso   1.00
C354   C     0.68293   0.52692   0.28052   0.00000  Uiso   1.00
C355   C     0.69986   0.47273   0.21998   0.00000  Uiso   1.00
C356   C     0.98363   0.47287   0.21979   0.00000  Uiso   1.00
C357   C     0.83366   0.42077   0.24907   0.00000  Uiso   1.00
C358   C     0.85922   0.49669   0.15021   0.00000  Uiso   1.00
C359   C     0.93349   0.47368   0.01177   0.00000  Uiso   1.00
C360   C     0.87306   0.48949   0.09378   0.00000  Uiso   1.00
C361   C     0.74833   0.52223   0.43330   0.00000  Uiso   1.00
C362   C     0.73832   0.53122   0.48608   0.00000  Uiso   1.00
C363   C     0.77141   0.52051   0.01254   0.00000  Uiso   1.00
Cu364  Cu    0.78645   0.49999   0.25000   0.00000  Uiso   1.00
Cu365  Cu    0.88022   0.50001   0.25000   0.00000  Uiso   1.00
H366   H     0.95119   0.48442   0.08270   0.00000  Uiso   1.00
H367   H     0.87549   0.37028   0.30113   0.00000  Uiso   1.00
H368   H     0.94103   0.54846   0.30506   0.00000  Uiso   1.00
H369   H     0.69482   0.54848   0.30494   0.00000  Uiso   1.00
H370   H     0.72511   0.45061   0.19636   0.00000  Uiso   1.00
H371   H     0.97169   0.45115   0.19558   0.00000  Uiso   1.00
H372   H     0.97120   0.46633   0.49121   0.00000  Uiso   1.00
H373   H     0.76399   0.53249   0.05147   0.00000  Uiso   1.00
H374   H     0.70594   0.54876   0.00626   0.00000  Uiso   1.00
H375   H     0.87236   0.44917   0.37489   0.00000  Uiso   1.00
H376   H     0.87511   0.62869   0.30034   0.00000  Uiso   1.00
N377   N     0.71598   0.49999   0.24998   0.00000  Uiso   1.00
N378   N     0.95069   0.50002   0.24999   0.00000  Uiso   1.00
O379   O     0.79375   0.56011   0.25000   0.00000  Uiso   1.00
O380   O     0.87294   0.56012   0.25000   0.00000  Uiso   1.00
O381   O     0.77441   0.49998   0.32549   0.00000  Uiso   1.00
O382   O     0.85360   0.49999   0.32549   0.00000  Uiso   1.00
O383   O     0.79373   0.43988   0.24999   0.00000  Uiso   1.00
O384   O     0.87292   0.43989   0.24999   0.00000  Uiso   1.00
O385   O     0.81306   0.50001   0.17451   0.00000  Uiso   1.00
O386   O     0.89225   0.50002   0.17451   0.00000  Uiso   1.00
O387   O     0.79291   0.37689   0.17855   0.00000  Uiso   1.00
H388   H     0.81220   0.40232   0.16715   0.00000  Uiso   1.00
S389   S     0.78814   0.61932   0.16599   0.00000  Uiso   1.00
O390   O     0.74077   0.59866   0.19450   0.00000  Uiso   1.00
O391   O     0.77870   0.64805   0.12625   0.00000  Uiso   1.00
O392   O     0.82885   0.58356   0.13478   0.00000  Uiso   1.00
H393   H     0.81583   0.57316   0.10692   0.00000  Uiso   1.00
S394   S     0.95994   0.43510   0.39974   0.00000  Uiso   1.00
O395   O     0.66804   0.46548   0.38861   0.00000  Uiso   1.00
O396   O     0.97067   0.40019   0.43143   0.00000  Uiso   1.00
O397   O     0.95512   0.41638   0.34324   0.00000  Uiso   1.00
H398   H     0.98902   0.40873   0.32305   0.00000  Uiso   1.00
O399   O     0.78796   0.47922   0.09615   0.00000  Uiso   1.00
H400   H     0.78840   0.45402   0.11675   0.00000  Uiso   1.00
O401   O     0.71773   0.53675   0.40584   0.00000  Uiso   1.00
H402   H     0.68890   0.55062   0.42993   0.00000  Uiso   1.00
C403   C     0.16720   0.91259   0.24752   0.00000  Uiso   1.00
C404   C     0.14744   0.83078   0.48831   0.00000  Uiso   1.00
C405   C     0.15767   0.82047   0.43540   0.00000  Uiso   1.00
C406   C     0.18207   0.82043   0.01469   0.00000  Uiso   1.00
C407   C     0.22995   0.80742   0.48652   0.00000  Uiso   1.00
C408   C     0.23822   0.79347   0.43510   0.00000  Uiso   1.00
C409   C     0.20059   0.79733   0.41190   0.00000  Uiso   1.00
C410   C     0.16940   0.82049   0.06882   0.00000  Uiso   1.00
C411   C     0.25543   0.81699   0.06443   0.00000  Uiso   1.00
C412   C     0.12541   0.83429   0.40725   0.00000  Uiso   1.00
C413   C     0.19122   0.97850   0.27536   0.00000  Uiso   1.00
C414   C     0.14058   0.83248   0.35007   0.00000  Uiso   1.00
C415   C     0.19154   0.68771   0.27579   0.00000  Uiso   1.00
C416   C     0.16832   0.70961   0.24522   0.00000  Uiso   1.00
C417   C     0.14635   0.68891   0.21166   0.00000  Uiso   1.00
C418   C     0.14563   0.97897   0.21126   0.00000  Uiso   1.00
C419   C     0.16772   0.95729   0.24434   0.00000  Uiso   1.00
C420   C     0.29995   0.86025   0.28056   0.00000  Uiso   1.00
C421   C     0.01627   0.86026   0.28052   0.00000  Uiso   1.00
C422   C     0.03319   0.80607   0.21998   0.00000  Uiso   1.00
C423   C     0.31696   0.80620   0.21979   0.00000  Uiso   1.00
C424   C     0.16700   0.75411   0.24907   0.00000  Uiso   1.00
C425   C     0.19256   0.83003   0.15021   0.00000  Uiso   1.00
C426   C     0.26682   0.80701   0.01177   0.00000  Uiso   1.00
C427   C     0.20639   0.82283   0.09378   0.00000  Uiso   1.00
C428   C     0.08166   0.85556   0.43330   0.00000  Uiso   1.00
C429   C     0.07165   0.86456   0.48608   0.00000  Uiso   1.00
C430   C     0.10474   0.85384   0.01254   0.00000  Uiso   1.00
Cu431  Cu    0.11978   0.83333   0.25000   0.00000  Uiso   1.00
Cu432  Cu    0.21355   0.83334   0.25000   0.00000  Uiso   1.00
H433   H     0.28453   0.81775   0.08270   0.00000  Uiso   1.00
H434   H     0.20883   0.70361   0.30113   0.00000  Uiso   1.00
H435   H     0.27436   0.88179   0.30506   0.00000  Uiso   1.00
H436   H     0.02815   0.88182   0.30494   0.00000  Uiso   1.00
H437   H     0.05844   0.78395   0.19636   0.00000  Uiso   1.00
H438   H     0.30502   0.78448   0.19558   0.00000  Uiso   1.00
H439   H     0.30453   0.79967   0.49121   0.00000  Uiso   1.00
H440   H     0.09733   0.86582   0.05147   0.00000  Uiso   1.00
H441   H     0.03927   0.88209   0.00626   0.00000  Uiso   1.00
H442   H     0.20569   0.78250   0.37489   0.00000  Uiso   1.00
H443   H     0.20844   0.96203   0.30034   0.00000  Uiso   1.00
N444   N     0.04931   0.83332   0.24998   0.00000  Uiso   1.00
N445   N     0.28402   0.83335   0.24999   0.00000  Uiso   1.00
O446   O     0.12708   0.89345   0.25000   0.00000  Uiso   1.00
O447   O     0.20627   0.89346   0.25000   0.00000  Uiso   1.00
O448   O     0.10775   0.83332   0.32549   0.00000  Uiso   1.00
O449   O     0.18694   0.83333   0.32549   0.00000  Uiso   1.00
O450   O     0.12706   0.77321   0.24999   0.00000  Uiso   1.00
O451   O     0.20625   0.77322   0.24999   0.00000  Uiso   1.00
O452   O     0.14640   0.83334   0.17451   0.00000  Uiso   1.00
O453   O     0.22559   0.83335   0.17451   0.00000  Uiso   1.00
O454   O     0.12625   0.71023   0.17855   0.00000  Uiso   1.00
H455   H     0.14553   0.73565   0.16715   0.00000  Uiso   1.00
S456   S     0.12147   0.95265   0.16599   0.00000  Uiso   1.00
O457   O     0.07410   0.93199   0.19450   0.00000  Uiso   1.00
O458   O     0.11203   0.98139   0.12625   0.00000  Uiso   1.00
O459   O     0.16218   0.91689   0.13478   0.00000  Uiso   1.00
H460   H     0.14917   0.90649   0.10692   0.00000  Uiso   1.00
S461   S     0.29327   0.76843   0.39974   0.00000  Uiso   1.00
O462   O     0.00137   0.79881   0.38861   0.00000  Uiso   1.00
O463   O     0.30400   0.73353   0.43143   0.00000  Uiso   1.00
O464   O     0.28846   0.74972   0.34324   0.00000  Uiso   1.00
H465   H     0.32235   0.74206   0.32305   0.00000  Uiso   1.00
O466   O     0.12129   0.81256   0.09615   0.00000  Uiso   1.00
H467   H     0.12173   0.78735   0.11675   0.00000  Uiso   1.00
O468   O     0.05106   0.87008   0.40584   0.00000  Uiso   1.00
H469   H     0.02223   0.88396   0.42993   0.00000  Uiso   1.00
C470   C     0.50053   0.91259   0.24752   0.00000  Uiso   1.00
C471   C     0.48078   0.83078   0.48831   0.00000  Uiso   1.00
C472   C     0.49100   0.82047   0.43540   0.00000  Uiso   1.00
C473   C     0.51540   0.82043   0.01469   0.00000  Uiso   1.00
C474   C     0.56328   0.80742   0.48652   0.00000  Uiso   1.00
C475   C     0.57155   0.79347   0.43510   0.00000  Uiso   1.00
C476   C     0.53392   0.79733   0.41190   0.00000  Uiso   1.00
C477   C     0.50273   0.82049   0.06882   0.00000  Uiso   1.00
C478   C     0.58876   0.81699   0.06443   0.00000  Uiso   1.00
C479   C     0.45875   0.83429   0.40725   0.00000  Uiso   1.00
C480   C     0.52455   0.97850   0.27536   0.00000  Uiso   1.00
C481   C     0.47391   0.83248   0.35007   0.00000  Uiso   1.00
C482   C     0.52487   0.68771   0.27579   0.00000  Uiso   1.00
C483   C     0.50165   0.70961   0.24522   0.00000  Uiso   1.00
C484   C     0.47969   0.68891   0.21166   0.00000  Uiso   1.00
C485   C     0.47897   0.97897   0.21126   0.00000  Uiso   1.00
C486   C     0.50105   0.95729   0.24434   0.00000  Uiso   1.00
C487   C     0.63328   0.86025   0.28056   0.00000  Uiso   1.00
C488   C     0.34960   0.86026   0.28052   0.00000  Uiso   1.00
C489   C     0.36652   0.80607   0.21998   0.00000  Uiso   1.00
C490   C     0.65030   0.80620   0.21979   0.00000  Uiso   1.00
C491   C     0.50033   0.75411   0.24907   0.00000  Uiso   1.00
C492   C     0.52589   0.83003   0.15021   0.00000  Uiso   1.00
C493   C     0.60015   0.80701   0.01177   0.00000  Uiso   1.00
C494   C     0.53973   0.82283   0.09378   0.00000  Uiso   1.00
C495   C     0.41499   0.85556   0.43330   0.00000  Uiso   1.00
C496   C     0.40498   0.86456   0.48608   0.00000  Uiso   1.00
C497   C     0.43808   0.85384   0.01254   0.00000  Uiso   1.00
Cu498  Cu    0.45311   0.83333   0.25000   0.00000  Uiso   1.00
Cu499  Cu    0.54689   0.83334   0.25000   0.00000  Uiso   1.00
H500   H     0.61786   0.81775   0.08270   0.00000  Uiso   1.00
H501   H     0.54216   0.70361   0.30113   0.00000  Uiso   1.00
H502   H     0.60770   0.88179   0.30506   0.00000  Uiso   1.00
H503   H     0.36149   0.88182   0.30494   0.00000  Uiso   1.00
H504   H     0.39178   0.78395   0.19636   0.00000  Uiso   1.00
H505   H     0.63835   0.78448   0.19558   0.00000  Uiso   1.00
H506   H     0.63786   0.79967   0.49121   0.00000  Uiso   1.00
H507   H     0.43066   0.86582   0.05147   0.00000  Uiso   1.00
H508   H     0.37260   0.88209   0.00626   0.00000  Uiso   1.00
H509   H     0.53902   0.78250   0.37489   0.00000  Uiso   1.00
H510   H     0.54177   0.96203   0.30034   0.00000  Uiso   1.00
N511   N     0.38265   0.83332   0.24998   0.00000  Uiso   1.00
N512   N     0.61735   0.83335   0.24999   0.00000  Uiso   1.00
O513   O     0.46042   0.89345   0.25000   0.00000  Uiso   1.00
O514   O     0.53961   0.89346   0.25000   0.00000  Uiso   1.00
O515   O     0.44108   0.83332   0.32549   0.00000  Uiso   1.00
O516   O     0.52027   0.83333   0.32549   0.00000  Uiso   1.00
O517   O     0.46039   0.77321   0.24999   0.00000  Uiso   1.00
O518   O     0.53958   0.77322   0.24999   0.00000  Uiso   1.00
O519   O     0.47973   0.83334   0.17451   0.00000  Uiso   1.00
O520   O     0.55892   0.83335   0.17451   0.00000  Uiso   1.00
O521   O     0.45958   0.71023   0.17855   0.00000  Uiso   1.00
H522   H     0.47886   0.73565   0.16715   0.00000  Uiso   1.00
S523   S     0.45481   0.95265   0.16599   0.00000  Uiso   1.00
O524   O     0.40743   0.93199   0.19450   0.00000  Uiso   1.00
O525   O     0.44536   0.98139   0.12625   0.00000  Uiso   1.00
O526   O     0.49551   0.91689   0.13478   0.00000  Uiso   1.00
H527   H     0.48250   0.90649   0.10692   0.00000  Uiso   1.00
S528   S     0.62660   0.76843   0.39974   0.00000  Uiso   1.00
O529   O     0.33471   0.79881   0.38861   0.00000  Uiso   1.00
O530   O     0.63733   0.73353   0.43143   0.00000  Uiso   1.00
O531   O     0.62179   0.74972   0.34324   0.00000  Uiso   1.00
H532   H     0.65569   0.74206   0.32305   0.00000  Uiso   1.00
O533   O     0.45462   0.81256   0.09615   0.00000  Uiso   1.00
H534   H     0.45506   0.78735   0.11675   0.00000  Uiso   1.00
O535   O     0.38440   0.87008   0.40584   0.00000  Uiso   1.00
H536   H     0.35556   0.88396   0.42993   0.00000  Uiso   1.00
C537   C     0.83387   0.91259   0.24752   0.00000  Uiso   1.00
C538   C     0.81411   0.83078   0.48831   0.00000  Uiso   1.00
C539   C     0.82434   0.82047   0.43540   0.00000  Uiso   1.00
C540   C     0.84874   0.82043   0.01469   0.00000  Uiso   1.00
C541   C     0.89662   0.80742   0.48652   0.00000  Uiso   1.00
C542   C     0.90488   0.79347   0.43510   0.00000  Uiso   1.00
C543   C     0.86725   0.79733   0.41190   0.00000  Uiso   1.00
C544   C     0.83606   0.82049   0.06882   0.00000  Uiso   1.00
C545   C     0.92209   0.81699   0.06443   0.00000  Uiso   1.00
C546   C     0.79208   0.83429   0.40725   0.00000  Uiso   1.00
C547   C     0.85788   0.97850   0.27536   0.00000  Uiso   1.00
C548   C     0.80724   0.83248   0.35007   0.00000  Uiso   1.00
C549   C     0.85820   0.68771   0.27579   0.00000  Uiso   1.00
C550   C     0.83499   0.70961   0.24522   0.00000  Uiso   1.00
C551   C     0.81302   0.68891   0.21166   0.00000  Uiso   1.00
C552   C     0.81230   0.97897   0.21126   0.00000  Uiso   1.00
C553   C     0.83438   0.95729   0.24434   0.00000  Uiso   1.00
C554   C     0.96662   0.86025   0.28056   0.00000  Uiso   1.00
C555   C     0.68293   0.86026   0.28052   0.00000  Uiso   1.00
C556   C     0.69986   0.80607   0.21998   0.00000  Uiso   1.00
C557   C     0.98363   0.80620   0.21979   0.00000  Uiso   1.00
C558   C     0.83366   0.75411   0.24907   0.00000  Uiso   1.00
C559   C     0.85922   0.83003   0.15021   0.00000  Uiso   1.00
C560   C     0.93349   0.80701   0.01177   0.00000  Uiso   1.00
C561   C     0.87306   0.82283   0.09378   0.00000  Uiso   1.00
C562   C     0.74833   0.85556   0.43330   0.00000  Uiso   1.00
C563   C     0.73832   0.86456   0.48608   0.00000  Uiso   1.00
C564   C     0.77141   0.85384   0.01254   0.00000  Uiso   1.00
Cu565  Cu    0.78645   0.83333   0.25000   0.00000  Uiso   1.00
Cu566  Cu    0.88022   0.83334   0.25000   0.00000  Uiso   1.00
H567   H     0.95119   0.81775   0.08270   0.00000  Uiso   1.00
H568   H     0.87549   0.70361   0.30113   0.00000  Uiso   1.00
H569   H     0.94103   0.88179   0.30506   0.00000  Uiso   1.00
H570   H     0.69482   0.88182   0.30494   0.00000  Uiso   1.00
H571   H     0.72511   0.78395   0.19636   0.00000  Uiso   1.00
H572   H     0.97169   0.78448   0.19558   0.00000  Uiso   1.00
H573   H     0.97120   0.79967   0.49121   0.00000  Uiso   1.00
H574   H     0.76399   0.86582   0.05147   0.00000  Uiso   1.00
H575   H     0.70594   0.88209   0.00626   0.00000  Uiso   1.00
H576   H     0.87236   0.78250   0.37489   0.00000  Uiso   1.00
H577   H     0.87511   0.96203   0.30034   0.00000  Uiso   1.00
N578   N     0.71598   0.83332   0.24998   0.00000  Uiso   1.00
N579   N     0.95069   0.83335   0.24999   0.00000  Uiso   1.00
O580   O     0.79375   0.89345   0.25000   0.00000  Uiso   1.00
O581   O     0.87294   0.89346   0.25000   0.00000  Uiso   1.00
O582   O     0.77441   0.83332   0.32549   0.00000  Uiso   1.00
O583   O     0.85360   0.83333   0.32549   0.00000  Uiso   1.00
O584   O     0.79373   0.77321   0.24999   0.00000  Uiso   1.00
O585   O     0.87292   0.77322   0.24999   0.00000  Uiso   1.00
O586   O     0.81306   0.83334   0.17451   0.00000  Uiso   1.00
O587   O     0.89225   0.83335   0.17451   0.00000  Uiso   1.00
O588   O     0.79291   0.71023   0.17855   0.00000  Uiso   1.00
H589   H     0.81220   0.73565   0.16715   0.00000  Uiso   1.00
S590   S     0.78814   0.95265   0.16599   0.00000  Uiso   1.00
O591   O     0.74077   0.93199   0.19450   0.00000  Uiso   1.00
O592   O     0.77870   0.98139   0.12625   0.00000  Uiso   1.00
O593   O     0.82885   0.91689   0.13478   0.00000  Uiso   1.00
H594   H     0.81583   0.90649   0.10692   0.00000  Uiso   1.00
S595   S     0.95994   0.76843   0.39974   0.00000  Uiso   1.00
O596   O     0.66804   0.79881   0.38861   0.00000  Uiso   1.00
O597   O     0.97067   0.73353   0.43143   0.00000  Uiso   1.00
O598   O     0.95512   0.74972   0.34324   0.00000  Uiso   1.00
H599   H     0.98902   0.74206   0.32305   0.00000  Uiso   1.00
O600   O     0.78796   0.81256   0.09615   0.00000  Uiso   1.00
H601   H     0.78840   0.78735   0.11675   0.00000  Uiso   1.00
O602   O     0.71773   0.87008   0.40584   0.00000  Uiso   1.00
H603   H     0.68890   0.88396   0.42993   0.00000  Uiso   1.00
C604   C     0.16720   0.24592   0.74752   0.00000  Uiso   1.00
C605   C     0.14744   0.16411   0.98831   0.00000  Uiso   1.00
C606   C     0.15767   0.15380   0.93540   0.00000  Uiso   1.00
C607   C     0.18207   0.15377   0.51469   0.00000  Uiso   1.00
C608   C     0.22995   0.14075   0.98652   0.00000  Uiso   1.00
C609   C     0.23822   0.12680   0.93510   0.00000  Uiso   1.00
C610   C     0.20059   0.13066   0.91190   0.00000  Uiso   1.00
C611   C     0.16940   0.15383   0.56882   0.00000  Uiso   1.00
C612   C     0.25543   0.15032   0.56443   0.00000  Uiso   1.00
C613   C     0.12541   0.16763   0.90725   0.00000  Uiso   1.00
C614   C     0.19122   0.31184   0.77536   0.00000  Uiso   1.00
C615   C     0.14058   0.16582   0.85007   0.00000  Uiso   1.00
C616   C     0.19154   0.02104   0.77579   0.00000  Uiso   1.00
C617   C     0.16832   0.04294   0.74522   0.00000  Uiso   1.00
C618   C     0.14635   0.02224   0.71166   0.00000  Uiso   1.00
C619   C     0.14563   0.31231   0.71126   0.00000  Uiso   1.00
C620   C     0.16772   0.29062   0.74434   0.00000  Uiso   1.00
C621   C     0.29995   0.19359   0.78056   0.00000  Uiso   1.00
C622   C     0.01627   0.19359   0.78052   0.00000  Uiso   1.00
C623   C     0.03319   0.13940   0.71998   0.00000  Uiso   1.00
C624   C     0.31696   0.13954   0.71979   0.00000  Uiso   1.00
C625   C     0.16700   0.08744   0.74907   0.00000  Uiso   1.00
C626   C     0.19256   0.16336   0.65021   0.00000  Uiso   1.00
C627   C     0.26682   0.14034   0.51177   0.00000  Uiso   1.00
C628   C     0.20639   0.15616   0.59378   0.00000  Uiso   1.00
C629   C     0.08166   0.18890   0.93330   0.00000  Uiso   1.00
C630   C     0.07165   0.19789   0.98608   0.00000  Uiso   1.00
C631   C     0.10474   0.18718   0.51254   0.00000  Uiso   1.00
Cu632  Cu    0.11978   0.16666   0.75000   0.00000  Uiso   1.00
Cu633  Cu    0.21355   0.16667   0.75000   0.00000  Uiso   1.00
H634   H     0.28453   0.15109   0.58270   0.00000  Uiso   1.00
H635   H     0.20883   0.03694   0.80113   0.00000  Uiso   1.00
H636   H     0.27436   0.21512   0.80506   0.00000  Uiso   1.00
H637   H     0.02815   0.21515   0.80494   0.00000  Uiso   1.00
H638   H     0.05844   0.11728   0.69636   0.00000  Uiso   1.00
H639   H     0.30502   0.11782   0.69558   0.00000  Uiso   1.00
H640   H     0.30453   0.13300   0.99121   0.00000  Uiso   1.00
H641   H     0.09733   0.19916   0.55147   0.00000  Uiso   1.00
H642   H     0.03927   0.21543   0.50626   0.00000  Uiso   1.00
H643   H     0.20569   0.11584   0.87489   0.00000  Uiso   1.00
H644   H     0.20844   0.29536   0.80034   0.00000  Uiso   1.00
N645   N     0.04931   0.16666   0.74998   0.00000  Uiso   1.00
N646   N     0.28402   0.16669   0.74999   0.00000  Uiso   1.00
O647   O     0.12708   0.22678   0.75000   0.00000  Uiso   1.00
O648   O     0.20627   0.22679   0.75000   0.00000  Uiso   1.00
O649   O     0.10775   0.16665   0.82549   0.00000  Uiso   1.00
O650   O     0.18694   0.16666   0.82549   0.00000  Uiso   1.00
O651   O     0.12706   0.10654   0.74999   0.00000  Uiso   1.00
O652   O     0.20625   0.10655   0.74999   0.00000  Uiso   1.00
O653   O     0.14640   0.16667   0.67451   0.00000  Uiso   1.00
O654   O     0.22559   0.16668   0.67451   0.00000  Uiso   1.00
O655   O     0.12625   0.04356   0.67855   0.00000  Uiso   1.00
H656   H     0.14553   0.06899   0.66715   0.00000  Uiso   1.00
S657   S     0.12147   0.28598   0.66599   0.00000  Uiso   1.00
O658   O     0.07410   0.26532   0.69450   0.00000  Uiso   1.00
O659   O     0.11203   0.31472   0.62625   0.00000  Uiso   1.00
O660   O     0.16218   0.25023   0.63478   0.00000  Uiso   1.00
H661   H     0.14917   0.23983   0.60692   0.00000  Uiso   1.00
S662   S     0.29327   0.10176   0.89974   0.00000  Uiso   1.00
O663   O     0.00137   0.13214   0.88861   0.00000  Uiso   1.00
O664   O     0.30400   0.06686   0.93143   0.00000  Uiso   1.00
O665   O     0.28846   0.08305   0.84324   0.00000  Uiso   1.00
H666   H     0.32235   0.07540   0.82305   0.00000  Uiso   1.00
O667   O     0.12129   0.14589   0.59615   0.00000  Uiso   1.00
H668   H     0.12173   0.12069   0.61675   0.00000  Uiso   1.00
O669   O     0.05106   0.20342   0.90584   0.00000  Uiso   1.00
H670   H     0.02223   0.21729   0.92993   0.00000  Uiso   1.00
C671   C     0.50053   0.24592   0.74752   0.00000  Uiso   1.00
C672   C     0.48078   0.16411   0.98831   0.00000  Uiso   1.00
C673   C     0.49100   0.15380   0.93540   0.00000  Uiso   1.00
C674   C     0.51540   0.15377   0.51469   0.00000  Uiso   1.00
C675   C     0.56328   0.14075   0.98652   0.00000  Uiso   1.00
C676   C     0.57155   0.12680   0.93510   0.00000  Uiso   1.00
C677   C     0.53392   0.13066   0.91190   0.00000  Uiso   1.00
C678   C     0.50273   0.15383   0.56882   0.00000  Uiso   1.00
C679   C     0.58876   0.15032   0.56443   0.00000  Uiso   1.00
C680   C     0.45875   0.16763   0.90725   0.00000  Uiso   1.00
C681   C     0.52455   0.31184   0.77536   0.00000  Uiso   1.00
C682   C     0.47391   0.16582   0.85007   0.00000  Uiso   1.00
C683   C     0.52487   0.02104   0.77579   0.00000  Uiso   1.00
C684   C     0.50165   0.04294   0.74522   0.00000  Uiso   1.00
C685   C     0.47969   0.02224   0.71166   0.00000  Uiso   1.00
C686   C     0.47897   0.31231   0.71126   0.00000  Uiso   1.00
C687   C     0.50105   0.29062   0.74434   0.00000  Uiso   1.00
C688   C     0.63328   0.19359   0.78056   0.00000  Uiso   1.00
C689   C     0.34960   0.19359   0.78052   0.00000  Uiso   1.00
C690   C     0.36652   0.13940   0.71998   0.00000  Uiso   1.00
C691   C     0.65030   0.13954   0.71979   0.00000  Uiso   1.00
C692   C     0.50033   0.08744   0.74907   0.00000  Uiso   1.00
C693   C     0.52589   0.16336   0.65021   0.00000  Uiso   1.00
C694   C     0.60015   0.14034   0.51177   0.00000  Uiso   1.00
C695   C     0.53973   0.15616   0.59378   0.00000  Uiso   1.00
C696   C     0.41499   0.18890   0.93330   0.00000  Uiso   1.00
C697   C     0.40498   0.19789   0.98608   0.00000  Uiso   1.00
C698   C     0.43808   0.18718   0.51254   0.00000  Uiso   1.00
Cu699  Cu    0.45311   0.16666   0.75000   0.00000  Uiso   1.00
Cu700  Cu    0.54689   0.16667   0.75000   0.00000  Uiso   1.00
H701   H     0.61786   0.15109   0.58270   0.00000  Uiso   1.00
H702   H     0.54216   0.03694   0.80113   0.00000  Uiso   1.00
H703   H     0.60770   0.21512   0.80506   0.00000  Uiso   1.00
H704   H     0.36149   0.21515   0.80494   0.00000  Uiso   1.00
H705   H     0.39178   0.11728   0.69636   0.00000  Uiso   1.00
H706   H     0.63835   0.11782   0.69558   0.00000  Uiso   1.00
H707   H     0.63786   0.13300   0.99121   0.00000  Uiso   1.00
H708   H     0.43066   0.19916   0.55147   0.00000  Uiso   1.00
H709   H     0.37260   0.21543   0.50626   0.00000  Uiso   1.00
H710   H     0.53902   0.11584   0.87489   0.00000  Uiso   1.00
H711   H     0.54177   0.29536   0.80034   0.00000  Uiso   1.00
N712   N     0.38265   0.16666   0.74998   0.00000  Uiso   1.00
N713   N     0.61735   0.16669   0.74999   0.00000  Uiso   1.00
O714   O     0.46042   0.22678   0.75000   0.00000  Uiso   1.00
O715   O     0.53961   0.22679   0.75000   0.00000  Uiso   1.00
O716   O     0.44108   0.16665   0.82549   0.00000  Uiso   1.00
O717   O     0.52027   0.16666   0.82549   0.00000  Uiso   1.00
O718   O     0.46039   0.10654   0.74999   0.00000  Uiso   1.00
O719   O     0.53958   0.10655   0.74999   0.00000  Uiso   1.00
O720   O     0.47973   0.16667   0.67451   0.00000  Uiso   1.00
O721   O     0.55892   0.16668   0.67451   0.00000  Uiso   1.00
O722   O     0.45958   0.04356   0.67855   0.00000  Uiso   1.00
H723   H     0.47886   0.06899   0.66715   0.00000  Uiso   1.00
S724   S     0.45481   0.28598   0.66599   0.00000  Uiso   1.00
O725   O     0.40743   0.26532   0.69450   0.00000  Uiso   1.00
O726   O     0.44536   0.31472   0.62625   0.00000  Uiso   1.00
O727   O     0.49551   0.25023   0.63478   0.00000  Uiso   1.00
H728   H     0.48250   0.23983   0.60692   0.00000  Uiso   1.00
S729   S     0.62660   0.10176   0.89974   0.00000  Uiso   1.00
O730   O     0.33471   0.13214   0.88861   0.00000  Uiso   1.00
O731   O     0.63733   0.06686   0.93143   0.00000  Uiso   1.00
O732   O     0.62179   0.08305   0.84324   0.00000  Uiso   1.00
H733   H     0.65569   0.07540   0.82305   0.00000  Uiso   1.00
O734   O     0.45462   0.14589   0.59615   0.00000  Uiso   1.00
H735   H     0.45506   0.12069   0.61675   0.00000  Uiso   1.00
O736   O     0.38440   0.20342   0.90584   0.00000  Uiso   1.00
H737   H     0.35556   0.21729   0.92993   0.00000  Uiso   1.00
C738   C     0.83387   0.24592   0.74752   0.00000  Uiso   1.00
C739   C     0.81411   0.16411   0.98831   0.00000  Uiso   1.00
C740   C     0.82434   0.15380   0.93540   0.00000  Uiso   1.00
C741   C     0.84874   0.15377   0.51469   0.00000  Uiso   1.00
C742   C     0.89662   0.14075   0.98652   0.00000  Uiso   1.00
C743   C     0.90488   0.12680   0.93510   0.00000  Uiso   1.00
C744   C     0.86725   0.13066   0.91190   0.00000  Uiso   1.00
C745   C     0.83606   0.15383   0.56882   0.00000  Uiso   1.00
C746   C     0.92209   0.15032   0.56443   0.00000  Uiso   1.00
C747   C     0.79208   0.16763   0.90725   0.00000  Uiso   1.00
C748   C     0.85788   0.31184   0.77536   0.00000  Uiso   1.00
C749   C     0.80724   0.16582   0.85007   0.00000  Uiso   1.00
C750   C     0.85820   0.02104   0.77579   0.00000  Uiso   1.00
C751   C     0.83499   0.04294   0.74522   0.00000  Uiso   1.00
C752   C     0.81302   0.02224   0.71166   0.00000  Uiso   1.00
C753   C     0.81230   0.31231   0.71126   0.00000  Uiso   1.00
C754   C     0.83438   0.29062   0.74434   0.00000  Uiso   1.00
C755   C     0.96662   0.19359   0.78056   0.00000  Uiso   1.00
C756   C     0.68293   0.19359   0.78052   0.00000  Uiso   1.00
C757   C     0.69986   0.13940   0.71998   0.00000  Uiso   1.00
C758   C     0.98363   0.13954   0.71979   0.00000  Uiso   1.00
C759   C     0.83366   0.08744   0.74907   0.00000  Uiso   1.00
C760   C     0.85922   0.16336   0.65021   0.00000  Uiso   1.00
C761   C     0.93349   0.14034   0.51177   0.00000  Uiso   1.00
C762   C     0.87306   0.15616   0.59378   0.00000  Uiso   1.00
C763   C     0.74833   0.18890   0.93330   0.00000  Uiso   1.00
C764   C     0.73832   0.19789   0.98608   0.00000  Uiso   1.00
C765   C     0.77141   0.18718   0.51254   0.00000  Uiso   1.00
Cu766  Cu    0.78645   0.16666   0.75000   0.00000  Uiso   1.00
Cu767  Cu    0.88022   0.16667   0.75000   0.00000  Uiso   1.00
H768   H     0.95119   0.15109   0.58270   0.00000  Uiso   1.00
H769   H     0.87549   0.03694   0.80113   0.00000  Uiso   1.00
H770   H     0.94103   0.21512   0.80506   0.00000  Uiso   1.00
H771   H     0.69482   0.21515   0.80494   0.00000  Uiso   1.00
H772   H     0.72511   0.11728   0.69636   0.00000  Uiso   1.00
H773   H     0.97169   0.11782   0.69558   0.00000  Uiso   1.00
H774   H     0.97120   0.13300   0.99121   0.00000  Uiso   1.00
H775   H     0.76399   0.19916   0.55147   0.00000  Uiso   1.00
H776   H     0.70594   0.21543   0.50626   0.00000  Uiso   1.00
H777   H     0.87236   0.11584   0.87489   0.00000  Uiso   1.00
H778   H     0.87511   0.29536   0.80034   0.00000  Uiso   1.00
N779   N     0.71598   0.16666   0.74998   0.00000  Uiso   1.00
N780   N     0.95069   0.16669   0.74999   0.00000  Uiso   1.00
O781   O     0.79375   0.22678   0.75000   0.00000  Uiso   1.00
O782   O     0.87294   0.22679   0.75000   0.00000  Uiso   1.00
O783   O     0.77441   0.16665   0.82549   0.00000  Uiso   1.00
O784   O     0.85360   0.16666   0.82549   0.00000  Uiso   1.00
O785   O     0.79373   0.10654   0.74999   0.00000  Uiso   1.00
O786   O     0.87292   0.10655   0.74999   0.00000  Uiso   1.00
O787   O     0.81306   0.16667   0.67451   0.00000  Uiso   1.00
O788   O     0.89225   0.16668   0.67451   0.00000  Uiso   1.00
O789   O     0.79291   0.04356   0.67855   0.00000  Uiso   1.00
H790   H     0.81220   0.06899   0.66715   0.00000  Uiso   1.00
S791   S     0.78814   0.28598   0.66599   0.00000  Uiso   1.00
O792   O     0.74077   0.26532   0.69450   0.00000  Uiso   1.00
O793   O     0.77870   0.31472   0.62625   0.00000  Uiso   1.00
O794   O     0.82885   0.25023   0.63478   0.00000  Uiso   1.00
H795   H     0.81583   0.23983   0.60692   0.00000  Uiso   1.00
S796   S     0.95994   0.10176   0.89974   0.00000  Uiso   1.00
O797   O     0.66804   0.13214   0.88861   0.00000  Uiso   1.00
O798   O     0.97067   0.06686   0.93143   0.00000  Uiso   1.00
O799   O     0.95512   0.08305   0.84324   0.00000  Uiso   1.00
H800   H     0.98902   0.07540   0.82305   0.00000  Uiso   1.00
O801   O     0.78796   0.14589   0.59615   0.00000  Uiso   1.00
H802   H     0.78840   0.12069   0.61675   0.00000  Uiso   1.00
O803   O     0.71773   0.20342   0.90584   0.00000  Uiso   1.00
H804   H     0.68890   0.21729   0.92993   0.00000  Uiso   1.00
C805   C     0.16720   0.57925   0.74752   0.00000  Uiso   1.00
C806   C     0.14744   0.49745   0.98831   0.00000  Uiso   1.00
C807   C     0.15767   0.48713   0.93540   0.00000  Uiso   1.00
C808   C     0.18207   0.48710   0.51469   0.00000  Uiso   1.00
C809   C     0.22995   0.47409   0.98652   0.00000  Uiso   1.00
C810   C     0.23822   0.46014   0.93510   0.00000  Uiso   1.00
C811   C     0.20059   0.46400   0.91190   0.00000  Uiso   1.00
C812   C     0.16940   0.48716   0.56882   0.00000  Uiso   1.00
C813   C     0.25543   0.48365   0.56443   0.00000  Uiso   1.00
C814   C     0.12541   0.50096   0.90725   0.00000  Uiso   1.00
C815   C     0.19122   0.64517   0.77536   0.00000  Uiso   1.00
C816   C     0.14058   0.49915   0.85007   0.00000  Uiso   1.00
C817   C     0.19154   0.35437   0.77579   0.00000  Uiso   1.00
C818   C     0.16832   0.37627   0.74522   0.00000  Uiso   1.00
C819   C     0.14635   0.35557   0.71166   0.00000  Uiso   1.00
C820   C     0.14563   0.64564   0.71126   0.00000  Uiso   1.00
C821   C     0.16772   0.62395   0.74434   0.00000  Uiso   1.00
C822   C     0.29995   0.52692   0.78056   0.00000  Uiso   1.00
C823   C     0.01627   0.52692   0.78052   0.00000  Uiso   1.00
C824   C     0.03319   0.47273   0.71998   0.00000  Uiso   1.00
C825   C     0.31696   0.47287   0.71979   0.00000  Uiso   1.00
C826   C     0.16700   0.42077   0.74907   0.00000  Uiso   1.00
C827   C     0.19256   0.49669   0.65021   0.00000  Uiso   1.00
C828   C     0.26682   0.47368   0.51177   0.00000  Uiso   1.00
C829   C     0.20639   0.48949   0.59378   0.00000  Uiso   1.00
C830   C     0.08166   0.52223   0.93330   0.00000  Uiso   1.00
C831   C     0.07165   0.53122   0.98608   0.00000  Uiso   1.00
C832   C     0.10474   0.52051   0.51254   0.00000  Uiso   1.00
Cu833  Cu    0.11978   0.49999   0.75000   0.00000  Uiso   1.00
Cu834  Cu    0.21355   0.50001   0.75000   0.00000  Uiso   1.00
H835   H     0.28453   0.48442   0.58270   0.00000  Uiso   1.00
H836   H     0.20883   0.37028   0.80113   0.00000  Uiso   1.00
H837   H     0.27436   0.54846   0.80506   0.00000  Uiso   1.00
H838   H     0.02815   0.54848   0.80494   0.00000  Uiso   1.00
H839   H     0.05844   0.45061   0.69636   0.00000  Uiso   1.00
H840   H     0.30502   0.45115   0.69558   0.00000  Uiso   1.00
H841   H     0.30453   0.46633   0.99121   0.00000  Uiso   1.00
H842   H     0.09733   0.53249   0.55147   0.00000  Uiso   1.00
H843   H     0.03927   0.54876   0.50626   0.00000  Uiso   1.00
H844   H     0.20569   0.44917   0.87489   0.00000  Uiso   1.00
H845   H     0.20844   0.62869   0.80034   0.00000  Uiso   1.00
N846   N     0.04931   0.49999   0.74998   0.00000  Uiso   1.00
N847   N     0.28402   0.50002   0.74999   0.00000  Uiso   1.00
O848   O     0.12708   0.56011   0.75000   0.00000  Uiso   1.00
O849   O     0.20627   0.56012   0.75000   0.00000  Uiso   1.00
O850   O     0.10775   0.49998   0.82549   0.00000  Uiso   1.00
O851   O     0.18694   0.49999   0.82549   0.00000  Uiso   1.00
O852   O     0.12706   0.43988   0.74999   0.00000  Uiso   1.00
O853   O     0.20625   0.43989   0.74999   0.00000  Uiso   1.00
O854   O     0.14640   0.50001   0.67451   0.00000  Uiso   1.00
O855   O     0.22559   0.50002   0.67451   0.00000  Uiso   1.00
O856   O     0.12625   0.37689   0.67855   0.00000  Uiso   1.00
H857   H     0.14553   0.40232   0.66715   0.00000  Uiso   1.00
S858   S     0.12147   0.61932   0.66599   0.00000  Uiso   1.00
O859   O     0.07410   0.59866   0.69450   0.00000  Uiso   1.00
O860   O     0.11203   0.64805   0.62625   0.00000  Uiso   1.00
O861   O     0.16218   0.58356   0.63478   0.00000  Uiso   1.00
H862   H     0.14917   0.57316   0.60692   0.00000  Uiso   1.00
S863   S     0.29327   0.43510   0.89974   0.00000  Uiso   1.00
O864   O     0.00137   0.46548   0.88861   0.00000  Uiso   1.00
O865   O     0.30400   0.40019   0.93143   0.00000  Uiso   1.00
O866   O     0.28846   0.41638   0.84324   0.00000  Uiso   1.00
H867   H     0.32235   0.40873   0.82305   0.00000  Uiso   1.00
O868   O     0.12129   0.47922   0.59615   0.00000  Uiso   1.00
H869   H     0.12173   0.45402   0.61675   0.00000  Uiso   1.00
O870   O     0.05106   0.53675   0.90584   0.00000  Uiso   1.00
H871   H     0.02223   0.55062   0.92993   0.00000  Uiso   1.00
C872   C     0.50053   0.57925   0.74752   0.00000  Uiso   1.00
C873   C     0.48078   0.49745   0.98831   0.00000  Uiso   1.00
C874   C     0.49100   0.48713   0.93540   0.00000  Uiso   1.00
C875   C     0.51540   0.48710   0.51469   0.00000  Uiso   1.00
C876   C     0.56328   0.47409   0.98652   0.00000  Uiso   1.00
C877   C     0.57155   0.46014   0.93510   0.00000  Uiso   1.00
C878   C     0.53392   0.46400   0.91190   0.00000  Uiso   1.00
C879   C     0.50273   0.48716   0.56882   0.00000  Uiso   1.00
C880   C     0.58876   0.48365   0.56443   0.00000  Uiso   1.00
C881   C     0.45875   0.50096   0.90725   0.00000  Uiso   1.00
C882   C     0.52455   0.64517   0.77536   0.00000  Uiso   1.00
C883   C     0.47391   0.49915   0.85007   0.00000  Uiso   1.00
C884   C     0.52487   0.35437   0.77579   0.00000  Uiso   1.00
C885   C     0.50165   0.37627   0.74522   0.00000  Uiso   1.00
C886   C     0.47969   0.35557   0.71166   0.00000  Uiso   1.00
C887   C     0.47897   0.64564   0.71126   0.00000  Uiso   1.00
C888   C     0.50105   0.62395   0.74434   0.00000  Uiso   1.00
C889   C     0.63328   0.52692   0.78056   0.00000  Uiso   1.00
C890   C     0.34960   0.52692   0.78052   0.00000  Uiso   1.00
C891   C     0.36652   0.47273   0.71998   0.00000  Uiso   1.00
C892   C     0.65030   0.47287   0.71979   0.00000  Uiso   1.00
C893   C     0.50033   0.42077   0.74907   0.00000  Uiso   1.00
C894   C     0.52589   0.49669   0.65021   0.00000  Uiso   1.00
C895   C     0.60015   0.47368   0.51177   0.00000  Uiso   1.00
C896   C     0.53973   0.48949   0.59378   0.00000  Uiso   1.00
C897   C     0.41499   0.52223   0.93330   0.00000  Uiso   1.00
C898   C     0.40498   0.53122   0.98608   0.00000  Uiso   1.00
C899   C     0.43808   0.52051   0.51254   0.00000  Uiso   1.00
Cu900  Cu    0.45311   0.49999   0.75000   0.00000  Uiso   1.00
Cu901  Cu    0.54689   0.50001   0.75000   0.00000  Uiso   1.00
H902   H     0.61786   0.48442   0.58270   0.00000  Uiso   1.00
H903   H     0.54216   0.37028   0.80113   0.00000  Uiso   1.00
H904   H     0.60770   0.54846   0.80506   0.00000  Uiso   1.00
H905   H     0.36149   0.54848   0.80494   0.00000  Uiso   1.00
H906   H     0.39178   0.45061   0.69636   0.00000  Uiso   1.00
H907   H     0.63835   0.45115   0.69558   0.00000  Uiso   1.00
H908   H     0.63786   0.46633   0.99121   0.00000  Uiso   1.00
H909   H     0.43066   0.53249   0.55147   0.00000  Uiso   1.00
H910   H     0.37260   0.54876   0.50626   0.00000  Uiso   1.00
H911   H     0.53902   0.44917   0.87489   0.00000  Uiso   1.00
H912   H     0.54177   0.62869   0.80034   0.00000  Uiso   1.00
N913   N     0.38265   0.49999   0.74998   0.00000  Uiso   1.00
N914   N     0.61735   0.50002   0.74999   0.00000  Uiso   1.00
O915   O     0.46042   0.56011   0.75000   0.00000  Uiso   1.00
O916   O     0.53961   0.56012   0.75000   0.00000  Uiso   1.00
O917   O     0.44108   0.49998   0.82549   0.00000  Uiso   1.00
O918   O     0.52027   0.49999   0.82549   0.00000  Uiso   1.00
O919   O     0.46039   0.43988   0.74999   0.00000  Uiso   1.00
O920   O     0.53958   0.43989   0.74999   0.00000  Uiso   1.00
O921   O     0.47973   0.50001   0.67451   0.00000  Uiso   1.00
O922   O     0.55892   0.50002   0.67451   0.00000  Uiso   1.00
O923   O     0.45958   0.37689   0.67855   0.00000  Uiso   1.00
H924   H     0.47886   0.40232   0.66715   0.00000  Uiso   1.00
S925   S     0.45481   0.61932   0.66599   0.00000  Uiso   1.00
O926   O     0.40743   0.59866   0.69450   0.00000  Uiso   1.00
O927   O     0.44536   0.64805   0.62625   0.00000  Uiso   1.00
O928   O     0.49551   0.58356   0.63478   0.00000  Uiso   1.00
H929   H     0.48250   0.57316   0.60692   0.00000  Uiso   1.00
S930   S     0.62660   0.43510   0.89974   0.00000  Uiso   1.00
O931   O     0.33471   0.46548   0.88861   0.00000  Uiso   1.00
O932   O     0.63733   0.40019   0.93143   0.00000  Uiso   1.00
O933   O     0.62179   0.41638   0.84324   0.00000  Uiso   1.00
H934   H     0.65569   0.40873   0.82305   0.00000  Uiso   1.00
O935   O     0.45462   0.47922   0.59615   0.00000  Uiso   1.00
H936   H     0.45506   0.45402   0.61675   0.00000  Uiso   1.00
O937   O     0.38440   0.53675   0.90584   0.00000  Uiso   1.00
H938   H     0.35556   0.55062   0.92993   0.00000  Uiso   1.00
C939   C     0.83387   0.57925   0.74752   0.00000  Uiso   1.00
C940   C     0.81411   0.49745   0.98831   0.00000  Uiso   1.00
C941   C     0.82434   0.48713   0.93540   0.00000  Uiso   1.00
C942   C     0.84874   0.48710   0.51469   0.00000  Uiso   1.00
C943   C     0.89662   0.47409   0.98652   0.00000  Uiso   1.00
C944   C     0.90488   0.46014   0.93510   0.00000  Uiso   1.00
C945   C     0.86725   0.46400   0.91190   0.00000  Uiso   1.00
C946   C     0.83606   0.48716   0.56882   0.00000  Uiso   1.00
C947   C     0.92209   0.48365   0.56443   0.00000  Uiso   1.00
C948   C     0.79208   0.50096   0.90725   0.00000  Uiso   1.00
C949   C     0.85788   0.64517   0.77536   0.00000  Uiso   1.00
C950   C     0.80724   0.49915   0.85007   0.00000  Uiso   1.00
C951   C     0.85820   0.35437   0.77579   0.00000  Uiso   1.00
C952   C     0.83499   0.37627   0.74522   0.00000  Uiso   1.00
C953   C     0.81302   0.35557   0.71166   0.00000  Uiso   1.00
C954   C     0.81230   0.64564   0.71126   0.00000  Uiso   1.00
C955   C     0.83438   0.62395   0.74434   0.00000  Uiso   1.00
C956   C     0.96662   0.52692   0.78056   0.00000  Uiso   1.00
C957   C     0.68293   0.52692   0.78052   0.00000  Uiso   1.00
C958   C     0.69986   0.47273   0.71998   0.00000  Uiso   1.00
C959   C     0.98363   0.47287   0.71979   0.00000  Uiso   1.00
C960   C     0.83366   0.42077   0.74907   0.00000  Uiso   1.00
C961   C     0.85922   0.49669   0.65021   0.00000  Uiso   1.00
C962   C     0.93349   0.47368   0.51177   0.00000  Uiso   1.00
C963   C     0.87306   0.48949   0.59378   0.00000  Uiso   1.00
C964   C     0.74833   0.52223   0.93330   0.00000  Uiso   1.00
C965   C     0.73832   0.53122   0.98608   0.00000  Uiso   1.00
C966   C     0.77141   0.52051   0.51254   0.00000  Uiso   1.00
Cu967  Cu    0.78645   0.49999   0.75000   0.00000  Uiso   1.00
Cu968  Cu    0.88022   0.50001   0.75000   0.00000  Uiso   1.00
H969   H     0.95119   0.48442   0.58270   0.00000  Uiso   1.00
H970   H     0.87549   0.37028   0.80113   0.00000  Uiso   1.00
H971   H     0.94103   0.54846   0.80506   0.00000  Uiso   1.00
H972   H     0.69482   0.54848   0.80494   0.00000  Uiso   1.00
H973   H     0.72511   0.45061   0.69636   0.00000  Uiso   1.00
H974   H     0.97169   0.45115   0.69558   0.00000  Uiso   1.00
H975   H     0.97120   0.46633   0.99121   0.00000  Uiso   1.00
H976   H     0.76399   0.53249   0.55147   0.00000  Uiso   1.00
H977   H     0.70594   0.54876   0.50626   0.00000  Uiso   1.00
H978   H     0.87236   0.44917   0.87489   0.00000  Uiso   1.00
H979   H     0.87511   0.62869   0.80034   0.00000  Uiso   1.00
N980   N     0.71598   0.49999   0.74998   0.00000  Uiso   1.00
N981   N     0.95069   0.50002   0.74999   0.00000  Uiso   1.00
O982   O     0.79375   0.56011   0.75000   0.00000  Uiso   1.00
O983   O     0.87294   0.56012   0.75000   0.00000  Uiso   1.00
O984   O     0.77441   0.49998   0.82549   0.00000  Uiso   1.00
O985   O     0.85360   0.49999   0.82549   0.00000  Uiso   1.00
O986   O     0.79373   0.43988   0.74999   0.00000  Uiso   1.00
O987   O     0.87292   0.43989   0.74999   0.00000  Uiso   1.00
O988   O     0.81306   0.50001   0.67451   0.00000  Uiso   1.00
O989   O     0.89225   0.50002   0.67451   0.00000  Uiso   1.00
O990   O     0.79291   0.37689   0.67855   0.00000  Uiso   1.00
H991   H     0.81220   0.40232   0.66715   0.00000  Uiso   1.00
S992   S     0.78814   0.61932   0.66599   0.00000  Uiso   1.00
O993   O     0.74077   0.59866   0.69450   0.00000  Uiso   1.00
O994   O     0.77870   0.64805   0.62625   0.00000  Uiso   1.00
O995   O     0.82885   0.58356   0.63478   0.00000  Uiso   1.00
H996   H     0.81583   0.57316   0.60692   0.00000  Uiso   1.00
S997   S     0.95994   0.43510   0.89974   0.00000  Uiso   1.00
O998   O     0.66804   0.46548   0.88861   0.00000  Uiso   1.00
O999   O     0.97067   0.40019   0.93143   0.00000  Uiso   1.00
O1000  O     0.95512   0.41638   0.84324   0.00000  Uiso   1.00
H1001  H     0.98902   0.40873   0.82305   0.00000  Uiso   1.00
O1002  O     0.78796   0.47922   0.59615   0.00000  Uiso   1.00
H1003  H     0.78840   0.45402   0.61675   0.00000  Uiso   1.00
O1004  O     0.71773   0.53675   0.90584   0.00000  Uiso   1.00
H1005  H     0.68890   0.55062   0.92993   0.00000  Uiso   1.00
C1006  C     0.16720   0.91259   0.74752   0.00000  Uiso   1.00
C1007  C     0.14744   0.83078   0.98831   0.00000  Uiso   1.00
C1008  C     0.15767   0.82047   0.93540   0.00000  Uiso   1.00
C1009  C     0.18207   0.82043   0.51469   0.00000  Uiso   1.00
C1010  C     0.22995   0.80742   0.98652   0.00000  Uiso   1.00
C1011  C     0.23822   0.79347   0.93510   0.00000  Uiso   1.00
C1012  C     0.20059   0.79733   0.91190   0.00000  Uiso   1.00
C1013  C     0.16940   0.82049   0.56882   0.00000  Uiso   1.00
C1014  C     0.25543   0.81699   0.56443   0.00000  Uiso   1.00
C1015  C     0.12541   0.83429   0.90725   0.00000  Uiso   1.00
C1016  C     0.19122   0.97850   0.77536   0.00000  Uiso   1.00
C1017  C     0.14058   0.83248   0.85007   0.00000  Uiso   1.00
C1018  C     0.19154   0.68771   0.77579   0.00000  Uiso   1.00
C1019  C     0.16832   0.70961   0.74522   0.00000  Uiso   1.00
C1020  C     0.14635   0.68891   0.71166   0.00000  Uiso   1.00
C1021  C     0.14563   0.97897   0.71126   0.00000  Uiso   1.00
C1022  C     0.16772   0.95729   0.74434   0.00000  Uiso   1.00
C1023  C     0.29995   0.86025   0.78056   0.00000  Uiso   1.00
C1024  C     0.01627   0.86026   0.78052   0.00000  Uiso   1.00
C1025  C     0.03319   0.80607   0.71998   0.00000  Uiso   1.00
C1026  C     0.31696   0.80620   0.71979   0.00000  Uiso   1.00
C1027  C     0.16700   0.75411   0.74907   0.00000  Uiso   1.00
C1028  C     0.19256   0.83003   0.65021   0.00000  Uiso   1.00
C1029  C     0.26682   0.80701   0.51177   0.00000  Uiso   1.00
C1030  C     0.20639   0.82283   0.59378   0.00000  Uiso   1.00
C1031  C     0.08166   0.85556   0.93330   0.00000  Uiso   1.00
C1032  C     0.07165   0.86456   0.98608   0.00000  Uiso   1.00
C1033  C     0.10474   0.85384   0.51254   0.00000  Uiso   1.00
Cu1034 Cu    0.11978   0.83333   0.75000   0.00000  Uiso   1.00
Cu1035 Cu    0.21355   0.83334   0.75000   0.00000  Uiso   1.00
H1036  H     0.28453   0.81775   0.58270   0.00000  Uiso   1.00
H1037  H     0.20883   0.70361   0.80113   0.00000  Uiso   1.00
H1038  H     0.27436   0.88179   0.80506   0.00000  Uiso   1.00
H1039  H     0.02815   0.88182   0.80494   0.00000  Uiso   1.00
H1040  H     0.05844   0.78395   0.69636   0.00000  Uiso   1.00
H1041  H     0.30502   0.78448   0.69558   0.00000  Uiso   1.00
H1042  H     0.30453   0.79967   0.99121   0.00000  Uiso   1.00
H1043  H     0.09733   0.86582   0.55147   0.00000  Uiso   1.00
H1044  H     0.03927   0.88209   0.50626   0.00000  Uiso   1.00
H1045  H     0.20569   0.78250   0.87489   0.00000  Uiso   1.00
H1046  H     0.20844   0.96203   0.80034   0.00000  Uiso   1.00
N1047  N     0.04931   0.83332   0.74998   0.00000  Uiso   1.00
N1048  N     0.28402   0.83335   0.74999   0.00000  Uiso   1.00
O1049  O     0.12708   0.89345   0.75000   0.00000  Uiso   1.00
O1050  O     0.20627   0.89346   0.75000   0.00000  Uiso   1.00
O1051  O     0.10775   0.83332   0.82549   0.00000  Uiso   1.00
O1052  O     0.18694   0.83333   0.82549   0.00000  Uiso   1.00
O1053  O     0.12706   0.77321   0.74999   0.00000  Uiso   1.00
O1054  O     0.20625   0.77322   0.74999   0.00000  Uiso   1.00
O1055  O     0.14640   0.83334   0.67451   0.00000  Uiso   1.00
O1056  O     0.22559   0.83335   0.67451   0.00000  Uiso   1.00
O1057  O     0.12625   0.71023   0.67855   0.00000  Uiso   1.00
H1058  H     0.14553   0.73565   0.66715   0.00000  Uiso   1.00
S1059  S     0.12147   0.95265   0.66599   0.00000  Uiso   1.00
O1060  O     0.07410   0.93199   0.69450   0.00000  Uiso   1.00
O1061  O     0.11203   0.98139   0.62625   0.00000  Uiso   1.00
O1062  O     0.16218   0.91689   0.63478   0.00000  Uiso   1.00
H1063  H     0.14917   0.90649   0.60692   0.00000  Uiso   1.00
S1064  S     0.29327   0.76843   0.89974   0.00000  Uiso   1.00
O1065  O     0.00137   0.79881   0.88861   0.00000  Uiso   1.00
O1066  O     0.30400   0.73353   0.93143   0.00000  Uiso   1.00
O1067  O     0.28846   0.74972   0.84324   0.00000  Uiso   1.00
H1068  H     0.32235   0.74206   0.82305   0.00000  Uiso   1.00
O1069  O     0.12129   0.81256   0.59615   0.00000  Uiso   1.00
H1070  H     0.12173   0.78735   0.61675   0.00000  Uiso   1.00
O1071  O     0.05106   0.87008   0.90584   0.00000  Uiso   1.00
H1072  H     0.02223   0.88396   0.92993   0.00000  Uiso   1.00
C1073  C     0.50053   0.91259   0.74752   0.00000  Uiso   1.00
C1074  C     0.48078   0.83078   0.98831   0.00000  Uiso   1.00
C1075  C     0.49100   0.82047   0.93540   0.00000  Uiso   1.00
C1076  C     0.51540   0.82043   0.51469   0.00000  Uiso   1.00
C1077  C     0.56328   0.80742   0.98652   0.00000  Uiso   1.00
C1078  C     0.57155   0.79347   0.93510   0.00000  Uiso   1.00
C1079  C     0.53392   0.79733   0.91190   0.00000  Uiso   1.00
C1080  C     0.50273   0.82049   0.56882   0.00000  Uiso   1.00
C1081  C     0.58876   0.81699   0.56443   0.00000  Uiso   1.00
C1082  C     0.45875   0.83429   0.90725   0.00000  Uiso   1.00
C1083  C     0.52455   0.97850   0.77536   0.00000  Uiso   1.00
C1084  C     0.47391   0.83248   0.85007   0.00000  Uiso   1.00
C1085  C     0.52487   0.68771   0.77579   0.00000  Uiso   1.00
C1086  C     0.50165   0.70961   0.74522   0.00000  Uiso   1.00
C1087  C     0.47969   0.68891   0.71166   0.00000  Uiso   1.00
C1088  C     0.47897   0.97897   0.71126   0.00000  Uiso   1.00
C1089  C     0.50105   0.95729   0.74434   0.00000  Uiso   1.00
C1090  C     0.63328   0.86025   0.78056   0.00000  Uiso   1.00
C1091  C     0.34960   0.86026   0.78052   0.00000  Uiso   1.00
C1092  C     0.36652   0.80607   0.71998   0.00000  Uiso   1.00
C1093  C     0.65030   0.80620   0.71979   0.00000  Uiso   1.00
C1094  C     0.50033   0.75411   0.74907   0.00000  Uiso   1.00
C1095  C     0.52589   0.83003   0.65021   0.00000  Uiso   1.00
C1096  C     0.60015   0.80701   0.51177   0.00000  Uiso   1.00
C1097  C     0.53973   0.82283   0.59378   0.00000  Uiso   1.00
C1098  C     0.41499   0.85556   0.93330   0.00000  Uiso   1.00
C1099  C     0.40498   0.86456   0.98608   0.00000  Uiso   1.00
C1100  C     0.43808   0.85384   0.51254   0.00000  Uiso   1.00
Cu1101 Cu    0.45311   0.83333   0.75000   0.00000  Uiso   1.00
Cu1102 Cu    0.54689   0.83334   0.75000   0.00000  Uiso   1.00
H1103  H     0.61786   0.81775   0.58270   0.00000  Uiso   1.00
H1104  H     0.54216   0.70361   0.80113   0.00000  Uiso   1.00
H1105  H     0.60770   0.88179   0.80506   0.00000  Uiso   1.00
H1106  H     0.36149   0.88182   0.80494   0.00000  Uiso   1.00
H1107  H     0.39178   0.78395   0.69636   0.00000  Uiso   1.00
H1108  H     0.63835   0.78448   0.69558   0.00000  Uiso   1.00
H1109  H     0.63786   0.79967   0.99121   0.00000  Uiso   1.00
H1110  H     0.43066   0.86582   0.55147   0.00000  Uiso   1.00
H1111  H     0.37260   0.88209   0.50626   0.00000  Uiso   1.00
H1112  H     0.53902   0.78250   0.87489   0.00000  Uiso   1.00
H1113  H     0.54177   0.96203   0.80034   0.00000  Uiso   1.00
N1114  N     0.38265   0.83332   0.74998   0.00000  Uiso   1.00
N1115  N     0.61735   0.83335   0.74999   0.00000  Uiso   1.00
O1116  O     0.46042   0.89345   0.75000   0.00000  Uiso   1.00
O1117  O     0.53961   0.89346   0.75000   0.00000  Uiso   1.00
O1118  O     0.44108   0.83332   0.82549   0.00000  Uiso   1.00
O1119  O     0.52027   0.83333   0.82549   0.00000  Uiso   1.00
O1120  O     0.46039   0.77321   0.74999   0.00000  Uiso   1.00
O1121  O     0.53958   0.77322   0.74999   0.00000  Uiso   1.00
O1122  O     0.47973   0.83334   0.67451   0.00000  Uiso   1.00
O1123  O     0.55892   0.83335   0.67451   0.00000  Uiso   1.00
O1124  O     0.45958   0.71023   0.67855   0.00000  Uiso   1.00
H1125  H     0.47886   0.73565   0.66715   0.00000  Uiso   1.00
S1126  S     0.45481   0.95265   0.66599   0.00000  Uiso   1.00
O1127  O     0.40743   0.93199   0.69450   0.00000  Uiso   1.00
O1128  O     0.44536   0.98139   0.62625   0.00000  Uiso   1.00
O1129  O     0.49551   0.91689   0.63478   0.00000  Uiso   1.00
H1130  H     0.48250   0.90649   0.60692   0.00000  Uiso   1.00
S1131  S     0.62660   0.76843   0.89974   0.00000  Uiso   1.00
O1132  O     0.33471   0.79881   0.88861   0.00000  Uiso   1.00
O1133  O     0.63733   0.73353   0.93143   0.00000  Uiso   1.00
O1134  O     0.62179   0.74972   0.84324   0.00000  Uiso   1.00
H1135  H     0.65569   0.74206   0.82305   0.00000  Uiso   1.00
O1136  O     0.45462   0.81256   0.59615   0.00000  Uiso   1.00
H1137  H     0.45506   0.78735   0.61675   0.00000  Uiso   1.00
O1138  O     0.38440   0.87008   0.90584   0.00000  Uiso   1.00
H1139  H     0.35556   0.88396   0.92993   0.00000  Uiso   1.00
C1140  C     0.83387   0.91259   0.74752   0.00000  Uiso   1.00
C1141  C     0.81411   0.83078   0.98831   0.00000  Uiso   1.00
C1142  C     0.82434   0.82047   0.93540   0.00000  Uiso   1.00
C1143  C     0.84874   0.82043   0.51469   0.00000  Uiso   1.00
C1144  C     0.89662   0.80742   0.98652   0.00000  Uiso   1.00
C1145  C     0.90488   0.79347   0.93510   0.00000  Uiso   1.00
C1146  C     0.86725   0.79733   0.91190   0.00000  Uiso   1.00
C1147  C     0.83606   0.82049   0.56882   0.00000  Uiso   1.00
C1148  C     0.92209   0.81699   0.56443   0.00000  Uiso   1.00
C1149  C     0.79208   0.83429   0.90725   0.00000  Uiso   1.00
C1150  C     0.85788   0.97850   0.77536   0.00000  Uiso   1.00
C1151  C     0.80724   0.83248   0.85007   0.00000  Uiso   1.00
C1152  C     0.85820   0.68771   0.77579   0.00000  Uiso   1.00
C1153  C     0.83499   0.70961   0.74522   0.00000  Uiso   1.00
C1154  C     0.81302   0.68891   0.71166   0.00000  Uiso   1.00
C1155  C     0.81230   0.97897   0.71126   0.00000  Uiso   1.00
C1156  C     0.83438   0.95729   0.74434   0.00000  Uiso   1.00
C1157  C     0.96662   0.86025   0.78056   0.00000  Uiso   1.00
C1158  C     0.68293   0.86026   0.78052   0.00000  Uiso   1.00
C1159  C     0.69986   0.80607   0.71998   0.00000  Uiso   1.00
C1160  C     0.98363   0.80620   0.71979   0.00000  Uiso   1.00
C1161  C     0.83366   0.75411   0.74907   0.00000  Uiso   1.00
C1162  C     0.85922   0.83003   0.65021   0.00000  Uiso   1.00
C1163  C     0.93349   0.80701   0.51177   0.00000  Uiso   1.00
C1164  C     0.87306   0.82283   0.59378   0.00000  Uiso   1.00
C1165  C     0.74833   0.85556   0.93330   0.00000  Uiso   1.00
C1166  C     0.73832   0.86456   0.98608   0.00000  Uiso   1.00
C1167  C     0.77141   0.85384   0.51254   0.00000  Uiso   1.00
Cu1168 Cu    0.78645   0.83333   0.75000   0.00000  Uiso   1.00
Cu1169 Cu    0.88022   0.83334   0.75000   0.00000  Uiso   1.00
H1170  H     0.95119   0.81775   0.58270   0.00000  Uiso   1.00
H1171  H     0.87549   0.70361   0.80113   0.00000  Uiso   1.00
H1172  H     0.94103   0.88179   0.80506   0.00000  Uiso   1.00
H1173  H     0.69482   0.88182   0.80494   0.00000  Uiso   1.00
H1174  H     0.72511   0.78395   0.69636   0.00000  Uiso   1.00
H1175  H     0.97169   0.78448   0.69558   0.00000  Uiso   1.00
H1176  H     0.97120   0.79967   0.99121   0.00000  Uiso   1.00
H1177  H     0.76399   0.86582   0.55147   0.00000  Uiso   1.00
H1178  H     0.70594   0.88209   0.50626   0.00000  Uiso   1.00
H1179  H     0.87236   0.78250   0.87489   0.00000  Uiso   1.00
H1180  H     0.87511   0.96203   0.80034   0.00000  Uiso   1.00
N1181  N     0.71598   0.83332   0.74998   0.00000  Uiso   1.00
N1182  N     0.95069   0.83335   0.74999   0.00000  Uiso   1.00
O1183  O     0.79375   0.89345   0.75000   0.00000  Uiso   1.00
O1184  O     0.87294   0.89346   0.75000   0.00000  Uiso   1.00
O1185  O     0.77441   0.83332   0.82549   0.00000  Uiso   1.00
O1186  O     0.85360   0.83333   0.82549   0.00000  Uiso   1.00
O1187  O     0.79373   0.77321   0.74999   0.00000  Uiso   1.00
O1188  O     0.87292   0.77322   0.74999   0.00000  Uiso   1.00
O1189  O     0.81306   0.83334   0.67451   0.00000  Uiso   1.00
O1190  O     0.89225   0.83335   0.67451   0.00000  Uiso   1.00
O1191  O     0.79291   0.71023   0.67855   0.00000  Uiso   1.00
H1192  H     0.81220   0.73565   0.66715   0.00000  Uiso   1.00
S1193  S     0.78814   0.95265   0.66599   0.00000  Uiso   1.00
O1194  O     0.74077   0.93199   0.69450   0.00000  Uiso   1.00
O1195  O     0.77870   0.98139   0.62625   0.00000  Uiso   1.00
O1196  O     0.82885   0.91689   0.63478   0.00000  Uiso   1.00
H1197  H     0.81583   0.90649   0.60692   0.00000  Uiso   1.00
S1198  S     0.95994   0.76843   0.89974   0.00000  Uiso   1.00
O1199  O     0.66804   0.79881   0.88861   0.00000  Uiso   1.00
O1200  O     0.97067   0.73353   0.93143   0.00000  Uiso   1.00
O1201  O     0.95512   0.74972   0.84324   0.00000  Uiso   1.00
H1202  H     0.98902   0.74206   0.82305   0.00000  Uiso   1.00
O1203  O     0.78796   0.81256   0.59615   0.00000  Uiso   1.00
H1204  H     0.78840   0.78735   0.61675   0.00000  Uiso   1.00
O1205  O     0.71773   0.87008   0.90584   0.00000  Uiso   1.00
H1206  H     0.68890   0.88396   0.92993   0.00000  Uiso   1.00
loop_
_geom_bond_atom_site_label_1
_geom_bond_atom_site_label_2
_geom_bond_distance
_geom_bond_site_symmetry_2
_ccdc_geom_bond_type
C1     O44     1.287   .     A
C1     O45     1.293   .     A
C1     C17     1.452   .     S
C2     C3      1.410   .     A
C2     C607    1.417   .     S
C2     C631    1.413   .     S
C3     C10     1.426   .     A
C3     C7      1.414   .     A
C4     C8      1.397   .     A
C4     C605    1.417   1_554 S
C4     C608    1.416   1_554 S
C5     C6      1.411   .     A
C5     C607    1.416   .     S
C5     C627    1.411   .     S
C6     C7      1.398   .     A
C6     S59     1.774   .     S
C7     H40     1.078   .     S
C8     C25     1.411   .     A
C8     O64     1.378   .     S
C9     C24     1.398   .     A
C9     C25     1.402   .     A
C9     H31     1.083   .     S
C10    C26     1.416   .     A
C10    C12     1.475   .     S
C11    H41     1.084   .     S
C11    C17     1.398   .     A
C11    C214    1.379   .     S
C12    O47     1.293   .     A
C12    O46     1.297   .     A
C13    C14     1.394   .     A
C13    H32     1.084   .     S
C13    C413    1.379   1_545 S
C14    C22     1.446   .     S
C14    C15     1.414   .     A
C15    O52     1.380   .     S
C15    C418    1.403   1_545 S
C16    S54     1.786   .     S
C16    C17     1.420   .     A
C16    C216    1.403   .     S
C18    N43     1.367   .     A
C18    H33     1.082   .     S
C18    C86     1.416   .     S
C19    N42     1.367   .     A
C19    H34     1.082   .     S
C19    C152    1.416   1_455 S
C20    N42     1.367   .     A
C20    H35     1.080   .     S
C20    C155    1.415   1_455 S
C21    H36     1.082   .     S
C21    N43     1.366   .     A
C21    C87     1.415   .     S
C22    O48     1.289   .     A
C22    O49     1.288   .     A
C23    O51     1.301   .     A
C23    C25     1.474   .     S
C23    O50     1.290   .     A
C24    C608    1.411   1_554 S
C24    H640    1.081   1_554 S
C26    C27     1.397   .     A
C26    O66     1.383   .     S
C27    C631    1.384   .     S
C27    H642    1.083   .     S
C28    H38     1.080   .     S
C28    C630    1.384   1_554 S
C28    C605    1.413   1_554 S
Cu29   N42     2.010   .     S
Cu29   O46     1.963   .     S
Cu29   Cu30    2.675   .     S
Cu29   O50     1.952   .     S
Cu29   O44     1.961   .     S
Cu29   O48     1.960   .     S
Cu30   O45     1.960   .     S
Cu30   O49     1.961   .     S
Cu30   N43     2.010   .     S
Cu30   O51     1.963   .     S
Cu30   O47     1.952   .     S
H37    C627    1.081   .     S
H39    C630    1.083   1_554 S
O52    H53     0.990   .     S
S54    O55     1.503   .     D
S54    O56     1.503   .     D
S54    O57     1.679   .     S
O57    H58     0.990   .     S
S59    O61     1.503   .     D
S59    O62     1.683   .     S
S59    O127    1.501   .     S
O60    S193    1.501   1_455 S
O62    H63     0.991   .     S
O64    H65     0.991   .     S
O66    H67     0.992   .     S
C68    O111    1.287   .     A
C68    O112    1.293   .     A
C68    C84     1.452   .     S
C69    C70     1.410   .     A
C69    C674    1.417   .     S
C69    C698    1.413   .     S
C70    C77     1.426   .     A
C70    C74     1.414   .     A
C71    C75     1.397   .     A
C71    C672    1.417   1_554 S
C71    C675    1.416   1_554 S
C72    C73     1.411   .     A
C72    C674    1.416   .     S
C72    C694    1.411   .     S
C73    C74     1.398   .     A
C73    S126    1.774   .     S
C74    H107    1.078   .     S
C75    C92     1.411   .     A
C75    O131    1.378   .     S
C76    C91     1.398   .     A
C76    C92     1.402   .     A
C76    H98     1.083   .     S
C77    C93     1.416   .     A
C77    C79     1.475   .     S
C78    H108    1.084   .     S
C78    C84     1.398   .     A
C78    C281    1.379   .     S
C79    O114    1.293   .     A
C79    O113    1.297   .     A
C80    C81     1.394   .     A
C80    H99     1.084   .     S
C80    C480    1.379   1_545 S
C81    C89     1.446   .     S
C81    C82     1.414   .     A
C82    O119    1.380   .     S
C82    C485    1.403   1_545 S
C83    S121    1.786   .     S
C83    C84     1.420   .     A
C83    C283    1.403   .     S
C85    N110    1.367   .     A
C85    H100    1.082   .     S
C85    C153    1.416   .     S
C86    N109    1.367   .     A
C86    H101    1.082   .     S
C87    N109    1.367   .     A
C87    H102    1.080   .     S
C88    H103    1.082   .     S
C88    N110    1.366   .     A
C88    C154    1.415   .     S
C89    O115    1.289   .     A
C89    O116    1.288   .     A
C90    O118    1.301   .     A
C90    C92     1.474   .     S
C90    O117    1.290   .     A
C91    C675    1.411   1_554 S
C91    H707    1.081   1_554 S
C93    C94     1.397   .     A
C93    O133    1.383   .     S
C94    C698    1.384   .     S
C94    H709    1.083   .     S
C95    H105    1.080   .     S
C95    C697    1.384   1_554 S
C95    C672    1.413   1_554 S
Cu96   N109    2.010   .     S
Cu96   O113    1.963   .     S
Cu96   Cu97    2.675   .     S
Cu96   O117    1.952   .     S
Cu96   O111    1.961   .     S
Cu96   O115    1.960   .     S
Cu97   O112    1.960   .     S
Cu97   O116    1.961   .     S
Cu97   N110    2.010   .     S
Cu97   O118    1.963   .     S
Cu97   O114    1.952   .     S
H104   C694    1.081   .     S
H106   C697    1.083   1_554 S
O119   H120    0.990   .     S
S121   O122    1.503   .     D
S121   O123    1.503   .     D
S121   O124    1.679   .     S
O124   H125    0.990   .     S
S126   O128    1.503   .     D
S126   O129    1.683   .     S
S126   O194    1.501   .     S
O129   H130    0.991   .     S
O131   H132    0.991   .     S
O133   H134    0.992   .     S
C135   O178    1.287   .     A
C135   O179    1.293   .     A
C135   C151    1.452   .     S
C136   C137    1.410   .     A
C136   C741    1.417   .     S
C136   C765    1.413   .     S
C137   C144    1.426   .     A
C137   C141    1.414   .     A
C138   C142    1.397   .     A
C138   C739    1.417   1_554 S
C138   C742    1.416   1_554 S
C139   C140    1.411   .     A
C139   C741    1.416   .     S
C139   C761    1.411   .     S
C140   C141    1.398   .     A
C140   S193    1.774   .     S
C141   H174    1.078   .     S
C142   C159    1.411   .     A
C142   O198    1.378   .     S
C143   C158    1.398   .     A
C143   C159    1.402   .     A
C143   H165    1.083   .     S
C144   C160    1.416   .     A
C144   C146    1.475   .     S
C145   H175    1.084   .     S
C145   C151    1.398   .     A
C145   C348    1.379   .     S
C146   O181    1.293   .     A
C146   O180    1.297   .     A
C147   C148    1.394   .     A
C147   H166    1.084   .     S
C147   C547    1.379   1_545 S
C148   C156    1.446   .     S
C148   C149    1.414   .     A
C149   O186    1.380   .     S
C149   C552    1.403   1_545 S
C150   S188    1.786   .     S
C150   C151    1.420   .     A
C150   C350    1.403   .     S
C152   N177    1.367   .     A
C152   H167    1.082   .     S
C152   C19     1.416   1_655 S
C153   N176    1.367   .     A
C153   H168    1.082   .     S
C154   N176    1.367   .     A
C154   H169    1.080   .     S
C155   H170    1.082   .     S
C155   N177    1.366   .     A
C155   C20     1.415   1_655 S
C156   O182    1.289   .     A
C156   O183    1.288   .     A
C157   O185    1.301   .     A
C157   C159    1.474   .     S
C157   O184    1.290   .     A
C158   C742    1.411   1_554 S
C158   H774    1.081   1_554 S
C160   C161    1.397   .     A
C160   O200    1.383   .     S
C161   C765    1.384   .     S
C161   H776    1.083   .     S
C162   H172    1.080   .     S
C162   C764    1.384   1_554 S
C162   C739    1.413   1_554 S
Cu163  N176    2.010   .     S
Cu163  O180    1.963   .     S
Cu163  Cu164   2.675   .     S
Cu163  O184    1.952   .     S
Cu163  O178    1.961   .     S
Cu163  O182    1.960   .     S
Cu164  O179    1.960   .     S
Cu164  O183    1.961   .     S
Cu164  N177    2.010   .     S
Cu164  O185    1.963   .     S
Cu164  O181    1.952   .     S
H171   C761    1.081   .     S
H173   C764    1.083   1_554 S
O186   H187    0.990   .     S
S188   O189    1.503   .     D
S188   O190    1.503   .     D
S188   O191    1.679   .     S
O191   H192    0.990   .     S
S193   O195    1.503   .     D
S193   O196    1.683   .     S
S193   O60     1.501   1_655 S
O196   H197    0.991   .     S
O198   H199    0.991   .     S
O200   H201    0.992   .     S
C202   O245    1.287   .     A
C202   O246    1.293   .     A
C202   C218    1.452   .     S
C203   C204    1.410   .     A
C203   C808    1.417   .     S
C203   C832    1.413   .     S
C204   C211    1.426   .     A
C204   C208    1.414   .     A
C205   C209    1.397   .     A
C205   C806    1.417   1_554 S
C205   C809    1.416   1_554 S
C206   C207    1.411   .     A
C206   C808    1.416   .     S
C206   C828    1.411   .     S
C207   C208    1.398   .     A
C207   S260    1.774   .     S
C208   H241    1.078   .     S
C209   C226    1.411   .     A
C209   O265    1.378   .     S
C210   C225    1.398   .     A
C210   C226    1.402   .     A
C210   H232    1.083   .     S
C211   C227    1.416   .     A
C211   C213    1.475   .     S
C212   H242    1.084   .     S
C212   C218    1.398   .     A
C212   C415    1.379   .     S
C213   O248    1.293   .     A
C213   O247    1.297   .     A
C214   C215    1.394   .     A
C214   H233    1.084   .     S
C215   C223    1.446   .     S
C215   C216    1.414   .     A
C216   O253    1.380   .     S
C217   S255    1.786   .     S
C217   C218    1.420   .     A
C217   C417    1.403   .     S
C219   N244    1.367   .     A
C219   H234    1.082   .     S
C219   C287    1.416   .     S
C220   N243    1.367   .     A
C220   H235    1.082   .     S
C220   C353    1.416   1_455 S
C221   N243    1.367   .     A
C221   H236    1.080   .     S
C221   C356    1.415   1_455 S
C222   H237    1.082   .     S
C222   N244    1.366   .     A
C222   C288    1.415   .     S
C223   O249    1.289   .     A
C223   O250    1.288   .     A
C224   O252    1.301   .     A
C224   C226    1.474   .     S
C224   O251    1.290   .     A
C225   C809    1.411   1_554 S
C225   H841    1.081   1_554 S
C227   C228    1.397   .     A
C227   O267    1.383   .     S
C228   C832    1.384   .     S
C228   H843    1.083   .     S
C229   H239    1.080   .     S
C229   C831    1.384   1_554 S
C229   C806    1.413   1_554 S
Cu230  N243    2.010   .     S
Cu230  O247    1.963   .     S
Cu230  Cu231   2.675   .     S
Cu230  O251    1.952   .     S
Cu230  O245    1.961   .     S
Cu230  O249    1.960   .     S
Cu231  O246    1.960   .     S
Cu231  O250    1.961   .     S
Cu231  N244    2.010   .     S
Cu231  O252    1.963   .     S
Cu231  O248    1.952   .     S
H238   C828    1.081   .     S
H240   C831    1.083   1_554 S
O253   H254    0.990   .     S
S255   O256    1.503   .     D
S255   O257    1.503   .     D
S255   O258    1.679   .     S
O258   H259    0.990   .     S
S260   O262    1.503   .     D
S260   O263    1.683   .     S
S260   O328    1.501   .     S
O261   S394    1.501   1_455 S
O263   H264    0.991   .     S
O265   H266    0.991   .     S
O267   H268    0.992   .     S
C269   O312    1.287   .     A
C269   O313    1.293   .     A
C269   C285    1.452   .     S
C270   C271    1.410   .     A
C270   C875    1.417   .     S
C270   C899    1.413   .     S
C271   C278    1.426   .     A
C271   C275    1.414   .     A
C272   C276    1.397   .     A
C272   C873    1.417   1_554 S
C272   C876    1.416   1_554 S
C273   C274    1.411   .     A
C273   C875    1.416   .     S
C273   C895    1.411   .     S
C274   C275    1.398   .     A
C274   S327    1.774   .     S
C275   H308    1.078   .     S
C276   C293    1.411   .     A
C276   O332    1.378   .     S
C277   C292    1.398   .     A
C277   C293    1.402   .     A
C277   H299    1.083   .     S
C278   C294    1.416   .     A
C278   C280    1.475   .     S
C279   H309    1.084   .     S
C279   C285    1.398   .     A
C279   C482    1.379   .     S
C280   O315    1.293   .     A
C280   O314    1.297   .     A
C281   C282    1.394   .     A
C281   H300    1.084   .     S
C282   C290    1.446   .     S
C282   C283    1.414   .     A
C283   O320    1.380   .     S
C284   S322    1.786   .     S
C284   C285    1.420   .     A
C284   C484    1.403   .     S
C286   N311    1.367   .     A
C286   H301    1.082   .     S
C286   C354    1.416   .     S
C287   N310    1.367   .     A
C287   H302    1.082   .     S
C288   N310    1.367   .     A
C288   H303    1.080   .     S
C289   H304    1.082   .     S
C289   N311    1.366   .     A
C289   C355    1.415   .     S
C290   O316    1.289   .     A
C290   O317    1.288   .     A
C291   O319    1.301   .     A
C291   C293    1.474   .     S
C291   O318    1.290   .     A
C292   C876    1.411   1_554 S
C292   H908    1.081   1_554 S
C294   C295    1.397   .     A
C294   O334    1.383   .     S
C295   C899    1.384   .     S
C295   H910    1.083   .     S
C296   H306    1.080   .     S
C296   C898    1.384   1_554 S
C296   C873    1.413   1_554 S
Cu297  N310    2.010   .     S
Cu297  O314    1.963   .     S
Cu297  Cu298   2.675   .     S
Cu297  O318    1.952   .     S
Cu297  O312    1.961   .     S
Cu297  O316    1.960   .     S
Cu298  O313    1.960   .     S
Cu298  O317    1.961   .     S
Cu298  N311    2.010   .     S
Cu298  O319    1.963   .     S
Cu298  O315    1.952   .     S
H305   C895    1.081   .     S
H307   C898    1.083   1_554 S
O320   H321    0.990   .     S
S322   O323    1.503   .     D
S322   O324    1.503   .     D
S322   O325    1.679   .     S
O325   H326    0.990   .     S
S327   O329    1.503   .     D
S327   O330    1.683   .     S
S327   O395    1.501   .     S
O330   H331    0.991   .     S
O332   H333    0.991   .     S
O334   H335    0.992   .     S
C336   O379    1.287   .     A
C336   O380    1.293   .     A
C336   C352    1.452   .     S
C337   C338    1.410   .     A
C337   C942    1.417   .     S
C337   C966    1.413   .     S
C338   C345    1.426   .     A
C338   C342    1.414   .     A
C339   C343    1.397   .     A
C339   C940    1.417   1_554 S
C339   C943    1.416   1_554 S
C340   C341    1.411   .     A
C340   C942    1.416   .     S
C340   C962    1.411   .     S
C341   C342    1.398   .     A
C341   S394    1.774   .     S
C342   H375    1.078   .     S
C343   C360    1.411   .     A
C343   O399    1.378   .     S
C344   C359    1.398   .     A
C344   C360    1.402   .     A
C344   H366    1.083   .     S
C345   C361    1.416   .     A
C345   C347    1.475   .     S
C346   H376    1.084   .     S
C346   C352    1.398   .     A
C346   C549    1.379   .     S
C347   O382    1.293   .     A
C347   O381    1.297   .     A
C348   C349    1.394   .     A
C348   H367    1.084   .     S
C349   C357    1.446   .     S
C349   C350    1.414   .     A
C350   O387    1.380   .     S
C351   S389    1.786   .     S
C351   C352    1.420   .     A
C351   C551    1.403   .     S
C353   N378    1.367   .     A
C353   H368    1.082   .     S
C353   C220    1.416   1_655 S
C354   N377    1.367   .     A
C354   H369    1.082   .     S
C355   N377    1.367   .     A
C355   H370    1.080   .     S
C356   H371    1.082   .     S
C356   N378    1.366   .     A
C356   C221    1.415   1_655 S
C357   O383    1.289   .     A
C357   O384    1.288   .     A
C358   O386    1.301   .     A
C358   C360    1.474   .     S
C358   O385    1.290   .     A
C359   C943    1.411   1_554 S
C359   H975    1.081   1_554 S
C361   C362    1.397   .     A
C361   O401    1.383   .     S
C362   C966    1.384   .     S
C362   H977    1.083   .     S
C363   H373    1.080   .     S
C363   C965    1.384   1_554 S
C363   C940    1.413   1_554 S
Cu364  N377    2.010   .     S
Cu364  O381    1.963   .     S
Cu364  Cu365   2.675   .     S
Cu364  O385    1.952   .     S
Cu364  O379    1.961   .     S
Cu364  O383    1.960   .     S
Cu365  O380    1.960   .     S
Cu365  O384    1.961   .     S
Cu365  N378    2.010   .     S
Cu365  O386    1.963   .     S
Cu365  O382    1.952   .     S
H372   C962    1.081   .     S
H374   C965    1.083   1_554 S
O387   H388    0.990   .     S
S389   O390    1.503   .     D
S389   O391    1.503   .     D
S389   O392    1.679   .     S
O392   H393    0.990   .     S
S394   O396    1.503   .     D
S394   O397    1.683   .     S
S394   O261    1.501   1_655 S
O397   H398    0.991   .     S
O399   H400    0.991   .     S
O401   H402    0.992   .     S
C403   O446    1.287   .     A
C403   O447    1.293   .     A
C403   C419    1.452   .     S
C404   C405    1.410   .     A
C404   C1009   1.417   .     S
C404   C1033   1.413   .     S
C405   C412    1.426   .     A
C405   C409    1.414   .     A
C406   C410    1.397   .     A
C406   C1007   1.417   1_554 S
C406   C1010   1.416   1_554 S
C407   C408    1.411   .     A
C407   C1009   1.416   .     S
C407   C1029   1.411   .     S
C408   C409    1.398   .     A
C408   S461    1.774   .     S
C409   H442    1.078   .     S
C410   C427    1.411   .     A
C410   O466    1.378   .     S
C411   C426    1.398   .     A
C411   C427    1.402   .     A
C411   H433    1.083   .     S
C412   C428    1.416   .     A
C412   C414    1.475   .     S
C413   H443    1.084   .     S
C413   C419    1.398   .     A
C413   C13     1.379   1_565 S
C414   O449    1.293   .     A
C414   O448    1.297   .     A
C415   C416    1.394   .     A
C415   H434    1.084   .     S
C416   C424    1.446   .     S
C416   C417    1.414   .     A
C417   O454    1.380   .     S
C418   S456    1.786   .     S
C418   C419    1.420   .     A
C418   C15     1.403   1_565 S
C420   N445    1.367   .     A
C420   H435    1.082   .     S
C420   C488    1.416   .     S
C421   N444    1.367   .     A
C421   H436    1.082   .     S
C421   C554    1.416   1_455 S
C422   N444    1.367   .     A
C422   H437    1.080   .     S
C422   C557    1.415   1_455 S
C423   H438    1.082   .     S
C423   N445    1.366   .     A
C423   C489    1.415   .     S
C424   O450    1.289   .     A
C424   O451    1.288   .     A
C425   O453    1.301   .     A
C425   C427    1.474   .     S
C425   O452    1.290   .     A
C426   C1010   1.411   1_554 S
C426   H1042   1.081   1_554 S
C428   C429    1.397   .     A
C428   O468    1.383   .     S
C429   C1033   1.384   .     S
C429   H1044   1.083   .     S
C430   H440    1.080   .     S
C430   C1032   1.384   1_554 S
C430   C1007   1.413   1_554 S
Cu431  N444    2.010   .     S
Cu431  O448    1.963   .     S
Cu431  Cu432   2.675   .     S
Cu431  O452    1.952   .     S
Cu431  O446    1.961   .     S
Cu431  O450    1.960   .     S
Cu432  O447    1.960   .     S
Cu432  O451    1.961   .     S
Cu432  N445    2.010   .     S
Cu432  O453    1.963   .     S
Cu432  O449    1.952   .     S
H439   C1029   1.081   .     S
H441   C1032   1.083   1_554 S
O454   H455    0.990   .     S
S456   O457    1.503   .     D
S456   O458    1.503   .     D
S456   O459    1.679   .     S
O459   H460    0.990   .     S
S461   O463    1.503   .     D
S461   O464    1.683   .     S
S461   O529    1.501   .     S
O462   S595    1.501   1_455 S
O464   H465    0.991   .     S
O466   H467    0.991   .     S
O468   H469    0.992   .     S
C470   O513    1.287   .     A
C470   O514    1.293   .     A
C470   C486    1.452   .     S
C471   C472    1.410   .     A
C471   C1076   1.417   .     S
C471   C1100   1.413   .     S
C472   C479    1.426   .     A
C472   C476    1.414   .     A
C473   C477    1.397   .     A
C473   C1074   1.417   1_554 S
C473   C1077   1.416   1_554 S
C474   C475    1.411   .     A
C474   C1076   1.416   .     S
C474   C1096   1.411   .     S
C475   C476    1.398   .     A
C475   S528    1.774   .     S
C476   H509    1.078   .     S
C477   C494    1.411   .     A
C477   O533    1.378   .     S
C478   C493    1.398   .     A
C478   C494    1.402   .     A
C478   H500    1.083   .     S
C479   C495    1.416   .     A
C479   C481    1.475   .     S
C480   H510    1.084   .     S
C480   C486    1.398   .     A
C480   C80     1.379   1_565 S
C481   O516    1.293   .     A
C481   O515    1.297   .     A
C482   C483    1.394   .     A
C482   H501    1.084   .     S
C483   C491    1.446   .     S
C483   C484    1.414   .     A
C484   O521    1.380   .     S
C485   S523    1.786   .     S
C485   C486    1.420   .     A
C485   C82     1.403   1_565 S
C487   N512    1.367   .     A
C487   H502    1.082   .     S
C487   C555    1.416   .     S
C488   N511    1.367   .     A
C488   H503    1.082   .     S
C489   N511    1.367   .     A
C489   H504    1.080   .     S
C490   H505    1.082   .     S
C490   N512    1.366   .     A
C490   C556    1.415   .     S
C491   O517    1.289   .     A
C491   O518    1.288   .     A
C492   O520    1.301   .     A
C492   C494    1.474   .     S
C492   O519    1.290   .     A
C493   C1077   1.411   1_554 S
C493   H1109   1.081   1_554 S
C495   C496    1.397   .     A
C495   O535    1.383   .     S
C496   C1100   1.384   .     S
C496   H1111   1.083   .     S
C497   H507    1.080   .     S
C497   C1099   1.384   1_554 S
C497   C1074   1.413   1_554 S
Cu498  N511    2.010   .     S
Cu498  O515    1.963   .     S
Cu498  Cu499   2.675   .     S
Cu498  O519    1.952   .     S
Cu498  O513    1.961   .     S
Cu498  O517    1.960   .     S
Cu499  O514    1.960   .     S
Cu499  O518    1.961   .     S
Cu499  N512    2.010   .     S
Cu499  O520    1.963   .     S
Cu499  O516    1.952   .     S
H506   C1096   1.081   .     S
H508   C1099   1.083   1_554 S
O521   H522    0.990   .     S
S523   O524    1.503   .     D
S523   O525    1.503   .     D
S523   O526    1.679   .     S
O526   H527    0.990   .     S
S528   O530    1.503   .     D
S528   O531    1.683   .     S
S528   O596    1.501   .     S
O531   H532    0.991   .     S
O533   H534    0.991   .     S
O535   H536    0.992   .     S
C537   O580    1.287   .     A
C537   O581    1.293   .     A
C537   C553    1.452   .     S
C538   C539    1.410   .     A
C538   C1143   1.417   .     S
C538   C1167   1.413   .     S
C539   C546    1.426   .     A
C539   C543    1.414   .     A
C540   C544    1.397   .     A
C540   C1141   1.417   1_554 S
C540   C1144   1.416   1_554 S
C541   C542    1.411   .     A
C541   C1143   1.416   .     S
C541   C1163   1.411   .     S
C542   C543    1.398   .     A
C542   S595    1.774   .     S
C543   H576    1.078   .     S
C544   C561    1.411   .     A
C544   O600    1.378   .     S
C545   C560    1.398   .     A
C545   C561    1.402   .     A
C545   H567    1.083   .     S
C546   C562    1.416   .     A
C546   C548    1.475   .     S
C547   H577    1.084   .     S
C547   C553    1.398   .     A
C547   C147    1.379   1_565 S
C548   O583    1.293   .     A
C548   O582    1.297   .     A
C549   C550    1.394   .     A
C549   H568    1.084   .     S
C550   C558    1.446   .     S
C550   C551    1.414   .     A
C551   O588    1.380   .     S
C552   S590    1.786   .     S
C552   C553    1.420   .     A
C552   C149    1.403   1_565 S
C554   N579    1.367   .     A
C554   H569    1.082   .     S
C554   C421    1.416   1_655 S
C555   N578    1.367   .     A
C555   H570    1.082   .     S
C556   N578    1.367   .     A
C556   H571    1.080   .     S
C557   H572    1.082   .     S
C557   N579    1.366   .     A
C557   C422    1.415   1_655 S
C558   O584    1.289   .     A
C558   O585    1.288   .     A
C559   O587    1.301   .     A
C559   C561    1.474   .     S
C559   O586    1.290   .     A
C560   C1144   1.411   1_554 S
C560   H1176   1.081   1_554 S
C562   C563    1.397   .     A
C562   O602    1.383   .     S
C563   C1167   1.384   .     S
C563   H1178   1.083   .     S
C564   H574    1.080   .     S
C564   C1166   1.384   1_554 S
C564   C1141   1.413   1_554 S
Cu565  N578    2.010   .     S
Cu565  O582    1.963   .     S
Cu565  Cu566   2.675   .     S
Cu565  O586    1.952   .     S
Cu565  O580    1.961   .     S
Cu565  O584    1.960   .     S
Cu566  O581    1.960   .     S
Cu566  O585    1.961   .     S
Cu566  N579    2.010   .     S
Cu566  O587    1.963   .     S
Cu566  O583    1.952   .     S
H573   C1163   1.081   .     S
H575   C1166   1.083   1_554 S
O588   H589    0.990   .     S
S590   O591    1.503   .     D
S590   O592    1.503   .     D
S590   O593    1.679   .     S
O593   H594    0.990   .     S
S595   O597    1.503   .     D
S595   O598    1.683   .     S
S595   O462    1.501   1_655 S
O598   H599    0.991   .     S
O600   H601    0.991   .     S
O602   H603    0.992   .     S
C604   O647    1.287   .     A
C604   O648    1.293   .     A
C604   C620    1.452   .     S
C605   C606    1.410   .     A
C605   C4      1.417   1_556 S
C605   C28     1.413   1_556 S
C606   C613    1.426   .     A
C606   C610    1.414   .     A
C607   C611    1.397   .     A
C608   C609    1.411   .     A
C608   C4      1.416   1_556 S
C608   C24     1.411   1_556 S
C609   C610    1.398   .     A
C609   S662    1.774   .     S
C610   H643    1.078   .     S
C611   C628    1.411   .     A
C611   O667    1.378   .     S
C612   C627    1.398   .     A
C612   C628    1.402   .     A
C612   H634    1.083   .     S
C613   C629    1.416   .     A
C613   C615    1.475   .     S
C614   H644    1.084   .     S
C614   C620    1.398   .     A
C614   C817    1.379   .     S
C615   O650    1.293   .     A
C615   O649    1.297   .     A
C616   C617    1.394   .     A
C616   H635    1.084   .     S
C616   C1016   1.379   1_545 S
C617   C625    1.446   .     S
C617   C618    1.414   .     A
C618   O655    1.380   .     S
C618   C1021   1.403   1_545 S
C619   S657    1.786   .     S
C619   C620    1.420   .     A
C619   C819    1.403   .     S
C621   N646    1.367   .     A
C621   H636    1.082   .     S
C621   C689    1.416   .     S
C622   N645    1.367   .     A
C622   H637    1.082   .     S
C622   C755    1.416   1_455 S
C623   N645    1.367   .     A
C623   H638    1.080   .     S
C623   C758    1.415   1_455 S
C624   H639    1.082   .     S
C624   N646    1.366   .     A
C624   C690    1.415   .     S
C625   O651    1.289   .     A
C625   O652    1.288   .     A
C626   O654    1.301   .     A
C626   C628    1.474   .     S
C626   O653    1.290   .     A
C629   C630    1.397   .     A
C629   O669    1.383   .     S
C630   C28     1.384   1_556 S
C630   H39     1.083   1_556 S
C631   H641    1.080   .     S
Cu632  N645    2.010   .     S
Cu632  O649    1.963   .     S
Cu632  Cu633   2.675   .     S
Cu632  O653    1.952   .     S
Cu632  O647    1.961   .     S
Cu632  O651    1.960   .     S
Cu633  O648    1.960   .     S
Cu633  O652    1.961   .     S
Cu633  N646    2.010   .     S
Cu633  O654    1.963   .     S
Cu633  O650    1.952   .     S
H640   C24     1.081   1_556 S
O655   H656    0.990   .     S
S657   O658    1.503   .     D
S657   O659    1.503   .     D
S657   O660    1.679   .     S
O660   H661    0.990   .     S
S662   O664    1.503   .     D
S662   O665    1.683   .     S
S662   O730    1.501   .     S
O663   S796    1.501   1_455 S
O665   H666    0.991   .     S
O667   H668    0.991   .     S
O669   H670    0.992   .     S
C671   O714    1.287   .     A
C671   O715    1.293   .     A
C671   C687    1.452   .     S
C672   C673    1.410   .     A
C672   C71     1.417   1_556 S
C672   C95     1.413   1_556 S
C673   C680    1.426   .     A
C673   C677    1.414   .     A
C674   C678    1.397   .     A
C675   C676    1.411   .     A
C675   C71     1.416   1_556 S
C675   C91     1.411   1_556 S
C676   C677    1.398   .     A
C676   S729    1.774   .     S
C677   H710    1.078   .     S
C678   C695    1.411   .     A
C678   O734    1.378   .     S
C679   C694    1.398   .     A
C679   C695    1.402   .     A
C679   H701    1.083   .     S
C680   C696    1.416   .     A
C680   C682    1.475   .     S
C681   H711    1.084   .     S
C681   C687    1.398   .     A
C681   C884    1.379   .     S
C682   O717    1.293   .     A
C682   O716    1.297   .     A
C683   C684    1.394   .     A
C683   H702    1.084   .     S
C683   C1083   1.379   1_545 S
C684   C692    1.446   .     S
C684   C685    1.414   .     A
C685   O722    1.380   .     S
C685   C1088   1.403   1_545 S
C686   S724    1.786   .     S
C686   C687    1.420   .     A
C686   C886    1.403   .     S
C688   N713    1.367   .     A
C688   H703    1.082   .     S
C688   C756    1.416   .     S
C689   N712    1.367   .     A
C689   H704    1.082   .     S
C690   N712    1.367   .     A
C690   H705    1.080   .     S
C691   H706    1.082   .     S
C691   N713    1.366   .     A
C691   C757    1.415   .     S
C692   O718    1.289   .     A
C692   O719    1.288   .     A
C693   O721    1.301   .     A
C693   C695    1.474   .     S
C693   O720    1.290   .     A
C696   C697    1.397   .     A
C696   O736    1.383   .     S
C697   C95     1.384   1_556 S
C697   H106    1.083   1_556 S
C698   H708    1.080   .     S
Cu699  N712    2.010   .     S
Cu699  O716    1.963   .     S
Cu699  Cu700   2.675   .     S
Cu699  O720    1.952   .     S
Cu699  O714    1.961   .     S
Cu699  O718    1.960   .     S
Cu700  O715    1.960   .     S
Cu700  O719    1.961   .     S
Cu700  N713    2.010   .     S
Cu700  O721    1.963   .     S
Cu700  O717    1.952   .     S
H707   C91     1.081   1_556 S
O722   H723    0.990   .     S
S724   O725    1.503   .     D
S724   O726    1.503   .     D
S724   O727    1.679   .     S
O727   H728    0.990   .     S
S729   O731    1.503   .     D
S729   O732    1.683   .     S
S729   O797    1.501   .     S
O732   H733    0.991   .     S
O734   H735    0.991   .     S
O736   H737    0.992   .     S
C738   O781    1.287   .     A
C738   O782    1.293   .     A
C738   C754    1.452   .     S
C739   C740    1.410   .     A
C739   C138    1.417   1_556 S
C739   C162    1.413   1_556 S
C740   C747    1.426   .     A
C740   C744    1.414   .     A
C741   C745    1.397   .     A
C742   C743    1.411   .     A
C742   C138    1.416   1_556 S
C742   C158    1.411   1_556 S
C743   C744    1.398   .     A
C743   S796    1.774   .     S
C744   H777    1.078   .     S
C745   C762    1.411   .     A
C745   O801    1.378   .     S
C746   C761    1.398   .     A
C746   C762    1.402   .     A
C746   H768    1.083   .     S
C747   C763    1.416   .     A
C747   C749    1.475   .     S
C748   H778    1.084   .     S
C748   C754    1.398   .     A
C748   C951    1.379   .     S
C749   O784    1.293   .     A
C749   O783    1.297   .     A
C750   C751    1.394   .     A
C750   H769    1.084   .     S
C750   C1150   1.379   1_545 S
C751   C759    1.446   .     S
C751   C752    1.414   .     A
C752   O789    1.380   .     S
C752   C1155   1.403   1_545 S
C753   S791    1.786   .     S
C753   C754    1.420   .     A
C753   C953    1.403   .     S
C755   N780    1.367   .     A
C755   H770    1.082   .     S
C755   C622    1.416   1_655 S
C756   N779    1.367   .     A
C756   H771    1.082   .     S
C757   N779    1.367   .     A
C757   H772    1.080   .     S
C758   H773    1.082   .     S
C758   N780    1.366   .     A
C758   C623    1.415   1_655 S
C759   O785    1.289   .     A
C759   O786    1.288   .     A
C760   O788    1.301   .     A
C760   C762    1.474   .     S
C760   O787    1.290   .     A
C763   C764    1.397   .     A
C763   O803    1.383   .     S
C764   C162    1.384   1_556 S
C764   H173    1.083   1_556 S
C765   H775    1.080   .     S
Cu766  N779    2.010   .     S
Cu766  O783    1.963   .     S
Cu766  Cu767   2.675   .     S
Cu766  O787    1.952   .     S
Cu766  O781    1.961   .     S
Cu766  O785    1.960   .     S
Cu767  O782    1.960   .     S
Cu767  O786    1.961   .     S
Cu767  N780    2.010   .     S
Cu767  O788    1.963   .     S
Cu767  O784    1.952   .     S
H774   C158    1.081   1_556 S
O789   H790    0.990   .     S
S791   O792    1.503   .     D
S791   O793    1.503   .     D
S791   O794    1.679   .     S
O794   H795    0.990   .     S
S796   O798    1.503   .     D
S796   O799    1.683   .     S
S796   O663    1.501   1_655 S
O799   H800    0.991   .     S
O801   H802    0.991   .     S
O803   H804    0.992   .     S
C805   O848    1.287   .     A
C805   O849    1.293   .     A
C805   C821    1.452   .     S
C806   C807    1.410   .     A
C806   C205    1.417   1_556 S
C806   C229    1.413   1_556 S
C807   C814    1.426   .     A
C807   C811    1.414   .     A
C808   C812    1.397   .     A
C809   C810    1.411   .     A
C809   C205    1.416   1_556 S
C809   C225    1.411   1_556 S
C810   C811    1.398   .     A
C810   S863    1.774   .     S
C811   H844    1.078   .     S
C812   C829    1.411   .     A
C812   O868    1.378   .     S
C813   C828    1.398   .     A
C813   C829    1.402   .     A
C813   H835    1.083   .     S
C814   C830    1.416   .     A
C814   C816    1.475   .     S
C815   H845    1.084   .     S
C815   C821    1.398   .     A
C815   C1018   1.379   .     S
C816   O851    1.293   .     A
C816   O850    1.297   .     A
C817   C818    1.394   .     A
C817   H836    1.084   .     S
C818   C826    1.446   .     S
C818   C819    1.414   .     A
C819   O856    1.380   .     S
C820   S858    1.786   .     S
C820   C821    1.420   .     A
C820   C1020   1.403   .     S
C822   N847    1.367   .     A
C822   H837    1.082   .     S
C822   C890    1.416   .     S
C823   N846    1.367   .     A
C823   H838    1.082   .     S
C823   C956    1.416   1_455 S
C824   N846    1.367   .     A
C824   H839    1.080   .     S
C824   C959    1.415   1_455 S
C825   H840    1.082   .     S
C825   N847    1.366   .     A
C825   C891    1.415   .     S
C826   O852    1.289   .     A
C826   O853    1.288   .     A
C827   O855    1.301   .     A
C827   C829    1.474   .     S
C827   O854    1.290   .     A
C830   C831    1.397   .     A
C830   O870    1.383   .     S
C831   C229    1.384   1_556 S
C831   H240    1.083   1_556 S
C832   H842    1.080   .     S
Cu833  N846    2.010   .     S
Cu833  O850    1.963   .     S
Cu833  Cu834   2.675   .     S
Cu833  O854    1.952   .     S
Cu833  O848    1.961   .     S
Cu833  O852    1.960   .     S
Cu834  O849    1.960   .     S
Cu834  O853    1.961   .     S
Cu834  N847    2.010   .     S
Cu834  O855    1.963   .     S
Cu834  O851    1.952   .     S
H841   C225    1.081   1_556 S
O856   H857    0.990   .     S
S858   O859    1.503   .     D
S858   O860    1.503   .     D
S858   O861    1.679   .     S
O861   H862    0.990   .     S
S863   O865    1.503   .     D
S863   O866    1.683   .     S
S863   O931    1.501   .     S
O864   S997    1.501   1_455 S
O866   H867    0.991   .     S
O868   H869    0.991   .     S
O870   H871    0.992   .     S
C872   O915    1.287   .     A
C872   O916    1.293   .     A
C872   C888    1.452   .     S
C873   C874    1.410   .     A
C873   C272    1.417   1_556 S
C873   C296    1.413   1_556 S
C874   C881    1.426   .     A
C874   C878    1.414   .     A
C875   C879    1.397   .     A
C876   C877    1.411   .     A
C876   C272    1.416   1_556 S
C876   C292    1.411   1_556 S
C877   C878    1.398   .     A
C877   S930    1.774   .     S
C878   H911    1.078   .     S
C879   C896    1.411   .     A
C879   O935    1.378   .     S
C880   C895    1.398   .     A
C880   C896    1.402   .     A
C880   H902    1.083   .     S
C881   C897    1.416   .     A
C881   C883    1.475   .     S
C882   H912    1.084   .     S
C882   C888    1.398   .     A
C882   C1085   1.379   .     S
C883   O918    1.293   .     A
C883   O917    1.297   .     A
C884   C885    1.394   .     A
C884   H903    1.084   .     S
C885   C893    1.446   .     S
C885   C886    1.414   .     A
C886   O923    1.380   .     S
C887   S925    1.786   .     S
C887   C888    1.420   .     A
C887   C1087   1.403   .     S
C889   N914    1.367   .     A
C889   H904    1.082   .     S
C889   C957    1.416   .     S
C890   N913    1.367   .     A
C890   H905    1.082   .     S
C891   N913    1.367   .     A
C891   H906    1.080   .     S
C892   H907    1.082   .     S
C892   N914    1.366   .     A
C892   C958    1.415   .     S
C893   O919    1.289   .     A
C893   O920    1.288   .     A
C894   O922    1.301   .     A
C894   C896    1.474   .     S
C894   O921    1.290   .     A
C897   C898    1.397   .     A
C897   O937    1.383   .     S
C898   C296    1.384   1_556 S
C898   H307    1.083   1_556 S
C899   H909    1.080   .     S
Cu900  N913    2.010   .     S
Cu900  O917    1.963   .     S
Cu900  Cu901   2.675   .     S
Cu900  O921    1.952   .     S
Cu900  O915    1.961   .     S
Cu900  O919    1.960   .     S
Cu901  O916    1.960   .     S
Cu901  O920    1.961   .     S
Cu901  N914    2.010   .     S
Cu901  O922    1.963   .     S
Cu901  O918    1.952   .     S
H908   C292    1.081   1_556 S
O923   H924    0.990   .     S
S925   O926    1.503   .     D
S925   O927    1.503   .     D
S925   O928    1.679   .     S
O928   H929    0.990   .     S
S930   O932    1.503   .     D
S930   O933    1.683   .     S
S930   O998    1.501   .     S
O933   H934    0.991   .     S
O935   H936    0.991   .     S
O937   H938    0.992   .     S
C939   O982    1.287   .     A
C939   O983    1.293   .     A
C939   C955    1.452   .     S
C940   C941    1.410   .     A
C940   C339    1.417   1_556 S
C940   C363    1.413   1_556 S
C941   C948    1.426   .     A
C941   C945    1.414   .     A
C942   C946    1.397   .     A
C943   C944    1.411   .     A
C943   C339    1.416   1_556 S
C943   C359    1.411   1_556 S
C944   C945    1.398   .     A
C944   S997    1.774   .     S
C945   H978    1.078   .     S
C946   C963    1.411   .     A
C946   O1002   1.378   .     S
C947   C962    1.398   .     A
C947   C963    1.402   .     A
C947   H969    1.083   .     S
C948   C964    1.416   .     A
C948   C950    1.475   .     S
C949   H979    1.084   .     S
C949   C955    1.398   .     A
C949   C1152   1.379   .     S
C950   O985    1.293   .     A
C950   O984    1.297   .     A
C951   C952    1.394   .     A
C951   H970    1.084   .     S
C952   C960    1.446   .     S
C952   C953    1.414   .     A
C953   O990    1.380   .     S
C954   S992    1.786   .     S
C954   C955    1.420   .     A
C954   C1154   1.403   .     S
C956   N981    1.367   .     A
C956   H971    1.082   .     S
C956   C823    1.416   1_655 S
C957   N980    1.367   .     A
C957   H972    1.082   .     S
C958   N980    1.367   .     A
C958   H973    1.080   .     S
C959   H974    1.082   .     S
C959   N981    1.366   .     A
C959   C824    1.415   1_655 S
C960   O986    1.289   .     A
C960   O987    1.288   .     A
C961   O989    1.301   .     A
C961   C963    1.474   .     S
C961   O988    1.290   .     A
C964   C965    1.397   .     A
C964   O1004   1.383   .     S
C965   C363    1.384   1_556 S
C965   H374    1.083   1_556 S
C966   H976    1.080   .     S
Cu967  N980    2.010   .     S
Cu967  O984    1.963   .     S
Cu967  Cu968   2.675   .     S
Cu967  O988    1.952   .     S
Cu967  O982    1.961   .     S
Cu967  O986    1.960   .     S
Cu968  O983    1.960   .     S
Cu968  O987    1.961   .     S
Cu968  N981    2.010   .     S
Cu968  O989    1.963   .     S
Cu968  O985    1.952   .     S
H975   C359    1.081   1_556 S
O990   H991    0.990   .     S
S992   O993    1.503   .     D
S992   O994    1.503   .     D
S992   O995    1.679   .     S
O995   H996    0.990   .     S
S997   O999    1.503   .     D
S997   O1000   1.683   .     S
S997   O864    1.501   1_655 S
O1000  H1001   0.991   .     S
O1002  H1003   0.991   .     S
O1004  H1005   0.992   .     S
C1006  O1049   1.287   .     A
C1006  O1050   1.293   .     A
C1006  C1022   1.452   .     S
C1007  C1008   1.410   .     A
C1007  C406    1.417   1_556 S
C1007  C430    1.413   1_556 S
C1008  C1015   1.426   .     A
C1008  C1012   1.414   .     A
C1009  C1013   1.397   .     A
C1010  C1011   1.411   .     A
C1010  C406    1.416   1_556 S
C1010  C426    1.411   1_556 S
C1011  C1012   1.398   .     A
C1011  S1064   1.774   .     S
C1012  H1045   1.078   .     S
C1013  C1030   1.411   .     A
C1013  O1069   1.378   .     S
C1014  C1029   1.398   .     A
C1014  C1030   1.402   .     A
C1014  H1036   1.083   .     S
C1015  C1031   1.416   .     A
C1015  C1017   1.475   .     S
C1016  H1046   1.084   .     S
C1016  C1022   1.398   .     A
C1016  C616    1.379   1_565 S
C1017  O1052   1.293   .     A
C1017  O1051   1.297   .     A
C1018  C1019   1.394   .     A
C1018  H1037   1.084   .     S
C1019  C1027   1.446   .     S
C1019  C1020   1.414   .     A
C1020  O1057   1.380   .     S
C1021  S1059   1.786   .     S
C1021  C1022   1.420   .     A
C1021  C618    1.403   1_565 S
C1023  N1048   1.367   .     A
C1023  H1038   1.082   .     S
C1023  C1091   1.416   .     S
C1024  N1047   1.367   .     A
C1024  H1039   1.082   .     S
C1024  C1157   1.416   1_455 S
C1025  N1047   1.367   .     A
C1025  H1040   1.080   .     S
C1025  C1160   1.415   1_455 S
C1026  H1041   1.082   .     S
C1026  N1048   1.366   .     A
C1026  C1092   1.415   .     S
C1027  O1053   1.289   .     A
C1027  O1054   1.288   .     A
C1028  O1056   1.301   .     A
C1028  C1030   1.474   .     S
C1028  O1055   1.290   .     A
C1031  C1032   1.397   .     A
C1031  O1071   1.383   .     S
C1032  C430    1.384   1_556 S
C1032  H441    1.083   1_556 S
C1033  H1043   1.080   .     S
Cu1034 N1047   2.010   .     S
Cu1034 O1051   1.963   .     S
Cu1034 Cu1035  2.675   .     S
Cu1034 O1055   1.952   .     S
Cu1034 O1049   1.961   .     S
Cu1034 O1053   1.960   .     S
Cu1035 O1050   1.960   .     S
Cu1035 O1054   1.961   .     S
Cu1035 N1048   2.010   .     S
Cu1035 O1056   1.963   .     S
Cu1035 O1052   1.952   .     S
H1042  C426    1.081   1_556 S
O1057  H1058   0.990   .     S
S1059  O1060   1.503   .     D
S1059  O1061   1.503   .     D
S1059  O1062   1.679   .     S
O1062  H1063   0.990   .     S
S1064  O1066   1.503   .     D
S1064  O1067   1.683   .     S
S1064  O1132   1.501   .     S
O1065  S1198   1.501   1_455 S
O1067  H1068   0.991   .     S
O1069  H1070   0.991   .     S
O1071  H1072   0.992   .     S
C1073  O1116   1.287   .     A
C1073  O1117   1.293   .     A
C1073  C1089   1.452   .     S
C1074  C1075   1.410   .     A
C1074  C473    1.417   1_556 S
C1074  C497    1.413   1_556 S
C1075  C1082   1.426   .     A
C1075  C1079   1.414   .     A
C1076  C1080   1.397   .     A
C1077  C1078   1.411   .     A
C1077  C473    1.416   1_556 S
C1077  C493    1.411   1_556 S
C1078  C1079   1.398   .     A
C1078  S1131   1.774   .     S
C1079  H1112   1.078   .     S
C1080  C1097   1.411   .     A
C1080  O1136   1.378   .     S
C1081  C1096   1.398   .     A
C1081  C1097   1.402   .     A
C1081  H1103   1.083   .     S
C1082  C1098   1.416   .     A
C1082  C1084   1.475   .     S
C1083  H1113   1.084   .     S
C1083  C1089   1.398   .     A
C1083  C683    1.379   1_565 S
C1084  O1119   1.293   .     A
C1084  O1118   1.297   .     A
C1085  C1086   1.394   .     A
C1085  H1104   1.084   .     S
C1086  C1094   1.446   .     S
C1086  C1087   1.414   .     A
C1087  O1124   1.380   .     S
C1088  S1126   1.786   .     S
C1088  C1089   1.420   .     A
C1088  C685    1.403   1_565 S
C1090  N1115   1.367   .     A
C1090  H1105   1.082   .     S
C1090  C1158   1.416   .     S
C1091  N1114   1.367   .     A
C1091  H1106   1.082   .     S
C1092  N1114   1.367   .     A
C1092  H1107   1.080   .     S
C1093  H1108   1.082   .     S
C1093  N1115   1.366   .     A
C1093  C1159   1.415   .     S
C1094  O1120   1.289   .     A
C1094  O1121   1.288   .     A
C1095  O1123   1.301   .     A
C1095  C1097   1.474   .     S
C1095  O1122   1.290   .     A
C1098  C1099   1.397   .     A
C1098  O1138   1.383   .     S
C1099  C497    1.384   1_556 S
C1099  H508    1.083   1_556 S
C1100  H1110   1.080   .     S
Cu1101 N1114   2.010   .     S
Cu1101 O1118   1.963   .     S
Cu1101 Cu1102  2.675   .     S
Cu1101 O1122   1.952   .     S
Cu1101 O1116   1.961   .     S
Cu1101 O1120   1.960   .     S
Cu1102 O1117   1.960   .     S
Cu1102 O1121   1.961   .     S
Cu1102 N1115   2.010   .     S
Cu1102 O1123   1.963   .     S
Cu1102 O1119   1.952   .     S
H1109  C493    1.081   1_556 S
O1124  H1125   0.990   .     S
S1126  O1127   1.503   .     D
S1126  O1128   1.503   .     D
S1126  O1129   1.679   .     S
O1129  H1130   0.990   .     S
S1131  O1133   1.503   .     D
S1131  O1134   1.683   .     S
S1131  O1199   1.501   .     S
O1134  H1135   0.991   .     S
O1136  H1137   0.991   .     S
O1138  H1139   0.992   .     S
C1140  O1183   1.287   .     A
C1140  O1184   1.293   .     A
C1140  C1156   1.452   .     S
C1141  C1142   1.410   .     A
C1141  C540    1.417   1_556 S
C1141  C564    1.413   1_556 S
C1142  C1149   1.426   .     A
C1142  C1146   1.414   .     A
C1143  C1147   1.397   .     A
C1144  C1145   1.411   .     A
C1144  C540    1.416   1_556 S
C1144  C560    1.411   1_556 S
C1145  C1146   1.398   .     A
C1145  S1198   1.774   .     S
C1146  H1179   1.078   .     S
C1147  C1164   1.411   .     A
C1147  O1203   1.378   .     S
C1148  C1163   1.398   .     A
C1148  C1164   1.402   .     A
C1148  H1170   1.083   .     S
C1149  C1165   1.416   .     A
C1149  C1151   1.475   .     S
C1150  H1180   1.084   .     S
C1150  C1156   1.398   .     A
C1150  C750    1.379   1_565 S
C1151  O1186   1.293   .     A
C1151  O1185   1.297   .     A
C1152  C1153   1.394   .     A
C1152  H1171   1.084   .     S
C1153  C1161   1.446   .     S
C1153  C1154   1.414   .     A
C1154  O1191   1.380   .     S
C1155  S1193   1.786   .     S
C1155  C1156   1.420   .     A
C1155  C752    1.403   1_565 S
C1157  N1182   1.367   .     A
C1157  H1172   1.082   .     S
C1157  C1024   1.416   1_655 S
C1158  N1181   1.367   .     A
C1158  H1173   1.082   .     S
C1159  N1181   1.367   .     A
C1159  H1174   1.080   .     S
C1160  H1175   1.082   .     S
C1160  N1182   1.366   .     A
C1160  C1025   1.415   1_655 S
C1161  O1187   1.289   .     A
C1161  O1188   1.288   .     A
C1162  O1190   1.301   .     A
C1162  C1164   1.474   .     S
C1162  O1189   1.290   .     A
C1165  C1166   1.397   .     A
C1165  O1205   1.383   .     S
C1166  C564    1.384   1_556 S
C1166  H575    1.083   1_556 S
C1167  H1177   1.080   .     S
Cu1168 N1181   2.010   .     S
Cu1168 O1185   1.963   .     S
Cu1168 Cu1169  2.675   .     S
Cu1168 O1189   1.952   .     S
Cu1168 O1183   1.961   .     S
Cu1168 O1187   1.960   .     S
Cu1169 O1184   1.960   .     S
Cu1169 O1188   1.961   .     S
Cu1169 N1182   2.010   .     S
Cu1169 O1190   1.963   .     S
Cu1169 O1186   1.952   .     S
H1176  C560    1.081   1_556 S
O1191  H1192   0.990   .     S
S1193  O1194   1.503   .     D
S1193  O1195   1.503   .     D
S1193  O1196   1.679   .     S
O1196  H1197   0.990   .     S
S1198  O1200   1.503   .     D
S1198  O1201   1.683   .     S
S1198  O1065   1.501   1_655 S
O1201  H1202   0.991   .     S
O1203  H1204   0.991   .     S
O1205  H1206   0.992   .     S
