data_str_m2_o1_o17_pcu_sym.148
_audit_creation_date              2020-01-03
_audit_creation_method            'Materials Studio'
_symmetry_space_group_name_H-M    'P1'
_symmetry_Int_Tables_number       1
_symmetry_cell_setting            triclinic
loop_
_symmetry_equiv_pos_as_xyz
  x,y,z
_cell_length_a                    32.6773
_cell_length_b                    28.5414
_cell_length_c                    30.0535
_cell_angle_alpha                 89.9997
_cell_angle_beta                  91.2569
_cell_angle_gamma                 90.0000
loop_
_atom_site_label
_atom_site_type_symbol
_atom_site_fract_x
_atom_site_fract_y
_atom_site_fract_z
_atom_site_U_iso_or_equiv
_atom_site_adp_type
_atom_site_occupancy
C1     C     0.08732   0.16667   0.24964   0.00000  Uiso   1.00
C2     C     0.24602   0.16667   0.25036   0.00000  Uiso   1.00
C3     C     0.09248   0.17908   0.02401   0.00000  Uiso   1.00
C4     C     0.24085   0.17908   0.47599   0.00000  Uiso   1.00
C5     C     0.02123   0.12414   0.24987   0.00000  Uiso   1.00
C6     C     0.31212   0.20918   0.25039   0.00000  Uiso   1.00
C7     C     0.31211   0.12414   0.25012   0.00000  Uiso   1.00
C8     C     0.02121   0.20918   0.24962   0.00000  Uiso   1.00
C9     C     0.29064   0.16667   0.25036   0.00000  Uiso   1.00
C10    C     0.04269   0.16667   0.24964   0.00000  Uiso   1.00
C11    C     0.14046   0.02480   0.22262   0.00000  Uiso   1.00
C12    C     0.19286   0.30851   0.27739   0.00000  Uiso   1.00
C13    C     0.19287   0.02480   0.27738   0.00000  Uiso   1.00
C14    C     0.14047   0.30851   0.22261   0.00000  Uiso   1.00
C15    C     0.16695   0.16671   0.16452   0.00000  Uiso   1.00
C16    C     0.16638   0.16671   0.33548   0.00000  Uiso   1.00
C17    C     0.20095   0.16211   0.40726   0.00000  Uiso   1.00
C18    C     0.13239   0.16211   0.09274   0.00000  Uiso   1.00
C19    C     0.16427   0.16737   0.38368   0.00000  Uiso   1.00
C20    C     0.16907   0.16737   0.11632   0.00000  Uiso   1.00
C21    C     0.12776   0.17903   0.40530   0.00000  Uiso   1.00
C22    C     0.20558   0.17903   0.09470   0.00000  Uiso   1.00
C23    C     0.12786   0.17747   0.45278   0.00000  Uiso   1.00
C24    C     0.20547   0.17747   0.04722   0.00000  Uiso   1.00
C25    C     0.16603   0.17387   0.47648   0.00000  Uiso   1.00
C26    C     0.16730   0.17387   0.02352   0.00000  Uiso   1.00
C27    C     0.20307   0.17126   0.45310   0.00000  Uiso   1.00
C28    C     0.13026   0.17126   0.04690   0.00000  Uiso   1.00
C29    C     0.09163   0.18123   0.47737   0.00000  Uiso   1.00
C30    C     0.24170   0.18124   0.02263   0.00000  Uiso   1.00
Cu31   Cu    0.16667   0.21355   0.25000   0.00000  Uiso   1.00
Cu32   Cu    0.16667   0.11978   0.25000   0.00000  Uiso   1.00
H33    H     0.03715   0.09085   0.24982   0.00000  Uiso   1.00
H34    H     0.29623   0.24247   0.25088   0.00000  Uiso   1.00
H35    H     0.29618   0.09085   0.25016   0.00000  Uiso   1.00
H36    H     0.03710   0.24247   0.24914   0.00000  Uiso   1.00
H37    H     0.11948   0.04352   0.20069   0.00000  Uiso   1.00
H38    H     0.21384   0.28978   0.29933   0.00000  Uiso   1.00
H39    H     0.21386   0.04352   0.29931   0.00000  Uiso   1.00
H40    H     0.11949   0.28978   0.20067   0.00000  Uiso   1.00
N41    N     0.16667   0.28402   0.25000   0.00000  Uiso   1.00
N42    N     0.16667   0.04931   0.25000   0.00000  Uiso   1.00
O43    O     0.10655   0.20625   0.25000   0.00000  Uiso   1.00
O44    O     0.22679   0.12709   0.25001   0.00000  Uiso   1.00
O45    O     0.22679   0.20625   0.25001   0.00000  Uiso   1.00
O46    O     0.10655   0.12709   0.25000   0.00000  Uiso   1.00
O47    O     0.16666   0.20627   0.18513   0.00000  Uiso   1.00
O48    O     0.16668   0.12707   0.31487   0.00000  Uiso   1.00
O49    O     0.16668   0.20627   0.31487   0.00000  Uiso   1.00
O50    O     0.16666   0.12707   0.18513   0.00000  Uiso   1.00
F51    F     0.23452   0.14954   0.38422   0.00000  Uiso   1.00
F52    F     0.09881   0.14954   0.11578   0.00000  Uiso   1.00
C53    C     0.09198   0.19865   0.37723   0.00000  Uiso   1.00
C54    C     0.09061   0.25236   0.38170   0.00000  Uiso   1.00
C55    C     0.06882   0.27561   0.34202   0.00000  Uiso   1.00
H56    H     0.08772   0.27232   0.31193   0.00000  Uiso   1.00
H57    H     0.03861   0.25921   0.33523   0.00000  Uiso   1.00
H58    H     0.06429   0.31343   0.34903   0.00000  Uiso   1.00
H59    H     0.07518   0.26208   0.41287   0.00000  Uiso   1.00
H60    H     0.12225   0.26674   0.38378   0.00000  Uiso   1.00
H61    H     0.09479   0.18975   0.34164   0.00000  Uiso   1.00
H62    H     0.06231   0.18210   0.38444   0.00000  Uiso   1.00
C63    C     0.24136   0.19864   0.12277   0.00000  Uiso   1.00
C64    C     0.24273   0.25235   0.11830   0.00000  Uiso   1.00
C65    C     0.26452   0.27560   0.15798   0.00000  Uiso   1.00
H66    H     0.24562   0.27231   0.18807   0.00000  Uiso   1.00
H67    H     0.29473   0.25919   0.16479   0.00000  Uiso   1.00
H68    H     0.26906   0.31341   0.15098   0.00000  Uiso   1.00
H69    H     0.25817   0.26207   0.08713   0.00000  Uiso   1.00
H70    H     0.21109   0.26674   0.11622   0.00000  Uiso   1.00
H71    H     0.23854   0.18974   0.15836   0.00000  Uiso   1.00
H72    H     0.27102   0.18209   0.11556   0.00000  Uiso   1.00
F73    F     0.05465   0.18586   0.45673   0.00000  Uiso   1.00
F74    F     0.27869   0.18587   0.04327   0.00000  Uiso   1.00
C75    C     0.05347   0.19153   0.04830   0.00000  Uiso   1.00
C76    C     0.05846   0.23844   0.07298   0.00000  Uiso   1.00
C77    C     0.01900   0.25244   0.09530   0.00000  Uiso   1.00
H78    H     0.32802   0.25886   0.06968   0.00000  Uiso   1.00
H79    H     0.00927   0.22417   0.11813   0.00000  Uiso   1.00
H80    H     0.02395   0.28512   0.11474   0.00000  Uiso   1.00
H81    H     0.08308   0.23637   0.09890   0.00000  Uiso   1.00
H82    H     0.06685   0.26629   0.04895   0.00000  Uiso   1.00
H83    H     0.02709   0.19540   0.02492   0.00000  Uiso   1.00
H84    H     0.04400   0.16293   0.07073   0.00000  Uiso   1.00
C85    C     0.27986   0.19153   0.45170   0.00000  Uiso   1.00
C86    C     0.27487   0.23844   0.42702   0.00000  Uiso   1.00
C87    C     0.31432   0.25242   0.40467   0.00000  Uiso   1.00
H88    H     0.00532   0.25881   0.43026   0.00000  Uiso   1.00
H89    H     0.32402   0.22415   0.38181   0.00000  Uiso   1.00
H90    H     0.30937   0.28511   0.38524   0.00000  Uiso   1.00
H91    H     0.25023   0.23638   0.40112   0.00000  Uiso   1.00
H92    H     0.26651   0.26629   0.45105   0.00000  Uiso   1.00
H93    H     0.30624   0.19541   0.47508   0.00000  Uiso   1.00
H94    H     0.28933   0.16293   0.42927   0.00000  Uiso   1.00
C95    C     0.42065   0.16667   0.24964   0.00000  Uiso   1.00
C96    C     0.57935   0.16667   0.25036   0.00000  Uiso   1.00
C97    C     0.42581   0.17908   0.02401   0.00000  Uiso   1.00
C98    C     0.57419   0.17908   0.47599   0.00000  Uiso   1.00
C99    C     0.35456   0.12414   0.24987   0.00000  Uiso   1.00
C100   C     0.64546   0.20918   0.25039   0.00000  Uiso   1.00
C101   C     0.64544   0.12414   0.25012   0.00000  Uiso   1.00
C102   C     0.35454   0.20918   0.24962   0.00000  Uiso   1.00
C103   C     0.62397   0.16667   0.25036   0.00000  Uiso   1.00
C104   C     0.37603   0.16667   0.24964   0.00000  Uiso   1.00
C105   C     0.47380   0.02480   0.22262   0.00000  Uiso   1.00
C106   C     0.52620   0.30851   0.27739   0.00000  Uiso   1.00
C107   C     0.52620   0.02480   0.27738   0.00000  Uiso   1.00
C108   C     0.47380   0.30851   0.22261   0.00000  Uiso   1.00
C109   C     0.50028   0.16671   0.16452   0.00000  Uiso   1.00
C110   C     0.49972   0.16671   0.33548   0.00000  Uiso   1.00
C111   C     0.53428   0.16211   0.40726   0.00000  Uiso   1.00
C112   C     0.46572   0.16211   0.09274   0.00000  Uiso   1.00
C113   C     0.49760   0.16737   0.38368   0.00000  Uiso   1.00
C114   C     0.50240   0.16737   0.11632   0.00000  Uiso   1.00
C115   C     0.46109   0.17903   0.40530   0.00000  Uiso   1.00
C116   C     0.53891   0.17903   0.09470   0.00000  Uiso   1.00
C117   C     0.46119   0.17747   0.45278   0.00000  Uiso   1.00
C118   C     0.53881   0.17747   0.04722   0.00000  Uiso   1.00
C119   C     0.49936   0.17387   0.47648   0.00000  Uiso   1.00
C120   C     0.50064   0.17387   0.02352   0.00000  Uiso   1.00
C121   C     0.53641   0.17126   0.45310   0.00000  Uiso   1.00
C122   C     0.46359   0.17126   0.04690   0.00000  Uiso   1.00
C123   C     0.42496   0.18123   0.47737   0.00000  Uiso   1.00
C124   C     0.57504   0.18124   0.02263   0.00000  Uiso   1.00
Cu125  Cu    0.50000   0.21355   0.25000   0.00000  Uiso   1.00
Cu126  Cu    0.50000   0.11978   0.25000   0.00000  Uiso   1.00
H127   H     0.37048   0.09085   0.24982   0.00000  Uiso   1.00
H128   H     0.62957   0.24247   0.25088   0.00000  Uiso   1.00
H129   H     0.62952   0.09085   0.25016   0.00000  Uiso   1.00
H130   H     0.37043   0.24247   0.24914   0.00000  Uiso   1.00
H131   H     0.45281   0.04352   0.20069   0.00000  Uiso   1.00
H132   H     0.54717   0.28978   0.29933   0.00000  Uiso   1.00
H133   H     0.54719   0.04352   0.29931   0.00000  Uiso   1.00
H134   H     0.45283   0.28978   0.20067   0.00000  Uiso   1.00
N135   N     0.50000   0.28402   0.25000   0.00000  Uiso   1.00
N136   N     0.50000   0.04931   0.25000   0.00000  Uiso   1.00
O137   O     0.43988   0.20625   0.25000   0.00000  Uiso   1.00
O138   O     0.56012   0.12709   0.25001   0.00000  Uiso   1.00
O139   O     0.56012   0.20625   0.25001   0.00000  Uiso   1.00
O140   O     0.43988   0.12709   0.25000   0.00000  Uiso   1.00
O141   O     0.49999   0.20627   0.18513   0.00000  Uiso   1.00
O142   O     0.50001   0.12707   0.31487   0.00000  Uiso   1.00
O143   O     0.50001   0.20627   0.31487   0.00000  Uiso   1.00
O144   O     0.49999   0.12707   0.18513   0.00000  Uiso   1.00
F145   F     0.56786   0.14954   0.38422   0.00000  Uiso   1.00
F146   F     0.43214   0.14954   0.11578   0.00000  Uiso   1.00
C147   C     0.42531   0.19865   0.37723   0.00000  Uiso   1.00
C148   C     0.42395   0.25236   0.38170   0.00000  Uiso   1.00
C149   C     0.40215   0.27561   0.34202   0.00000  Uiso   1.00
H150   H     0.42105   0.27232   0.31193   0.00000  Uiso   1.00
H151   H     0.37194   0.25921   0.33523   0.00000  Uiso   1.00
H152   H     0.39762   0.31343   0.34903   0.00000  Uiso   1.00
H153   H     0.40851   0.26208   0.41287   0.00000  Uiso   1.00
H154   H     0.45559   0.26674   0.38378   0.00000  Uiso   1.00
H155   H     0.42813   0.18975   0.34164   0.00000  Uiso   1.00
H156   H     0.39565   0.18210   0.38444   0.00000  Uiso   1.00
C157   C     0.57469   0.19864   0.12277   0.00000  Uiso   1.00
C158   C     0.57606   0.25235   0.11830   0.00000  Uiso   1.00
C159   C     0.59786   0.27560   0.15798   0.00000  Uiso   1.00
H160   H     0.57895   0.27231   0.18807   0.00000  Uiso   1.00
H161   H     0.62806   0.25919   0.16479   0.00000  Uiso   1.00
H162   H     0.60240   0.31341   0.15098   0.00000  Uiso   1.00
H163   H     0.59151   0.26207   0.08713   0.00000  Uiso   1.00
H164   H     0.54443   0.26674   0.11622   0.00000  Uiso   1.00
H165   H     0.57187   0.18974   0.15836   0.00000  Uiso   1.00
H166   H     0.60435   0.18209   0.11556   0.00000  Uiso   1.00
F167   F     0.38798   0.18586   0.45673   0.00000  Uiso   1.00
F168   F     0.61202   0.18587   0.04327   0.00000  Uiso   1.00
C169   C     0.38681   0.19153   0.04830   0.00000  Uiso   1.00
C170   C     0.39179   0.23844   0.07298   0.00000  Uiso   1.00
C171   C     0.35234   0.25244   0.09530   0.00000  Uiso   1.00
H172   H     0.66136   0.25886   0.06968   0.00000  Uiso   1.00
H173   H     0.34260   0.22417   0.11813   0.00000  Uiso   1.00
H174   H     0.35728   0.28512   0.11474   0.00000  Uiso   1.00
H175   H     0.41642   0.23637   0.09890   0.00000  Uiso   1.00
H176   H     0.40018   0.26629   0.04895   0.00000  Uiso   1.00
H177   H     0.36043   0.19540   0.02492   0.00000  Uiso   1.00
H178   H     0.37733   0.16293   0.07073   0.00000  Uiso   1.00
C179   C     0.61319   0.19153   0.45170   0.00000  Uiso   1.00
C180   C     0.60821   0.23844   0.42702   0.00000  Uiso   1.00
C181   C     0.64765   0.25242   0.40467   0.00000  Uiso   1.00
H182   H     0.33865   0.25881   0.43026   0.00000  Uiso   1.00
H183   H     0.65735   0.22415   0.38181   0.00000  Uiso   1.00
H184   H     0.64271   0.28511   0.38524   0.00000  Uiso   1.00
H185   H     0.58356   0.23638   0.40112   0.00000  Uiso   1.00
H186   H     0.59985   0.26629   0.45105   0.00000  Uiso   1.00
H187   H     0.63957   0.19541   0.47508   0.00000  Uiso   1.00
H188   H     0.62267   0.16293   0.42927   0.00000  Uiso   1.00
C189   C     0.75398   0.16667   0.24964   0.00000  Uiso   1.00
C190   C     0.91268   0.16667   0.25036   0.00000  Uiso   1.00
C191   C     0.75915   0.17908   0.02401   0.00000  Uiso   1.00
C192   C     0.90752   0.17908   0.47599   0.00000  Uiso   1.00
C193   C     0.68789   0.12414   0.24987   0.00000  Uiso   1.00
C194   C     0.97879   0.20918   0.25039   0.00000  Uiso   1.00
C195   C     0.97877   0.12414   0.25012   0.00000  Uiso   1.00
C196   C     0.68788   0.20918   0.24962   0.00000  Uiso   1.00
C197   C     0.95731   0.16667   0.25036   0.00000  Uiso   1.00
C198   C     0.70936   0.16667   0.24964   0.00000  Uiso   1.00
C199   C     0.80713   0.02480   0.22262   0.00000  Uiso   1.00
C200   C     0.85953   0.30851   0.27739   0.00000  Uiso   1.00
C201   C     0.85954   0.02480   0.27738   0.00000  Uiso   1.00
C202   C     0.80714   0.30851   0.22261   0.00000  Uiso   1.00
C203   C     0.83362   0.16671   0.16452   0.00000  Uiso   1.00
C204   C     0.83305   0.16671   0.33548   0.00000  Uiso   1.00
C205   C     0.86761   0.16211   0.40726   0.00000  Uiso   1.00
C206   C     0.79905   0.16211   0.09274   0.00000  Uiso   1.00
C207   C     0.83093   0.16737   0.38368   0.00000  Uiso   1.00
C208   C     0.83573   0.16737   0.11632   0.00000  Uiso   1.00
C209   C     0.79442   0.17903   0.40530   0.00000  Uiso   1.00
C210   C     0.87224   0.17903   0.09470   0.00000  Uiso   1.00
C211   C     0.79453   0.17747   0.45278   0.00000  Uiso   1.00
C212   C     0.87214   0.17747   0.04722   0.00000  Uiso   1.00
C213   C     0.83270   0.17387   0.47648   0.00000  Uiso   1.00
C214   C     0.83397   0.17387   0.02352   0.00000  Uiso   1.00
C215   C     0.86974   0.17126   0.45310   0.00000  Uiso   1.00
C216   C     0.79693   0.17126   0.04690   0.00000  Uiso   1.00
C217   C     0.75830   0.18123   0.47737   0.00000  Uiso   1.00
C218   C     0.90837   0.18124   0.02263   0.00000  Uiso   1.00
Cu219  Cu    0.83333   0.21355   0.25000   0.00000  Uiso   1.00
Cu220  Cu    0.83333   0.11978   0.25000   0.00000  Uiso   1.00
H221   H     0.70382   0.09085   0.24982   0.00000  Uiso   1.00
H222   H     0.96290   0.24247   0.25088   0.00000  Uiso   1.00
H223   H     0.96285   0.09085   0.25016   0.00000  Uiso   1.00
H224   H     0.70377   0.24247   0.24914   0.00000  Uiso   1.00
H225   H     0.78614   0.04352   0.20069   0.00000  Uiso   1.00
H226   H     0.88051   0.28978   0.29933   0.00000  Uiso   1.00
H227   H     0.88052   0.04352   0.29931   0.00000  Uiso   1.00
H228   H     0.78616   0.28978   0.20067   0.00000  Uiso   1.00
N229   N     0.83333   0.28402   0.25000   0.00000  Uiso   1.00
N230   N     0.83333   0.04931   0.25000   0.00000  Uiso   1.00
O231   O     0.77321   0.20625   0.25000   0.00000  Uiso   1.00
O232   O     0.89345   0.12709   0.25001   0.00000  Uiso   1.00
O233   O     0.89345   0.20625   0.25001   0.00000  Uiso   1.00
O234   O     0.77321   0.12709   0.25000   0.00000  Uiso   1.00
O235   O     0.83332   0.20627   0.18513   0.00000  Uiso   1.00
O236   O     0.83334   0.12707   0.31487   0.00000  Uiso   1.00
O237   O     0.83334   0.20627   0.31487   0.00000  Uiso   1.00
O238   O     0.83332   0.12707   0.18513   0.00000  Uiso   1.00
F239   F     0.90119   0.14954   0.38422   0.00000  Uiso   1.00
F240   F     0.76548   0.14954   0.11578   0.00000  Uiso   1.00
C241   C     0.75864   0.19865   0.37723   0.00000  Uiso   1.00
C242   C     0.75728   0.25236   0.38170   0.00000  Uiso   1.00
C243   C     0.73549   0.27561   0.34202   0.00000  Uiso   1.00
H244   H     0.75439   0.27232   0.31193   0.00000  Uiso   1.00
H245   H     0.70527   0.25921   0.33523   0.00000  Uiso   1.00
H246   H     0.73096   0.31343   0.34903   0.00000  Uiso   1.00
H247   H     0.74184   0.26208   0.41287   0.00000  Uiso   1.00
H248   H     0.78892   0.26674   0.38378   0.00000  Uiso   1.00
H249   H     0.76146   0.18975   0.34164   0.00000  Uiso   1.00
H250   H     0.72898   0.18210   0.38444   0.00000  Uiso   1.00
C251   C     0.90803   0.19864   0.12277   0.00000  Uiso   1.00
C252   C     0.90940   0.25235   0.11830   0.00000  Uiso   1.00
C253   C     0.93119   0.27560   0.15798   0.00000  Uiso   1.00
H254   H     0.91228   0.27231   0.18807   0.00000  Uiso   1.00
H255   H     0.96140   0.25919   0.16479   0.00000  Uiso   1.00
H256   H     0.93573   0.31341   0.15098   0.00000  Uiso   1.00
H257   H     0.92484   0.26207   0.08713   0.00000  Uiso   1.00
H258   H     0.87776   0.26674   0.11622   0.00000  Uiso   1.00
H259   H     0.90521   0.18974   0.15836   0.00000  Uiso   1.00
H260   H     0.93769   0.18209   0.11556   0.00000  Uiso   1.00
F261   F     0.72131   0.18586   0.45673   0.00000  Uiso   1.00
F262   F     0.94535   0.18587   0.04327   0.00000  Uiso   1.00
C263   C     0.72014   0.19153   0.04830   0.00000  Uiso   1.00
C264   C     0.72512   0.23844   0.07298   0.00000  Uiso   1.00
C265   C     0.68567   0.25244   0.09530   0.00000  Uiso   1.00
H266   H     0.99469   0.25886   0.06968   0.00000  Uiso   1.00
H267   H     0.67594   0.22417   0.11813   0.00000  Uiso   1.00
H268   H     0.69061   0.28512   0.11474   0.00000  Uiso   1.00
H269   H     0.74975   0.23637   0.09890   0.00000  Uiso   1.00
H270   H     0.73351   0.26629   0.04895   0.00000  Uiso   1.00
H271   H     0.69376   0.19540   0.02492   0.00000  Uiso   1.00
H272   H     0.71067   0.16293   0.07073   0.00000  Uiso   1.00
C273   C     0.94653   0.19153   0.45170   0.00000  Uiso   1.00
C274   C     0.94154   0.23844   0.42702   0.00000  Uiso   1.00
C275   C     0.98098   0.25242   0.40467   0.00000  Uiso   1.00
H276   H     0.67199   0.25881   0.43026   0.00000  Uiso   1.00
H277   H     0.99068   0.22415   0.38181   0.00000  Uiso   1.00
H278   H     0.97604   0.28511   0.38524   0.00000  Uiso   1.00
H279   H     0.91690   0.23638   0.40112   0.00000  Uiso   1.00
H280   H     0.93318   0.26629   0.45105   0.00000  Uiso   1.00
H281   H     0.97291   0.19541   0.47508   0.00000  Uiso   1.00
H282   H     0.95600   0.16293   0.42927   0.00000  Uiso   1.00
C283   C     0.08732   0.50000   0.24964   0.00000  Uiso   1.00
C284   C     0.24602   0.50000   0.25036   0.00000  Uiso   1.00
C285   C     0.09248   0.51241   0.02401   0.00000  Uiso   1.00
C286   C     0.24085   0.51241   0.47599   0.00000  Uiso   1.00
C287   C     0.02123   0.45747   0.24987   0.00000  Uiso   1.00
C288   C     0.31212   0.54252   0.25039   0.00000  Uiso   1.00
C289   C     0.31211   0.45747   0.25012   0.00000  Uiso   1.00
C290   C     0.02121   0.54252   0.24962   0.00000  Uiso   1.00
C291   C     0.29064   0.50000   0.25036   0.00000  Uiso   1.00
C292   C     0.04269   0.50000   0.24964   0.00000  Uiso   1.00
C293   C     0.14046   0.35814   0.22262   0.00000  Uiso   1.00
C294   C     0.19286   0.64184   0.27739   0.00000  Uiso   1.00
C295   C     0.19287   0.35814   0.27738   0.00000  Uiso   1.00
C296   C     0.14047   0.64184   0.22261   0.00000  Uiso   1.00
C297   C     0.16695   0.50005   0.16452   0.00000  Uiso   1.00
C298   C     0.16638   0.50005   0.33548   0.00000  Uiso   1.00
C299   C     0.20095   0.49544   0.40726   0.00000  Uiso   1.00
C300   C     0.13239   0.49544   0.09274   0.00000  Uiso   1.00
C301   C     0.16427   0.50070   0.38368   0.00000  Uiso   1.00
C302   C     0.16907   0.50070   0.11632   0.00000  Uiso   1.00
C303   C     0.12776   0.51236   0.40530   0.00000  Uiso   1.00
C304   C     0.20558   0.51236   0.09470   0.00000  Uiso   1.00
C305   C     0.12786   0.51080   0.45278   0.00000  Uiso   1.00
C306   C     0.20547   0.51080   0.04722   0.00000  Uiso   1.00
C307   C     0.16603   0.50720   0.47648   0.00000  Uiso   1.00
C308   C     0.16730   0.50720   0.02352   0.00000  Uiso   1.00
C309   C     0.20307   0.50459   0.45310   0.00000  Uiso   1.00
C310   C     0.13026   0.50460   0.04690   0.00000  Uiso   1.00
C311   C     0.09163   0.51457   0.47737   0.00000  Uiso   1.00
C312   C     0.24170   0.51457   0.02263   0.00000  Uiso   1.00
Cu313  Cu    0.16667   0.54689   0.25000   0.00000  Uiso   1.00
Cu314  Cu    0.16667   0.45311   0.25000   0.00000  Uiso   1.00
H315   H     0.03715   0.42419   0.24982   0.00000  Uiso   1.00
H316   H     0.29623   0.57580   0.25088   0.00000  Uiso   1.00
H317   H     0.29618   0.42419   0.25016   0.00000  Uiso   1.00
H318   H     0.03710   0.57580   0.24914   0.00000  Uiso   1.00
H319   H     0.11948   0.37685   0.20069   0.00000  Uiso   1.00
H320   H     0.21384   0.62311   0.29933   0.00000  Uiso   1.00
H321   H     0.21386   0.37685   0.29931   0.00000  Uiso   1.00
H322   H     0.11949   0.62311   0.20067   0.00000  Uiso   1.00
N323   N     0.16667   0.61736   0.25000   0.00000  Uiso   1.00
N324   N     0.16667   0.38264   0.25000   0.00000  Uiso   1.00
O325   O     0.10655   0.53958   0.25000   0.00000  Uiso   1.00
O326   O     0.22679   0.46042   0.25001   0.00000  Uiso   1.00
O327   O     0.22679   0.53958   0.25001   0.00000  Uiso   1.00
O328   O     0.10655   0.46042   0.25000   0.00000  Uiso   1.00
O329   O     0.16666   0.53960   0.18513   0.00000  Uiso   1.00
O330   O     0.16668   0.46040   0.31487   0.00000  Uiso   1.00
O331   O     0.16668   0.53960   0.31487   0.00000  Uiso   1.00
O332   O     0.16666   0.46040   0.18513   0.00000  Uiso   1.00
F333   F     0.23452   0.48287   0.38422   0.00000  Uiso   1.00
F334   F     0.09881   0.48287   0.11578   0.00000  Uiso   1.00
C335   C     0.09198   0.53198   0.37723   0.00000  Uiso   1.00
C336   C     0.09061   0.58569   0.38170   0.00000  Uiso   1.00
C337   C     0.06882   0.60894   0.34202   0.00000  Uiso   1.00
H338   H     0.08772   0.60566   0.31193   0.00000  Uiso   1.00
H339   H     0.03861   0.59254   0.33523   0.00000  Uiso   1.00
H340   H     0.06429   0.64676   0.34903   0.00000  Uiso   1.00
H341   H     0.07518   0.59542   0.41287   0.00000  Uiso   1.00
H342   H     0.12225   0.60007   0.38378   0.00000  Uiso   1.00
H343   H     0.09479   0.52308   0.34164   0.00000  Uiso   1.00
H344   H     0.06231   0.51543   0.38444   0.00000  Uiso   1.00
C345   C     0.24136   0.53197   0.12277   0.00000  Uiso   1.00
C346   C     0.24273   0.58568   0.11830   0.00000  Uiso   1.00
C347   C     0.26452   0.60893   0.15798   0.00000  Uiso   1.00
H348   H     0.24562   0.60565   0.18807   0.00000  Uiso   1.00
H349   H     0.29473   0.59252   0.16479   0.00000  Uiso   1.00
H350   H     0.26906   0.64675   0.15098   0.00000  Uiso   1.00
H351   H     0.25817   0.59541   0.08713   0.00000  Uiso   1.00
H352   H     0.21109   0.60007   0.11622   0.00000  Uiso   1.00
H353   H     0.23854   0.52307   0.15836   0.00000  Uiso   1.00
H354   H     0.27102   0.51542   0.11556   0.00000  Uiso   1.00
F355   F     0.05465   0.51919   0.45673   0.00000  Uiso   1.00
F356   F     0.27869   0.51920   0.04327   0.00000  Uiso   1.00
C357   C     0.05347   0.52486   0.04830   0.00000  Uiso   1.00
C358   C     0.05846   0.57177   0.07298   0.00000  Uiso   1.00
C359   C     0.01900   0.58578   0.09530   0.00000  Uiso   1.00
H360   H     0.32802   0.59219   0.06968   0.00000  Uiso   1.00
H361   H     0.00927   0.55750   0.11813   0.00000  Uiso   1.00
H362   H     0.02395   0.61845   0.11474   0.00000  Uiso   1.00
H363   H     0.08308   0.56970   0.09890   0.00000  Uiso   1.00
H364   H     0.06685   0.59962   0.04895   0.00000  Uiso   1.00
H365   H     0.02709   0.52874   0.02492   0.00000  Uiso   1.00
H366   H     0.04400   0.49626   0.07073   0.00000  Uiso   1.00
C367   C     0.27986   0.52486   0.45170   0.00000  Uiso   1.00
C368   C     0.27487   0.57177   0.42702   0.00000  Uiso   1.00
C369   C     0.31432   0.58576   0.40467   0.00000  Uiso   1.00
H370   H     0.00532   0.59215   0.43026   0.00000  Uiso   1.00
H371   H     0.32402   0.55749   0.38181   0.00000  Uiso   1.00
H372   H     0.30937   0.61844   0.38524   0.00000  Uiso   1.00
H373   H     0.25023   0.56971   0.40112   0.00000  Uiso   1.00
H374   H     0.26651   0.59963   0.45105   0.00000  Uiso   1.00
H375   H     0.30624   0.52874   0.47508   0.00000  Uiso   1.00
H376   H     0.28933   0.49626   0.42927   0.00000  Uiso   1.00
C377   C     0.42065   0.50000   0.24964   0.00000  Uiso   1.00
C378   C     0.57935   0.50000   0.25036   0.00000  Uiso   1.00
C379   C     0.42581   0.51241   0.02401   0.00000  Uiso   1.00
C380   C     0.57419   0.51241   0.47599   0.00000  Uiso   1.00
C381   C     0.35456   0.45747   0.24987   0.00000  Uiso   1.00
C382   C     0.64546   0.54252   0.25039   0.00000  Uiso   1.00
C383   C     0.64544   0.45747   0.25012   0.00000  Uiso   1.00
C384   C     0.35454   0.54252   0.24962   0.00000  Uiso   1.00
C385   C     0.62397   0.50000   0.25036   0.00000  Uiso   1.00
C386   C     0.37603   0.50000   0.24964   0.00000  Uiso   1.00
C387   C     0.47380   0.35814   0.22262   0.00000  Uiso   1.00
C388   C     0.52620   0.64184   0.27739   0.00000  Uiso   1.00
C389   C     0.52620   0.35814   0.27738   0.00000  Uiso   1.00
C390   C     0.47380   0.64184   0.22261   0.00000  Uiso   1.00
C391   C     0.50028   0.50005   0.16452   0.00000  Uiso   1.00
C392   C     0.49972   0.50005   0.33548   0.00000  Uiso   1.00
C393   C     0.53428   0.49544   0.40726   0.00000  Uiso   1.00
C394   C     0.46572   0.49544   0.09274   0.00000  Uiso   1.00
C395   C     0.49760   0.50070   0.38368   0.00000  Uiso   1.00
C396   C     0.50240   0.50070   0.11632   0.00000  Uiso   1.00
C397   C     0.46109   0.51236   0.40530   0.00000  Uiso   1.00
C398   C     0.53891   0.51236   0.09470   0.00000  Uiso   1.00
C399   C     0.46119   0.51080   0.45278   0.00000  Uiso   1.00
C400   C     0.53881   0.51080   0.04722   0.00000  Uiso   1.00
C401   C     0.49936   0.50720   0.47648   0.00000  Uiso   1.00
C402   C     0.50064   0.50720   0.02352   0.00000  Uiso   1.00
C403   C     0.53641   0.50459   0.45310   0.00000  Uiso   1.00
C404   C     0.46359   0.50460   0.04690   0.00000  Uiso   1.00
C405   C     0.42496   0.51457   0.47737   0.00000  Uiso   1.00
C406   C     0.57504   0.51457   0.02263   0.00000  Uiso   1.00
Cu407  Cu    0.50000   0.54689   0.25000   0.00000  Uiso   1.00
Cu408  Cu    0.50000   0.45311   0.25000   0.00000  Uiso   1.00
H409   H     0.37048   0.42419   0.24982   0.00000  Uiso   1.00
H410   H     0.62957   0.57580   0.25088   0.00000  Uiso   1.00
H411   H     0.62952   0.42419   0.25016   0.00000  Uiso   1.00
H412   H     0.37043   0.57580   0.24914   0.00000  Uiso   1.00
H413   H     0.45281   0.37685   0.20069   0.00000  Uiso   1.00
H414   H     0.54717   0.62311   0.29933   0.00000  Uiso   1.00
H415   H     0.54719   0.37685   0.29931   0.00000  Uiso   1.00
H416   H     0.45283   0.62311   0.20067   0.00000  Uiso   1.00
N417   N     0.50000   0.61736   0.25000   0.00000  Uiso   1.00
N418   N     0.50000   0.38264   0.25000   0.00000  Uiso   1.00
O419   O     0.43988   0.53958   0.25000   0.00000  Uiso   1.00
O420   O     0.56012   0.46042   0.25001   0.00000  Uiso   1.00
O421   O     0.56012   0.53958   0.25001   0.00000  Uiso   1.00
O422   O     0.43988   0.46042   0.25000   0.00000  Uiso   1.00
O423   O     0.49999   0.53960   0.18513   0.00000  Uiso   1.00
O424   O     0.50001   0.46040   0.31487   0.00000  Uiso   1.00
O425   O     0.50001   0.53960   0.31487   0.00000  Uiso   1.00
O426   O     0.49999   0.46040   0.18513   0.00000  Uiso   1.00
F427   F     0.56786   0.48287   0.38422   0.00000  Uiso   1.00
F428   F     0.43214   0.48287   0.11578   0.00000  Uiso   1.00
C429   C     0.42531   0.53198   0.37723   0.00000  Uiso   1.00
C430   C     0.42395   0.58569   0.38170   0.00000  Uiso   1.00
C431   C     0.40215   0.60894   0.34202   0.00000  Uiso   1.00
H432   H     0.42105   0.60566   0.31193   0.00000  Uiso   1.00
H433   H     0.37194   0.59254   0.33523   0.00000  Uiso   1.00
H434   H     0.39762   0.64676   0.34903   0.00000  Uiso   1.00
H435   H     0.40851   0.59542   0.41287   0.00000  Uiso   1.00
H436   H     0.45559   0.60007   0.38378   0.00000  Uiso   1.00
H437   H     0.42813   0.52308   0.34164   0.00000  Uiso   1.00
H438   H     0.39565   0.51543   0.38444   0.00000  Uiso   1.00
C439   C     0.57469   0.53197   0.12277   0.00000  Uiso   1.00
C440   C     0.57606   0.58568   0.11830   0.00000  Uiso   1.00
C441   C     0.59786   0.60893   0.15798   0.00000  Uiso   1.00
H442   H     0.57895   0.60565   0.18807   0.00000  Uiso   1.00
H443   H     0.62806   0.59252   0.16479   0.00000  Uiso   1.00
H444   H     0.60240   0.64675   0.15098   0.00000  Uiso   1.00
H445   H     0.59151   0.59541   0.08713   0.00000  Uiso   1.00
H446   H     0.54443   0.60007   0.11622   0.00000  Uiso   1.00
H447   H     0.57187   0.52307   0.15836   0.00000  Uiso   1.00
H448   H     0.60435   0.51542   0.11556   0.00000  Uiso   1.00
F449   F     0.38798   0.51919   0.45673   0.00000  Uiso   1.00
F450   F     0.61202   0.51920   0.04327   0.00000  Uiso   1.00
C451   C     0.38681   0.52486   0.04830   0.00000  Uiso   1.00
C452   C     0.39179   0.57177   0.07298   0.00000  Uiso   1.00
C453   C     0.35234   0.58578   0.09530   0.00000  Uiso   1.00
H454   H     0.66136   0.59219   0.06968   0.00000  Uiso   1.00
H455   H     0.34260   0.55750   0.11813   0.00000  Uiso   1.00
H456   H     0.35728   0.61845   0.11474   0.00000  Uiso   1.00
H457   H     0.41642   0.56970   0.09890   0.00000  Uiso   1.00
H458   H     0.40018   0.59962   0.04895   0.00000  Uiso   1.00
H459   H     0.36043   0.52874   0.02492   0.00000  Uiso   1.00
H460   H     0.37733   0.49626   0.07073   0.00000  Uiso   1.00
C461   C     0.61319   0.52486   0.45170   0.00000  Uiso   1.00
C462   C     0.60821   0.57177   0.42702   0.00000  Uiso   1.00
C463   C     0.64765   0.58576   0.40467   0.00000  Uiso   1.00
H464   H     0.33865   0.59215   0.43026   0.00000  Uiso   1.00
H465   H     0.65735   0.55749   0.38181   0.00000  Uiso   1.00
H466   H     0.64271   0.61844   0.38524   0.00000  Uiso   1.00
H467   H     0.58356   0.56971   0.40112   0.00000  Uiso   1.00
H468   H     0.59985   0.59963   0.45105   0.00000  Uiso   1.00
H469   H     0.63957   0.52874   0.47508   0.00000  Uiso   1.00
H470   H     0.62267   0.49626   0.42927   0.00000  Uiso   1.00
C471   C     0.75398   0.50000   0.24964   0.00000  Uiso   1.00
C472   C     0.91268   0.50000   0.25036   0.00000  Uiso   1.00
C473   C     0.75915   0.51241   0.02401   0.00000  Uiso   1.00
C474   C     0.90752   0.51241   0.47599   0.00000  Uiso   1.00
C475   C     0.68789   0.45747   0.24987   0.00000  Uiso   1.00
C476   C     0.97879   0.54252   0.25039   0.00000  Uiso   1.00
C477   C     0.97877   0.45747   0.25012   0.00000  Uiso   1.00
C478   C     0.68788   0.54252   0.24962   0.00000  Uiso   1.00
C479   C     0.95731   0.50000   0.25036   0.00000  Uiso   1.00
C480   C     0.70936   0.50000   0.24964   0.00000  Uiso   1.00
C481   C     0.80713   0.35814   0.22262   0.00000  Uiso   1.00
C482   C     0.85953   0.64184   0.27739   0.00000  Uiso   1.00
C483   C     0.85954   0.35814   0.27738   0.00000  Uiso   1.00
C484   C     0.80714   0.64184   0.22261   0.00000  Uiso   1.00
C485   C     0.83362   0.50005   0.16452   0.00000  Uiso   1.00
C486   C     0.83305   0.50005   0.33548   0.00000  Uiso   1.00
C487   C     0.86761   0.49544   0.40726   0.00000  Uiso   1.00
C488   C     0.79905   0.49544   0.09274   0.00000  Uiso   1.00
C489   C     0.83093   0.50070   0.38368   0.00000  Uiso   1.00
C490   C     0.83573   0.50070   0.11632   0.00000  Uiso   1.00
C491   C     0.79442   0.51236   0.40530   0.00000  Uiso   1.00
C492   C     0.87224   0.51236   0.09470   0.00000  Uiso   1.00
C493   C     0.79453   0.51080   0.45278   0.00000  Uiso   1.00
C494   C     0.87214   0.51080   0.04722   0.00000  Uiso   1.00
C495   C     0.83270   0.50720   0.47648   0.00000  Uiso   1.00
C496   C     0.83397   0.50720   0.02352   0.00000  Uiso   1.00
C497   C     0.86974   0.50459   0.45310   0.00000  Uiso   1.00
C498   C     0.79693   0.50460   0.04690   0.00000  Uiso   1.00
C499   C     0.75830   0.51457   0.47737   0.00000  Uiso   1.00
C500   C     0.90837   0.51457   0.02263   0.00000  Uiso   1.00
Cu501  Cu    0.83333   0.54689   0.25000   0.00000  Uiso   1.00
Cu502  Cu    0.83333   0.45311   0.25000   0.00000  Uiso   1.00
H503   H     0.70382   0.42419   0.24982   0.00000  Uiso   1.00
H504   H     0.96290   0.57580   0.25088   0.00000  Uiso   1.00
H505   H     0.96285   0.42419   0.25016   0.00000  Uiso   1.00
H506   H     0.70377   0.57580   0.24914   0.00000  Uiso   1.00
H507   H     0.78614   0.37685   0.20069   0.00000  Uiso   1.00
H508   H     0.88051   0.62311   0.29933   0.00000  Uiso   1.00
H509   H     0.88052   0.37685   0.29931   0.00000  Uiso   1.00
H510   H     0.78616   0.62311   0.20067   0.00000  Uiso   1.00
N511   N     0.83333   0.61736   0.25000   0.00000  Uiso   1.00
N512   N     0.83333   0.38264   0.25000   0.00000  Uiso   1.00
O513   O     0.77321   0.53958   0.25000   0.00000  Uiso   1.00
O514   O     0.89345   0.46042   0.25001   0.00000  Uiso   1.00
O515   O     0.89345   0.53958   0.25001   0.00000  Uiso   1.00
O516   O     0.77321   0.46042   0.25000   0.00000  Uiso   1.00
O517   O     0.83332   0.53960   0.18513   0.00000  Uiso   1.00
O518   O     0.83334   0.46040   0.31487   0.00000  Uiso   1.00
O519   O     0.83334   0.53960   0.31487   0.00000  Uiso   1.00
O520   O     0.83332   0.46040   0.18513   0.00000  Uiso   1.00
F521   F     0.90119   0.48287   0.38422   0.00000  Uiso   1.00
F522   F     0.76548   0.48287   0.11578   0.00000  Uiso   1.00
C523   C     0.75864   0.53198   0.37723   0.00000  Uiso   1.00
C524   C     0.75728   0.58569   0.38170   0.00000  Uiso   1.00
C525   C     0.73549   0.60894   0.34202   0.00000  Uiso   1.00
H526   H     0.75439   0.60566   0.31193   0.00000  Uiso   1.00
H527   H     0.70527   0.59254   0.33523   0.00000  Uiso   1.00
H528   H     0.73096   0.64676   0.34903   0.00000  Uiso   1.00
H529   H     0.74184   0.59542   0.41287   0.00000  Uiso   1.00
H530   H     0.78892   0.60007   0.38378   0.00000  Uiso   1.00
H531   H     0.76146   0.52308   0.34164   0.00000  Uiso   1.00
H532   H     0.72898   0.51543   0.38444   0.00000  Uiso   1.00
C533   C     0.90803   0.53197   0.12277   0.00000  Uiso   1.00
C534   C     0.90940   0.58568   0.11830   0.00000  Uiso   1.00
C535   C     0.93119   0.60893   0.15798   0.00000  Uiso   1.00
H536   H     0.91228   0.60565   0.18807   0.00000  Uiso   1.00
H537   H     0.96140   0.59252   0.16479   0.00000  Uiso   1.00
H538   H     0.93573   0.64675   0.15098   0.00000  Uiso   1.00
H539   H     0.92484   0.59541   0.08713   0.00000  Uiso   1.00
H540   H     0.87776   0.60007   0.11622   0.00000  Uiso   1.00
H541   H     0.90521   0.52307   0.15836   0.00000  Uiso   1.00
H542   H     0.93769   0.51542   0.11556   0.00000  Uiso   1.00
F543   F     0.72131   0.51919   0.45673   0.00000  Uiso   1.00
F544   F     0.94535   0.51920   0.04327   0.00000  Uiso   1.00
C545   C     0.72014   0.52486   0.04830   0.00000  Uiso   1.00
C546   C     0.72512   0.57177   0.07298   0.00000  Uiso   1.00
C547   C     0.68567   0.58578   0.09530   0.00000  Uiso   1.00
H548   H     0.99469   0.59219   0.06968   0.00000  Uiso   1.00
H549   H     0.67594   0.55750   0.11813   0.00000  Uiso   1.00
H550   H     0.69061   0.61845   0.11474   0.00000  Uiso   1.00
H551   H     0.74975   0.56970   0.09890   0.00000  Uiso   1.00
H552   H     0.73351   0.59962   0.04895   0.00000  Uiso   1.00
H553   H     0.69376   0.52874   0.02492   0.00000  Uiso   1.00
H554   H     0.71067   0.49626   0.07073   0.00000  Uiso   1.00
C555   C     0.94653   0.52486   0.45170   0.00000  Uiso   1.00
C556   C     0.94154   0.57177   0.42702   0.00000  Uiso   1.00
C557   C     0.98098   0.58576   0.40467   0.00000  Uiso   1.00
H558   H     0.67199   0.59215   0.43026   0.00000  Uiso   1.00
H559   H     0.99068   0.55749   0.38181   0.00000  Uiso   1.00
H560   H     0.97604   0.61844   0.38524   0.00000  Uiso   1.00
H561   H     0.91690   0.56971   0.40112   0.00000  Uiso   1.00
H562   H     0.93318   0.59963   0.45105   0.00000  Uiso   1.00
H563   H     0.97291   0.52874   0.47508   0.00000  Uiso   1.00
H564   H     0.95600   0.49626   0.42927   0.00000  Uiso   1.00
C565   C     0.08732   0.83333   0.24964   0.00000  Uiso   1.00
C566   C     0.24602   0.83333   0.25036   0.00000  Uiso   1.00
C567   C     0.09248   0.84575   0.02401   0.00000  Uiso   1.00
C568   C     0.24085   0.84575   0.47599   0.00000  Uiso   1.00
C569   C     0.02123   0.79081   0.24987   0.00000  Uiso   1.00
C570   C     0.31212   0.87585   0.25039   0.00000  Uiso   1.00
C571   C     0.31211   0.79081   0.25012   0.00000  Uiso   1.00
C572   C     0.02121   0.87585   0.24962   0.00000  Uiso   1.00
C573   C     0.29064   0.83334   0.25036   0.00000  Uiso   1.00
C574   C     0.04269   0.83334   0.24964   0.00000  Uiso   1.00
C575   C     0.14046   0.69147   0.22262   0.00000  Uiso   1.00
C576   C     0.19286   0.97518   0.27739   0.00000  Uiso   1.00
C577   C     0.19287   0.69147   0.27738   0.00000  Uiso   1.00
C578   C     0.14047   0.97518   0.22261   0.00000  Uiso   1.00
C579   C     0.16695   0.83338   0.16452   0.00000  Uiso   1.00
C580   C     0.16638   0.83338   0.33548   0.00000  Uiso   1.00
C581   C     0.20095   0.82877   0.40726   0.00000  Uiso   1.00
C582   C     0.13239   0.82878   0.09274   0.00000  Uiso   1.00
C583   C     0.16427   0.83403   0.38368   0.00000  Uiso   1.00
C584   C     0.16907   0.83404   0.11632   0.00000  Uiso   1.00
C585   C     0.12776   0.84569   0.40530   0.00000  Uiso   1.00
C586   C     0.20558   0.84569   0.09470   0.00000  Uiso   1.00
C587   C     0.12786   0.84414   0.45278   0.00000  Uiso   1.00
C588   C     0.20547   0.84414   0.04722   0.00000  Uiso   1.00
C589   C     0.16603   0.84053   0.47648   0.00000  Uiso   1.00
C590   C     0.16730   0.84054   0.02352   0.00000  Uiso   1.00
C591   C     0.20307   0.83793   0.45310   0.00000  Uiso   1.00
C592   C     0.13026   0.83793   0.04690   0.00000  Uiso   1.00
C593   C     0.09163   0.84790   0.47737   0.00000  Uiso   1.00
C594   C     0.24170   0.84790   0.02263   0.00000  Uiso   1.00
Cu595  Cu    0.16667   0.88022   0.25000   0.00000  Uiso   1.00
Cu596  Cu    0.16667   0.78645   0.25000   0.00000  Uiso   1.00
H597   H     0.03715   0.75752   0.24982   0.00000  Uiso   1.00
H598   H     0.29623   0.90913   0.25088   0.00000  Uiso   1.00
H599   H     0.29618   0.75752   0.25016   0.00000  Uiso   1.00
H600   H     0.03710   0.90913   0.24914   0.00000  Uiso   1.00
H601   H     0.11948   0.71019   0.20069   0.00000  Uiso   1.00
H602   H     0.21384   0.95645   0.29933   0.00000  Uiso   1.00
H603   H     0.21386   0.71019   0.29931   0.00000  Uiso   1.00
H604   H     0.11949   0.95645   0.20067   0.00000  Uiso   1.00
N605   N     0.16667   0.95069   0.25000   0.00000  Uiso   1.00
N606   N     0.16667   0.71598   0.25000   0.00000  Uiso   1.00
O607   O     0.10655   0.87291   0.25000   0.00000  Uiso   1.00
O608   O     0.22679   0.79375   0.25001   0.00000  Uiso   1.00
O609   O     0.22679   0.87291   0.25001   0.00000  Uiso   1.00
O610   O     0.10655   0.79375   0.25000   0.00000  Uiso   1.00
O611   O     0.16666   0.87293   0.18513   0.00000  Uiso   1.00
O612   O     0.16668   0.79373   0.31487   0.00000  Uiso   1.00
O613   O     0.16668   0.87293   0.31487   0.00000  Uiso   1.00
O614   O     0.16666   0.79373   0.18513   0.00000  Uiso   1.00
F615   F     0.23452   0.81620   0.38422   0.00000  Uiso   1.00
F616   F     0.09881   0.81620   0.11578   0.00000  Uiso   1.00
C617   C     0.09198   0.86531   0.37723   0.00000  Uiso   1.00
C618   C     0.09061   0.91902   0.38170   0.00000  Uiso   1.00
C619   C     0.06882   0.94228   0.34202   0.00000  Uiso   1.00
H620   H     0.08772   0.93899   0.31193   0.00000  Uiso   1.00
H621   H     0.03861   0.92587   0.33523   0.00000  Uiso   1.00
H622   H     0.06429   0.98009   0.34903   0.00000  Uiso   1.00
H623   H     0.07518   0.92875   0.41287   0.00000  Uiso   1.00
H624   H     0.12225   0.93341   0.38378   0.00000  Uiso   1.00
H625   H     0.09479   0.85641   0.34164   0.00000  Uiso   1.00
H626   H     0.06231   0.84877   0.38444   0.00000  Uiso   1.00
C627   C     0.24136   0.86531   0.12277   0.00000  Uiso   1.00
C628   C     0.24273   0.91902   0.11830   0.00000  Uiso   1.00
C629   C     0.26452   0.94226   0.15798   0.00000  Uiso   1.00
H630   H     0.24562   0.93898   0.18807   0.00000  Uiso   1.00
H631   H     0.29473   0.92585   0.16479   0.00000  Uiso   1.00
H632   H     0.26906   0.98008   0.15098   0.00000  Uiso   1.00
H633   H     0.25817   0.92874   0.08713   0.00000  Uiso   1.00
H634   H     0.21109   0.93340   0.11622   0.00000  Uiso   1.00
H635   H     0.23854   0.85640   0.15836   0.00000  Uiso   1.00
H636   H     0.27102   0.84875   0.11556   0.00000  Uiso   1.00
F637   F     0.05465   0.85253   0.45673   0.00000  Uiso   1.00
F638   F     0.27869   0.85254   0.04327   0.00000  Uiso   1.00
C639   C     0.05347   0.85820   0.04830   0.00000  Uiso   1.00
C640   C     0.05846   0.90511   0.07298   0.00000  Uiso   1.00
C641   C     0.01900   0.91911   0.09530   0.00000  Uiso   1.00
H642   H     0.32802   0.92553   0.06968   0.00000  Uiso   1.00
H643   H     0.00927   0.89084   0.11813   0.00000  Uiso   1.00
H644   H     0.02395   0.95178   0.11474   0.00000  Uiso   1.00
H645   H     0.08308   0.90303   0.09890   0.00000  Uiso   1.00
H646   H     0.06685   0.93295   0.04895   0.00000  Uiso   1.00
H647   H     0.02709   0.86207   0.02492   0.00000  Uiso   1.00
H648   H     0.04400   0.82959   0.07073   0.00000  Uiso   1.00
C649   C     0.27986   0.85820   0.45170   0.00000  Uiso   1.00
C650   C     0.27487   0.90511   0.42702   0.00000  Uiso   1.00
C651   C     0.31432   0.91909   0.40467   0.00000  Uiso   1.00
H652   H     0.00532   0.92548   0.43026   0.00000  Uiso   1.00
H653   H     0.32402   0.89082   0.38181   0.00000  Uiso   1.00
H654   H     0.30937   0.95177   0.38524   0.00000  Uiso   1.00
H655   H     0.25023   0.90304   0.40112   0.00000  Uiso   1.00
H656   H     0.26651   0.93296   0.45105   0.00000  Uiso   1.00
H657   H     0.30624   0.86207   0.47508   0.00000  Uiso   1.00
H658   H     0.28933   0.82959   0.42927   0.00000  Uiso   1.00
C659   C     0.42065   0.83333   0.24964   0.00000  Uiso   1.00
C660   C     0.57935   0.83333   0.25036   0.00000  Uiso   1.00
C661   C     0.42581   0.84575   0.02401   0.00000  Uiso   1.00
C662   C     0.57419   0.84575   0.47599   0.00000  Uiso   1.00
C663   C     0.35456   0.79081   0.24987   0.00000  Uiso   1.00
C664   C     0.64546   0.87585   0.25039   0.00000  Uiso   1.00
C665   C     0.64544   0.79081   0.25012   0.00000  Uiso   1.00
C666   C     0.35454   0.87585   0.24962   0.00000  Uiso   1.00
C667   C     0.62397   0.83334   0.25036   0.00000  Uiso   1.00
C668   C     0.37603   0.83334   0.24964   0.00000  Uiso   1.00
C669   C     0.47380   0.69147   0.22262   0.00000  Uiso   1.00
C670   C     0.52620   0.97518   0.27739   0.00000  Uiso   1.00
C671   C     0.52620   0.69147   0.27738   0.00000  Uiso   1.00
C672   C     0.47380   0.97518   0.22261   0.00000  Uiso   1.00
C673   C     0.50028   0.83338   0.16452   0.00000  Uiso   1.00
C674   C     0.49972   0.83338   0.33548   0.00000  Uiso   1.00
C675   C     0.53428   0.82877   0.40726   0.00000  Uiso   1.00
C676   C     0.46572   0.82878   0.09274   0.00000  Uiso   1.00
C677   C     0.49760   0.83403   0.38368   0.00000  Uiso   1.00
C678   C     0.50240   0.83404   0.11632   0.00000  Uiso   1.00
C679   C     0.46109   0.84569   0.40530   0.00000  Uiso   1.00
C680   C     0.53891   0.84569   0.09470   0.00000  Uiso   1.00
C681   C     0.46119   0.84414   0.45278   0.00000  Uiso   1.00
C682   C     0.53881   0.84414   0.04722   0.00000  Uiso   1.00
C683   C     0.49936   0.84053   0.47648   0.00000  Uiso   1.00
C684   C     0.50064   0.84054   0.02352   0.00000  Uiso   1.00
C685   C     0.53641   0.83793   0.45310   0.00000  Uiso   1.00
C686   C     0.46359   0.83793   0.04690   0.00000  Uiso   1.00
C687   C     0.42496   0.84790   0.47737   0.00000  Uiso   1.00
C688   C     0.57504   0.84790   0.02263   0.00000  Uiso   1.00
Cu689  Cu    0.50000   0.88022   0.25000   0.00000  Uiso   1.00
Cu690  Cu    0.50000   0.78645   0.25000   0.00000  Uiso   1.00
H691   H     0.37048   0.75752   0.24982   0.00000  Uiso   1.00
H692   H     0.62957   0.90913   0.25088   0.00000  Uiso   1.00
H693   H     0.62952   0.75752   0.25016   0.00000  Uiso   1.00
H694   H     0.37043   0.90913   0.24914   0.00000  Uiso   1.00
H695   H     0.45281   0.71019   0.20069   0.00000  Uiso   1.00
H696   H     0.54717   0.95645   0.29933   0.00000  Uiso   1.00
H697   H     0.54719   0.71019   0.29931   0.00000  Uiso   1.00
H698   H     0.45283   0.95645   0.20067   0.00000  Uiso   1.00
N699   N     0.50000   0.95069   0.25000   0.00000  Uiso   1.00
N700   N     0.50000   0.71598   0.25000   0.00000  Uiso   1.00
O701   O     0.43988   0.87291   0.25000   0.00000  Uiso   1.00
O702   O     0.56012   0.79375   0.25001   0.00000  Uiso   1.00
O703   O     0.56012   0.87291   0.25001   0.00000  Uiso   1.00
O704   O     0.43988   0.79375   0.25000   0.00000  Uiso   1.00
O705   O     0.49999   0.87293   0.18513   0.00000  Uiso   1.00
O706   O     0.50001   0.79373   0.31487   0.00000  Uiso   1.00
O707   O     0.50001   0.87293   0.31487   0.00000  Uiso   1.00
O708   O     0.49999   0.79373   0.18513   0.00000  Uiso   1.00
F709   F     0.56786   0.81620   0.38422   0.00000  Uiso   1.00
F710   F     0.43214   0.81620   0.11578   0.00000  Uiso   1.00
C711   C     0.42531   0.86531   0.37723   0.00000  Uiso   1.00
C712   C     0.42395   0.91902   0.38170   0.00000  Uiso   1.00
C713   C     0.40215   0.94228   0.34202   0.00000  Uiso   1.00
H714   H     0.42105   0.93899   0.31193   0.00000  Uiso   1.00
H715   H     0.37194   0.92587   0.33523   0.00000  Uiso   1.00
H716   H     0.39762   0.98009   0.34903   0.00000  Uiso   1.00
H717   H     0.40851   0.92875   0.41287   0.00000  Uiso   1.00
H718   H     0.45559   0.93341   0.38378   0.00000  Uiso   1.00
H719   H     0.42813   0.85641   0.34164   0.00000  Uiso   1.00
H720   H     0.39565   0.84877   0.38444   0.00000  Uiso   1.00
C721   C     0.57469   0.86531   0.12277   0.00000  Uiso   1.00
C722   C     0.57606   0.91902   0.11830   0.00000  Uiso   1.00
C723   C     0.59786   0.94226   0.15798   0.00000  Uiso   1.00
H724   H     0.57895   0.93898   0.18807   0.00000  Uiso   1.00
H725   H     0.62806   0.92585   0.16479   0.00000  Uiso   1.00
H726   H     0.60240   0.98008   0.15098   0.00000  Uiso   1.00
H727   H     0.59151   0.92874   0.08713   0.00000  Uiso   1.00
H728   H     0.54443   0.93340   0.11622   0.00000  Uiso   1.00
H729   H     0.57187   0.85640   0.15836   0.00000  Uiso   1.00
H730   H     0.60435   0.84875   0.11556   0.00000  Uiso   1.00
F731   F     0.38798   0.85253   0.45673   0.00000  Uiso   1.00
F732   F     0.61202   0.85254   0.04327   0.00000  Uiso   1.00
C733   C     0.38681   0.85820   0.04830   0.00000  Uiso   1.00
C734   C     0.39179   0.90511   0.07298   0.00000  Uiso   1.00
C735   C     0.35234   0.91911   0.09530   0.00000  Uiso   1.00
H736   H     0.66136   0.92553   0.06968   0.00000  Uiso   1.00
H737   H     0.34260   0.89084   0.11813   0.00000  Uiso   1.00
H738   H     0.35728   0.95178   0.11474   0.00000  Uiso   1.00
H739   H     0.41642   0.90303   0.09890   0.00000  Uiso   1.00
H740   H     0.40018   0.93295   0.04895   0.00000  Uiso   1.00
H741   H     0.36043   0.86207   0.02492   0.00000  Uiso   1.00
H742   H     0.37733   0.82959   0.07073   0.00000  Uiso   1.00
C743   C     0.61319   0.85820   0.45170   0.00000  Uiso   1.00
C744   C     0.60821   0.90511   0.42702   0.00000  Uiso   1.00
C745   C     0.64765   0.91909   0.40467   0.00000  Uiso   1.00
H746   H     0.33865   0.92548   0.43026   0.00000  Uiso   1.00
H747   H     0.65735   0.89082   0.38181   0.00000  Uiso   1.00
H748   H     0.64271   0.95177   0.38524   0.00000  Uiso   1.00
H749   H     0.58356   0.90304   0.40112   0.00000  Uiso   1.00
H750   H     0.59985   0.93296   0.45105   0.00000  Uiso   1.00
H751   H     0.63957   0.86207   0.47508   0.00000  Uiso   1.00
H752   H     0.62267   0.82959   0.42927   0.00000  Uiso   1.00
C753   C     0.75398   0.83333   0.24964   0.00000  Uiso   1.00
C754   C     0.91268   0.83333   0.25036   0.00000  Uiso   1.00
C755   C     0.75915   0.84575   0.02401   0.00000  Uiso   1.00
C756   C     0.90752   0.84575   0.47599   0.00000  Uiso   1.00
C757   C     0.68789   0.79081   0.24987   0.00000  Uiso   1.00
C758   C     0.97879   0.87585   0.25039   0.00000  Uiso   1.00
C759   C     0.97877   0.79081   0.25012   0.00000  Uiso   1.00
C760   C     0.68788   0.87585   0.24962   0.00000  Uiso   1.00
C761   C     0.95731   0.83334   0.25036   0.00000  Uiso   1.00
C762   C     0.70936   0.83334   0.24964   0.00000  Uiso   1.00
C763   C     0.80713   0.69147   0.22262   0.00000  Uiso   1.00
C764   C     0.85953   0.97518   0.27739   0.00000  Uiso   1.00
C765   C     0.85954   0.69147   0.27738   0.00000  Uiso   1.00
C766   C     0.80714   0.97518   0.22261   0.00000  Uiso   1.00
C767   C     0.83362   0.83338   0.16452   0.00000  Uiso   1.00
C768   C     0.83305   0.83338   0.33548   0.00000  Uiso   1.00
C769   C     0.86761   0.82877   0.40726   0.00000  Uiso   1.00
C770   C     0.79905   0.82878   0.09274   0.00000  Uiso   1.00
C771   C     0.83093   0.83403   0.38368   0.00000  Uiso   1.00
C772   C     0.83573   0.83404   0.11632   0.00000  Uiso   1.00
C773   C     0.79442   0.84569   0.40530   0.00000  Uiso   1.00
C774   C     0.87224   0.84569   0.09470   0.00000  Uiso   1.00
C775   C     0.79453   0.84414   0.45278   0.00000  Uiso   1.00
C776   C     0.87214   0.84414   0.04722   0.00000  Uiso   1.00
C777   C     0.83270   0.84053   0.47648   0.00000  Uiso   1.00
C778   C     0.83397   0.84054   0.02352   0.00000  Uiso   1.00
C779   C     0.86974   0.83793   0.45310   0.00000  Uiso   1.00
C780   C     0.79693   0.83793   0.04690   0.00000  Uiso   1.00
C781   C     0.75830   0.84790   0.47737   0.00000  Uiso   1.00
C782   C     0.90837   0.84790   0.02263   0.00000  Uiso   1.00
Cu783  Cu    0.83333   0.88022   0.25000   0.00000  Uiso   1.00
Cu784  Cu    0.83333   0.78645   0.25000   0.00000  Uiso   1.00
H785   H     0.70382   0.75752   0.24982   0.00000  Uiso   1.00
H786   H     0.96290   0.90913   0.25088   0.00000  Uiso   1.00
H787   H     0.96285   0.75752   0.25016   0.00000  Uiso   1.00
H788   H     0.70377   0.90913   0.24914   0.00000  Uiso   1.00
H789   H     0.78614   0.71019   0.20069   0.00000  Uiso   1.00
H790   H     0.88051   0.95645   0.29933   0.00000  Uiso   1.00
H791   H     0.88052   0.71019   0.29931   0.00000  Uiso   1.00
H792   H     0.78616   0.95645   0.20067   0.00000  Uiso   1.00
N793   N     0.83333   0.95069   0.25000   0.00000  Uiso   1.00
N794   N     0.83333   0.71598   0.25000   0.00000  Uiso   1.00
O795   O     0.77321   0.87291   0.25000   0.00000  Uiso   1.00
O796   O     0.89345   0.79375   0.25001   0.00000  Uiso   1.00
O797   O     0.89345   0.87291   0.25001   0.00000  Uiso   1.00
O798   O     0.77321   0.79375   0.25000   0.00000  Uiso   1.00
O799   O     0.83332   0.87293   0.18513   0.00000  Uiso   1.00
O800   O     0.83334   0.79373   0.31487   0.00000  Uiso   1.00
O801   O     0.83334   0.87293   0.31487   0.00000  Uiso   1.00
O802   O     0.83332   0.79373   0.18513   0.00000  Uiso   1.00
F803   F     0.90119   0.81620   0.38422   0.00000  Uiso   1.00
F804   F     0.76548   0.81620   0.11578   0.00000  Uiso   1.00
C805   C     0.75864   0.86531   0.37723   0.00000  Uiso   1.00
C806   C     0.75728   0.91902   0.38170   0.00000  Uiso   1.00
C807   C     0.73549   0.94228   0.34202   0.00000  Uiso   1.00
H808   H     0.75439   0.93899   0.31193   0.00000  Uiso   1.00
H809   H     0.70527   0.92587   0.33523   0.00000  Uiso   1.00
H810   H     0.73096   0.98009   0.34903   0.00000  Uiso   1.00
H811   H     0.74184   0.92875   0.41287   0.00000  Uiso   1.00
H812   H     0.78892   0.93341   0.38378   0.00000  Uiso   1.00
H813   H     0.76146   0.85641   0.34164   0.00000  Uiso   1.00
H814   H     0.72898   0.84877   0.38444   0.00000  Uiso   1.00
C815   C     0.90803   0.86531   0.12277   0.00000  Uiso   1.00
C816   C     0.90940   0.91902   0.11830   0.00000  Uiso   1.00
C817   C     0.93119   0.94226   0.15798   0.00000  Uiso   1.00
H818   H     0.91228   0.93898   0.18807   0.00000  Uiso   1.00
H819   H     0.96140   0.92585   0.16479   0.00000  Uiso   1.00
H820   H     0.93573   0.98008   0.15098   0.00000  Uiso   1.00
H821   H     0.92484   0.92874   0.08713   0.00000  Uiso   1.00
H822   H     0.87776   0.93340   0.11622   0.00000  Uiso   1.00
H823   H     0.90521   0.85640   0.15836   0.00000  Uiso   1.00
H824   H     0.93769   0.84875   0.11556   0.00000  Uiso   1.00
F825   F     0.72131   0.85253   0.45673   0.00000  Uiso   1.00
F826   F     0.94535   0.85254   0.04327   0.00000  Uiso   1.00
C827   C     0.72014   0.85820   0.04830   0.00000  Uiso   1.00
C828   C     0.72512   0.90511   0.07298   0.00000  Uiso   1.00
C829   C     0.68567   0.91911   0.09530   0.00000  Uiso   1.00
H830   H     0.99469   0.92553   0.06968   0.00000  Uiso   1.00
H831   H     0.67594   0.89084   0.11813   0.00000  Uiso   1.00
H832   H     0.69061   0.95178   0.11474   0.00000  Uiso   1.00
H833   H     0.74975   0.90303   0.09890   0.00000  Uiso   1.00
H834   H     0.73351   0.93295   0.04895   0.00000  Uiso   1.00
H835   H     0.69376   0.86207   0.02492   0.00000  Uiso   1.00
H836   H     0.71067   0.82959   0.07073   0.00000  Uiso   1.00
C837   C     0.94653   0.85820   0.45170   0.00000  Uiso   1.00
C838   C     0.94154   0.90511   0.42702   0.00000  Uiso   1.00
C839   C     0.98098   0.91909   0.40467   0.00000  Uiso   1.00
H840   H     0.67199   0.92548   0.43026   0.00000  Uiso   1.00
H841   H     0.99068   0.89082   0.38181   0.00000  Uiso   1.00
H842   H     0.97604   0.95177   0.38524   0.00000  Uiso   1.00
H843   H     0.91690   0.90304   0.40112   0.00000  Uiso   1.00
H844   H     0.93318   0.93296   0.45105   0.00000  Uiso   1.00
H845   H     0.97291   0.86207   0.47508   0.00000  Uiso   1.00
H846   H     0.95600   0.82959   0.42927   0.00000  Uiso   1.00
C847   C     0.08732   0.16667   0.74964   0.00000  Uiso   1.00
C848   C     0.24602   0.16667   0.75036   0.00000  Uiso   1.00
C849   C     0.09248   0.17908   0.52401   0.00000  Uiso   1.00
C850   C     0.24085   0.17908   0.97599   0.00000  Uiso   1.00
C851   C     0.02123   0.12414   0.74987   0.00000  Uiso   1.00
C852   C     0.31212   0.20918   0.75039   0.00000  Uiso   1.00
C853   C     0.31211   0.12414   0.75012   0.00000  Uiso   1.00
C854   C     0.02121   0.20918   0.74962   0.00000  Uiso   1.00
C855   C     0.29064   0.16667   0.75036   0.00000  Uiso   1.00
C856   C     0.04269   0.16667   0.74964   0.00000  Uiso   1.00
C857   C     0.14046   0.02480   0.72262   0.00000  Uiso   1.00
C858   C     0.19286   0.30851   0.77739   0.00000  Uiso   1.00
C859   C     0.19287   0.02480   0.77738   0.00000  Uiso   1.00
C860   C     0.14047   0.30851   0.72261   0.00000  Uiso   1.00
C861   C     0.16695   0.16671   0.66452   0.00000  Uiso   1.00
C862   C     0.16638   0.16671   0.83548   0.00000  Uiso   1.00
C863   C     0.20095   0.16211   0.90726   0.00000  Uiso   1.00
C864   C     0.13239   0.16211   0.59274   0.00000  Uiso   1.00
C865   C     0.16427   0.16737   0.88368   0.00000  Uiso   1.00
C866   C     0.16907   0.16737   0.61632   0.00000  Uiso   1.00
C867   C     0.12776   0.17903   0.90530   0.00000  Uiso   1.00
C868   C     0.20558   0.17903   0.59470   0.00000  Uiso   1.00
C869   C     0.12786   0.17747   0.95278   0.00000  Uiso   1.00
C870   C     0.20547   0.17747   0.54722   0.00000  Uiso   1.00
C871   C     0.16603   0.17387   0.97648   0.00000  Uiso   1.00
C872   C     0.16730   0.17387   0.52352   0.00000  Uiso   1.00
C873   C     0.20307   0.17126   0.95310   0.00000  Uiso   1.00
C874   C     0.13026   0.17126   0.54690   0.00000  Uiso   1.00
C875   C     0.09163   0.18123   0.97737   0.00000  Uiso   1.00
C876   C     0.24170   0.18124   0.52263   0.00000  Uiso   1.00
Cu877  Cu    0.16667   0.21355   0.75000   0.00000  Uiso   1.00
Cu878  Cu    0.16667   0.11978   0.75000   0.00000  Uiso   1.00
H879   H     0.03715   0.09085   0.74982   0.00000  Uiso   1.00
H880   H     0.29623   0.24247   0.75088   0.00000  Uiso   1.00
H881   H     0.29618   0.09085   0.75016   0.00000  Uiso   1.00
H882   H     0.03710   0.24247   0.74914   0.00000  Uiso   1.00
H883   H     0.11948   0.04352   0.70069   0.00000  Uiso   1.00
H884   H     0.21384   0.28978   0.79933   0.00000  Uiso   1.00
H885   H     0.21386   0.04352   0.79931   0.00000  Uiso   1.00
H886   H     0.11949   0.28978   0.70067   0.00000  Uiso   1.00
N887   N     0.16667   0.28402   0.75000   0.00000  Uiso   1.00
N888   N     0.16667   0.04931   0.75000   0.00000  Uiso   1.00
O889   O     0.10655   0.20625   0.75000   0.00000  Uiso   1.00
O890   O     0.22679   0.12709   0.75001   0.00000  Uiso   1.00
O891   O     0.22679   0.20625   0.75001   0.00000  Uiso   1.00
O892   O     0.10655   0.12709   0.75000   0.00000  Uiso   1.00
O893   O     0.16666   0.20627   0.68513   0.00000  Uiso   1.00
O894   O     0.16668   0.12707   0.81487   0.00000  Uiso   1.00
O895   O     0.16668   0.20627   0.81487   0.00000  Uiso   1.00
O896   O     0.16666   0.12707   0.68513   0.00000  Uiso   1.00
F897   F     0.23452   0.14954   0.88422   0.00000  Uiso   1.00
F898   F     0.09881   0.14954   0.61578   0.00000  Uiso   1.00
C899   C     0.09198   0.19865   0.87723   0.00000  Uiso   1.00
C900   C     0.09061   0.25236   0.88170   0.00000  Uiso   1.00
C901   C     0.06882   0.27561   0.84202   0.00000  Uiso   1.00
H902   H     0.08772   0.27232   0.81193   0.00000  Uiso   1.00
H903   H     0.03861   0.25921   0.83523   0.00000  Uiso   1.00
H904   H     0.06429   0.31343   0.84903   0.00000  Uiso   1.00
H905   H     0.07518   0.26208   0.91287   0.00000  Uiso   1.00
H906   H     0.12225   0.26674   0.88378   0.00000  Uiso   1.00
H907   H     0.09479   0.18975   0.84164   0.00000  Uiso   1.00
H908   H     0.06231   0.18210   0.88444   0.00000  Uiso   1.00
C909   C     0.24136   0.19864   0.62277   0.00000  Uiso   1.00
C910   C     0.24273   0.25235   0.61830   0.00000  Uiso   1.00
C911   C     0.26452   0.27560   0.65798   0.00000  Uiso   1.00
H912   H     0.24562   0.27231   0.68807   0.00000  Uiso   1.00
H913   H     0.29473   0.25919   0.66479   0.00000  Uiso   1.00
H914   H     0.26906   0.31341   0.65098   0.00000  Uiso   1.00
H915   H     0.25817   0.26207   0.58713   0.00000  Uiso   1.00
H916   H     0.21109   0.26674   0.61622   0.00000  Uiso   1.00
H917   H     0.23854   0.18974   0.65836   0.00000  Uiso   1.00
H918   H     0.27102   0.18209   0.61556   0.00000  Uiso   1.00
F919   F     0.05465   0.18586   0.95673   0.00000  Uiso   1.00
F920   F     0.27869   0.18587   0.54327   0.00000  Uiso   1.00
C921   C     0.05347   0.19153   0.54830   0.00000  Uiso   1.00
C922   C     0.05846   0.23844   0.57298   0.00000  Uiso   1.00
C923   C     0.01900   0.25244   0.59530   0.00000  Uiso   1.00
H924   H     0.32802   0.25886   0.56968   0.00000  Uiso   1.00
H925   H     0.00927   0.22417   0.61813   0.00000  Uiso   1.00
H926   H     0.02395   0.28512   0.61474   0.00000  Uiso   1.00
H927   H     0.08308   0.23637   0.59890   0.00000  Uiso   1.00
H928   H     0.06685   0.26629   0.54895   0.00000  Uiso   1.00
H929   H     0.02709   0.19540   0.52492   0.00000  Uiso   1.00
H930   H     0.04400   0.16293   0.57073   0.00000  Uiso   1.00
C931   C     0.27986   0.19153   0.95170   0.00000  Uiso   1.00
C932   C     0.27487   0.23844   0.92702   0.00000  Uiso   1.00
C933   C     0.31432   0.25242   0.90467   0.00000  Uiso   1.00
H934   H     0.00532   0.25881   0.93026   0.00000  Uiso   1.00
H935   H     0.32402   0.22415   0.88181   0.00000  Uiso   1.00
H936   H     0.30937   0.28511   0.88524   0.00000  Uiso   1.00
H937   H     0.25023   0.23638   0.90112   0.00000  Uiso   1.00
H938   H     0.26651   0.26629   0.95105   0.00000  Uiso   1.00
H939   H     0.30624   0.19541   0.97508   0.00000  Uiso   1.00
H940   H     0.28933   0.16293   0.92927   0.00000  Uiso   1.00
C941   C     0.42065   0.16667   0.74964   0.00000  Uiso   1.00
C942   C     0.57935   0.16667   0.75036   0.00000  Uiso   1.00
C943   C     0.42581   0.17908   0.52401   0.00000  Uiso   1.00
C944   C     0.57419   0.17908   0.97599   0.00000  Uiso   1.00
C945   C     0.35456   0.12414   0.74987   0.00000  Uiso   1.00
C946   C     0.64546   0.20918   0.75039   0.00000  Uiso   1.00
C947   C     0.64544   0.12414   0.75012   0.00000  Uiso   1.00
C948   C     0.35454   0.20918   0.74962   0.00000  Uiso   1.00
C949   C     0.62397   0.16667   0.75036   0.00000  Uiso   1.00
C950   C     0.37603   0.16667   0.74964   0.00000  Uiso   1.00
C951   C     0.47380   0.02480   0.72262   0.00000  Uiso   1.00
C952   C     0.52620   0.30851   0.77739   0.00000  Uiso   1.00
C953   C     0.52620   0.02480   0.77738   0.00000  Uiso   1.00
C954   C     0.47380   0.30851   0.72261   0.00000  Uiso   1.00
C955   C     0.50028   0.16671   0.66452   0.00000  Uiso   1.00
C956   C     0.49972   0.16671   0.83548   0.00000  Uiso   1.00
C957   C     0.53428   0.16211   0.90726   0.00000  Uiso   1.00
C958   C     0.46572   0.16211   0.59274   0.00000  Uiso   1.00
C959   C     0.49760   0.16737   0.88368   0.00000  Uiso   1.00
C960   C     0.50240   0.16737   0.61632   0.00000  Uiso   1.00
C961   C     0.46109   0.17903   0.90530   0.00000  Uiso   1.00
C962   C     0.53891   0.17903   0.59470   0.00000  Uiso   1.00
C963   C     0.46119   0.17747   0.95278   0.00000  Uiso   1.00
C964   C     0.53881   0.17747   0.54722   0.00000  Uiso   1.00
C965   C     0.49936   0.17387   0.97648   0.00000  Uiso   1.00
C966   C     0.50064   0.17387   0.52352   0.00000  Uiso   1.00
C967   C     0.53641   0.17126   0.95310   0.00000  Uiso   1.00
C968   C     0.46359   0.17126   0.54690   0.00000  Uiso   1.00
C969   C     0.42496   0.18123   0.97737   0.00000  Uiso   1.00
C970   C     0.57504   0.18124   0.52263   0.00000  Uiso   1.00
Cu971  Cu    0.50000   0.21355   0.75000   0.00000  Uiso   1.00
Cu972  Cu    0.50000   0.11978   0.75000   0.00000  Uiso   1.00
H973   H     0.37048   0.09085   0.74982   0.00000  Uiso   1.00
H974   H     0.62957   0.24247   0.75088   0.00000  Uiso   1.00
H975   H     0.62952   0.09085   0.75016   0.00000  Uiso   1.00
H976   H     0.37043   0.24247   0.74914   0.00000  Uiso   1.00
H977   H     0.45281   0.04352   0.70069   0.00000  Uiso   1.00
H978   H     0.54717   0.28978   0.79933   0.00000  Uiso   1.00
H979   H     0.54719   0.04352   0.79931   0.00000  Uiso   1.00
H980   H     0.45283   0.28978   0.70067   0.00000  Uiso   1.00
N981   N     0.50000   0.28402   0.75000   0.00000  Uiso   1.00
N982   N     0.50000   0.04931   0.75000   0.00000  Uiso   1.00
O983   O     0.43988   0.20625   0.75000   0.00000  Uiso   1.00
O984   O     0.56012   0.12709   0.75001   0.00000  Uiso   1.00
O985   O     0.56012   0.20625   0.75001   0.00000  Uiso   1.00
O986   O     0.43988   0.12709   0.75000   0.00000  Uiso   1.00
O987   O     0.49999   0.20627   0.68513   0.00000  Uiso   1.00
O988   O     0.50001   0.12707   0.81487   0.00000  Uiso   1.00
O989   O     0.50001   0.20627   0.81487   0.00000  Uiso   1.00
O990   O     0.49999   0.12707   0.68513   0.00000  Uiso   1.00
F991   F     0.56786   0.14954   0.88422   0.00000  Uiso   1.00
F992   F     0.43214   0.14954   0.61578   0.00000  Uiso   1.00
C993   C     0.42531   0.19865   0.87723   0.00000  Uiso   1.00
C994   C     0.42395   0.25236   0.88170   0.00000  Uiso   1.00
C995   C     0.40215   0.27561   0.84202   0.00000  Uiso   1.00
H996   H     0.42105   0.27232   0.81193   0.00000  Uiso   1.00
H997   H     0.37194   0.25921   0.83523   0.00000  Uiso   1.00
H998   H     0.39762   0.31343   0.84903   0.00000  Uiso   1.00
H999   H     0.40851   0.26208   0.91287   0.00000  Uiso   1.00
H1000  H     0.45559   0.26674   0.88378   0.00000  Uiso   1.00
H1001  H     0.42813   0.18975   0.84164   0.00000  Uiso   1.00
H1002  H     0.39565   0.18210   0.88444   0.00000  Uiso   1.00
C1003  C     0.57469   0.19864   0.62277   0.00000  Uiso   1.00
C1004  C     0.57606   0.25235   0.61830   0.00000  Uiso   1.00
C1005  C     0.59786   0.27560   0.65798   0.00000  Uiso   1.00
H1006  H     0.57895   0.27231   0.68807   0.00000  Uiso   1.00
H1007  H     0.62806   0.25919   0.66479   0.00000  Uiso   1.00
H1008  H     0.60240   0.31341   0.65098   0.00000  Uiso   1.00
H1009  H     0.59151   0.26207   0.58713   0.00000  Uiso   1.00
H1010  H     0.54443   0.26674   0.61622   0.00000  Uiso   1.00
H1011  H     0.57187   0.18974   0.65836   0.00000  Uiso   1.00
H1012  H     0.60435   0.18209   0.61556   0.00000  Uiso   1.00
F1013  F     0.38798   0.18586   0.95673   0.00000  Uiso   1.00
F1014  F     0.61202   0.18587   0.54327   0.00000  Uiso   1.00
C1015  C     0.38681   0.19153   0.54830   0.00000  Uiso   1.00
C1016  C     0.39179   0.23844   0.57298   0.00000  Uiso   1.00
C1017  C     0.35234   0.25244   0.59530   0.00000  Uiso   1.00
H1018  H     0.66136   0.25886   0.56968   0.00000  Uiso   1.00
H1019  H     0.34260   0.22417   0.61813   0.00000  Uiso   1.00
H1020  H     0.35728   0.28512   0.61474   0.00000  Uiso   1.00
H1021  H     0.41642   0.23637   0.59890   0.00000  Uiso   1.00
H1022  H     0.40018   0.26629   0.54895   0.00000  Uiso   1.00
H1023  H     0.36043   0.19540   0.52492   0.00000  Uiso   1.00
H1024  H     0.37733   0.16293   0.57073   0.00000  Uiso   1.00
C1025  C     0.61319   0.19153   0.95170   0.00000  Uiso   1.00
C1026  C     0.60821   0.23844   0.92702   0.00000  Uiso   1.00
C1027  C     0.64765   0.25242   0.90467   0.00000  Uiso   1.00
H1028  H     0.33865   0.25881   0.93026   0.00000  Uiso   1.00
H1029  H     0.65735   0.22415   0.88181   0.00000  Uiso   1.00
H1030  H     0.64271   0.28511   0.88524   0.00000  Uiso   1.00
H1031  H     0.58356   0.23638   0.90112   0.00000  Uiso   1.00
H1032  H     0.59985   0.26629   0.95105   0.00000  Uiso   1.00
H1033  H     0.63957   0.19541   0.97508   0.00000  Uiso   1.00
H1034  H     0.62267   0.16293   0.92927   0.00000  Uiso   1.00
C1035  C     0.75398   0.16667   0.74964   0.00000  Uiso   1.00
C1036  C     0.91268   0.16667   0.75036   0.00000  Uiso   1.00
C1037  C     0.75915   0.17908   0.52401   0.00000  Uiso   1.00
C1038  C     0.90752   0.17908   0.97599   0.00000  Uiso   1.00
C1039  C     0.68789   0.12414   0.74987   0.00000  Uiso   1.00
C1040  C     0.97879   0.20918   0.75039   0.00000  Uiso   1.00
C1041  C     0.97877   0.12414   0.75012   0.00000  Uiso   1.00
C1042  C     0.68788   0.20918   0.74962   0.00000  Uiso   1.00
C1043  C     0.95731   0.16667   0.75036   0.00000  Uiso   1.00
C1044  C     0.70936   0.16667   0.74964   0.00000  Uiso   1.00
C1045  C     0.80713   0.02480   0.72262   0.00000  Uiso   1.00
C1046  C     0.85953   0.30851   0.77739   0.00000  Uiso   1.00
C1047  C     0.85954   0.02480   0.77738   0.00000  Uiso   1.00
C1048  C     0.80714   0.30851   0.72261   0.00000  Uiso   1.00
C1049  C     0.83362   0.16671   0.66452   0.00000  Uiso   1.00
C1050  C     0.83305   0.16671   0.83548   0.00000  Uiso   1.00
C1051  C     0.86761   0.16211   0.90726   0.00000  Uiso   1.00
C1052  C     0.79905   0.16211   0.59274   0.00000  Uiso   1.00
C1053  C     0.83093   0.16737   0.88368   0.00000  Uiso   1.00
C1054  C     0.83573   0.16737   0.61632   0.00000  Uiso   1.00
C1055  C     0.79442   0.17903   0.90530   0.00000  Uiso   1.00
C1056  C     0.87224   0.17903   0.59470   0.00000  Uiso   1.00
C1057  C     0.79453   0.17747   0.95278   0.00000  Uiso   1.00
C1058  C     0.87214   0.17747   0.54722   0.00000  Uiso   1.00
C1059  C     0.83270   0.17387   0.97648   0.00000  Uiso   1.00
C1060  C     0.83397   0.17387   0.52352   0.00000  Uiso   1.00
C1061  C     0.86974   0.17126   0.95310   0.00000  Uiso   1.00
C1062  C     0.79693   0.17126   0.54690   0.00000  Uiso   1.00
C1063  C     0.75830   0.18123   0.97737   0.00000  Uiso   1.00
C1064  C     0.90837   0.18124   0.52263   0.00000  Uiso   1.00
Cu1065 Cu    0.83333   0.21355   0.75000   0.00000  Uiso   1.00
Cu1066 Cu    0.83333   0.11978   0.75000   0.00000  Uiso   1.00
H1067  H     0.70382   0.09085   0.74982   0.00000  Uiso   1.00
H1068  H     0.96290   0.24247   0.75088   0.00000  Uiso   1.00
H1069  H     0.96285   0.09085   0.75016   0.00000  Uiso   1.00
H1070  H     0.70377   0.24247   0.74914   0.00000  Uiso   1.00
H1071  H     0.78614   0.04352   0.70069   0.00000  Uiso   1.00
H1072  H     0.88051   0.28978   0.79933   0.00000  Uiso   1.00
H1073  H     0.88052   0.04352   0.79931   0.00000  Uiso   1.00
H1074  H     0.78616   0.28978   0.70067   0.00000  Uiso   1.00
N1075  N     0.83333   0.28402   0.75000   0.00000  Uiso   1.00
N1076  N     0.83333   0.04931   0.75000   0.00000  Uiso   1.00
O1077  O     0.77321   0.20625   0.75000   0.00000  Uiso   1.00
O1078  O     0.89345   0.12709   0.75001   0.00000  Uiso   1.00
O1079  O     0.89345   0.20625   0.75001   0.00000  Uiso   1.00
O1080  O     0.77321   0.12709   0.75000   0.00000  Uiso   1.00
O1081  O     0.83332   0.20627   0.68513   0.00000  Uiso   1.00
O1082  O     0.83334   0.12707   0.81487   0.00000  Uiso   1.00
O1083  O     0.83334   0.20627   0.81487   0.00000  Uiso   1.00
O1084  O     0.83332   0.12707   0.68513   0.00000  Uiso   1.00
F1085  F     0.90119   0.14954   0.88422   0.00000  Uiso   1.00
F1086  F     0.76548   0.14954   0.61578   0.00000  Uiso   1.00
C1087  C     0.75864   0.19865   0.87723   0.00000  Uiso   1.00
C1088  C     0.75728   0.25236   0.88170   0.00000  Uiso   1.00
C1089  C     0.73549   0.27561   0.84202   0.00000  Uiso   1.00
H1090  H     0.75439   0.27232   0.81193   0.00000  Uiso   1.00
H1091  H     0.70527   0.25921   0.83523   0.00000  Uiso   1.00
H1092  H     0.73096   0.31343   0.84903   0.00000  Uiso   1.00
H1093  H     0.74184   0.26208   0.91287   0.00000  Uiso   1.00
H1094  H     0.78892   0.26674   0.88378   0.00000  Uiso   1.00
H1095  H     0.76146   0.18975   0.84164   0.00000  Uiso   1.00
H1096  H     0.72898   0.18210   0.88444   0.00000  Uiso   1.00
C1097  C     0.90803   0.19864   0.62277   0.00000  Uiso   1.00
C1098  C     0.90940   0.25235   0.61830   0.00000  Uiso   1.00
C1099  C     0.93119   0.27560   0.65798   0.00000  Uiso   1.00
H1100  H     0.91228   0.27231   0.68807   0.00000  Uiso   1.00
H1101  H     0.96140   0.25919   0.66479   0.00000  Uiso   1.00
H1102  H     0.93573   0.31341   0.65098   0.00000  Uiso   1.00
H1103  H     0.92484   0.26207   0.58713   0.00000  Uiso   1.00
H1104  H     0.87776   0.26674   0.61622   0.00000  Uiso   1.00
H1105  H     0.90521   0.18974   0.65836   0.00000  Uiso   1.00
H1106  H     0.93769   0.18209   0.61556   0.00000  Uiso   1.00
F1107  F     0.72131   0.18586   0.95673   0.00000  Uiso   1.00
F1108  F     0.94535   0.18587   0.54327   0.00000  Uiso   1.00
C1109  C     0.72014   0.19153   0.54830   0.00000  Uiso   1.00
C1110  C     0.72512   0.23844   0.57298   0.00000  Uiso   1.00
C1111  C     0.68567   0.25244   0.59530   0.00000  Uiso   1.00
H1112  H     0.99469   0.25886   0.56968   0.00000  Uiso   1.00
H1113  H     0.67594   0.22417   0.61813   0.00000  Uiso   1.00
H1114  H     0.69061   0.28512   0.61474   0.00000  Uiso   1.00
H1115  H     0.74975   0.23637   0.59890   0.00000  Uiso   1.00
H1116  H     0.73351   0.26629   0.54895   0.00000  Uiso   1.00
H1117  H     0.69376   0.19540   0.52492   0.00000  Uiso   1.00
H1118  H     0.71067   0.16293   0.57073   0.00000  Uiso   1.00
C1119  C     0.94653   0.19153   0.95170   0.00000  Uiso   1.00
C1120  C     0.94154   0.23844   0.92702   0.00000  Uiso   1.00
C1121  C     0.98098   0.25242   0.90467   0.00000  Uiso   1.00
H1122  H     0.67199   0.25881   0.93026   0.00000  Uiso   1.00
H1123  H     0.99068   0.22415   0.88181   0.00000  Uiso   1.00
H1124  H     0.97604   0.28511   0.88524   0.00000  Uiso   1.00
H1125  H     0.91690   0.23638   0.90112   0.00000  Uiso   1.00
H1126  H     0.93318   0.26629   0.95105   0.00000  Uiso   1.00
H1127  H     0.97291   0.19541   0.97508   0.00000  Uiso   1.00
H1128  H     0.95600   0.16293   0.92927   0.00000  Uiso   1.00
C1129  C     0.08732   0.50000   0.74964   0.00000  Uiso   1.00
C1130  C     0.24602   0.50000   0.75036   0.00000  Uiso   1.00
C1131  C     0.09248   0.51241   0.52401   0.00000  Uiso   1.00
C1132  C     0.24085   0.51241   0.97599   0.00000  Uiso   1.00
C1133  C     0.02123   0.45747   0.74987   0.00000  Uiso   1.00
C1134  C     0.31212   0.54252   0.75039   0.00000  Uiso   1.00
C1135  C     0.31211   0.45747   0.75012   0.00000  Uiso   1.00
C1136  C     0.02121   0.54252   0.74962   0.00000  Uiso   1.00
C1137  C     0.29064   0.50000   0.75036   0.00000  Uiso   1.00
C1138  C     0.04269   0.50000   0.74964   0.00000  Uiso   1.00
C1139  C     0.14046   0.35814   0.72262   0.00000  Uiso   1.00
C1140  C     0.19286   0.64184   0.77739   0.00000  Uiso   1.00
C1141  C     0.19287   0.35814   0.77738   0.00000  Uiso   1.00
C1142  C     0.14047   0.64184   0.72261   0.00000  Uiso   1.00
C1143  C     0.16695   0.50005   0.66452   0.00000  Uiso   1.00
C1144  C     0.16638   0.50005   0.83548   0.00000  Uiso   1.00
C1145  C     0.20095   0.49544   0.90726   0.00000  Uiso   1.00
C1146  C     0.13239   0.49544   0.59274   0.00000  Uiso   1.00
C1147  C     0.16427   0.50070   0.88368   0.00000  Uiso   1.00
C1148  C     0.16907   0.50070   0.61632   0.00000  Uiso   1.00
C1149  C     0.12776   0.51236   0.90530   0.00000  Uiso   1.00
C1150  C     0.20558   0.51236   0.59470   0.00000  Uiso   1.00
C1151  C     0.12786   0.51080   0.95278   0.00000  Uiso   1.00
C1152  C     0.20547   0.51080   0.54722   0.00000  Uiso   1.00
C1153  C     0.16603   0.50720   0.97648   0.00000  Uiso   1.00
C1154  C     0.16730   0.50720   0.52352   0.00000  Uiso   1.00
C1155  C     0.20307   0.50459   0.95310   0.00000  Uiso   1.00
C1156  C     0.13026   0.50460   0.54690   0.00000  Uiso   1.00
C1157  C     0.09163   0.51457   0.97737   0.00000  Uiso   1.00
C1158  C     0.24170   0.51457   0.52263   0.00000  Uiso   1.00
Cu1159 Cu    0.16667   0.54689   0.75000   0.00000  Uiso   1.00
Cu1160 Cu    0.16667   0.45311   0.75000   0.00000  Uiso   1.00
H1161  H     0.03715   0.42419   0.74982   0.00000  Uiso   1.00
H1162  H     0.29623   0.57580   0.75088   0.00000  Uiso   1.00
H1163  H     0.29618   0.42419   0.75016   0.00000  Uiso   1.00
H1164  H     0.03710   0.57580   0.74914   0.00000  Uiso   1.00
H1165  H     0.11948   0.37685   0.70069   0.00000  Uiso   1.00
H1166  H     0.21384   0.62311   0.79933   0.00000  Uiso   1.00
H1167  H     0.21386   0.37685   0.79931   0.00000  Uiso   1.00
H1168  H     0.11949   0.62311   0.70067   0.00000  Uiso   1.00
N1169  N     0.16667   0.61736   0.75000   0.00000  Uiso   1.00
N1170  N     0.16667   0.38264   0.75000   0.00000  Uiso   1.00
O1171  O     0.10655   0.53958   0.75000   0.00000  Uiso   1.00
O1172  O     0.22679   0.46042   0.75001   0.00000  Uiso   1.00
O1173  O     0.22679   0.53958   0.75001   0.00000  Uiso   1.00
O1174  O     0.10655   0.46042   0.75000   0.00000  Uiso   1.00
O1175  O     0.16666   0.53960   0.68513   0.00000  Uiso   1.00
O1176  O     0.16668   0.46040   0.81487   0.00000  Uiso   1.00
O1177  O     0.16668   0.53960   0.81487   0.00000  Uiso   1.00
O1178  O     0.16666   0.46040   0.68513   0.00000  Uiso   1.00
F1179  F     0.23452   0.48287   0.88422   0.00000  Uiso   1.00
F1180  F     0.09881   0.48287   0.61578   0.00000  Uiso   1.00
C1181  C     0.09198   0.53198   0.87723   0.00000  Uiso   1.00
C1182  C     0.09061   0.58569   0.88170   0.00000  Uiso   1.00
C1183  C     0.06882   0.60894   0.84202   0.00000  Uiso   1.00
H1184  H     0.08772   0.60566   0.81193   0.00000  Uiso   1.00
H1185  H     0.03861   0.59254   0.83523   0.00000  Uiso   1.00
H1186  H     0.06429   0.64676   0.84903   0.00000  Uiso   1.00
H1187  H     0.07518   0.59542   0.91287   0.00000  Uiso   1.00
H1188  H     0.12225   0.60007   0.88378   0.00000  Uiso   1.00
H1189  H     0.09479   0.52308   0.84164   0.00000  Uiso   1.00
H1190  H     0.06231   0.51543   0.88444   0.00000  Uiso   1.00
C1191  C     0.24136   0.53197   0.62277   0.00000  Uiso   1.00
C1192  C     0.24273   0.58568   0.61830   0.00000  Uiso   1.00
C1193  C     0.26452   0.60893   0.65798   0.00000  Uiso   1.00
H1194  H     0.24562   0.60565   0.68807   0.00000  Uiso   1.00
H1195  H     0.29473   0.59252   0.66479   0.00000  Uiso   1.00
H1196  H     0.26906   0.64675   0.65098   0.00000  Uiso   1.00
H1197  H     0.25817   0.59541   0.58713   0.00000  Uiso   1.00
H1198  H     0.21109   0.60007   0.61622   0.00000  Uiso   1.00
H1199  H     0.23854   0.52307   0.65836   0.00000  Uiso   1.00
H1200  H     0.27102   0.51542   0.61556   0.00000  Uiso   1.00
F1201  F     0.05465   0.51919   0.95673   0.00000  Uiso   1.00
F1202  F     0.27869   0.51920   0.54327   0.00000  Uiso   1.00
C1203  C     0.05347   0.52486   0.54830   0.00000  Uiso   1.00
C1204  C     0.05846   0.57177   0.57298   0.00000  Uiso   1.00
C1205  C     0.01900   0.58578   0.59530   0.00000  Uiso   1.00
H1206  H     0.32802   0.59219   0.56968   0.00000  Uiso   1.00
H1207  H     0.00927   0.55750   0.61813   0.00000  Uiso   1.00
H1208  H     0.02395   0.61845   0.61474   0.00000  Uiso   1.00
H1209  H     0.08308   0.56970   0.59890   0.00000  Uiso   1.00
H1210  H     0.06685   0.59962   0.54895   0.00000  Uiso   1.00
H1211  H     0.02709   0.52874   0.52492   0.00000  Uiso   1.00
H1212  H     0.04400   0.49626   0.57073   0.00000  Uiso   1.00
C1213  C     0.27986   0.52486   0.95170   0.00000  Uiso   1.00
C1214  C     0.27487   0.57177   0.92702   0.00000  Uiso   1.00
C1215  C     0.31432   0.58576   0.90467   0.00000  Uiso   1.00
H1216  H     0.00532   0.59215   0.93026   0.00000  Uiso   1.00
H1217  H     0.32402   0.55749   0.88181   0.00000  Uiso   1.00
H1218  H     0.30937   0.61844   0.88524   0.00000  Uiso   1.00
H1219  H     0.25023   0.56971   0.90112   0.00000  Uiso   1.00
H1220  H     0.26651   0.59963   0.95105   0.00000  Uiso   1.00
H1221  H     0.30624   0.52874   0.97508   0.00000  Uiso   1.00
H1222  H     0.28933   0.49626   0.92927   0.00000  Uiso   1.00
C1223  C     0.42065   0.50000   0.74964   0.00000  Uiso   1.00
C1224  C     0.57935   0.50000   0.75036   0.00000  Uiso   1.00
C1225  C     0.42581   0.51241   0.52401   0.00000  Uiso   1.00
C1226  C     0.57419   0.51241   0.97599   0.00000  Uiso   1.00
C1227  C     0.35456   0.45747   0.74987   0.00000  Uiso   1.00
C1228  C     0.64546   0.54252   0.75039   0.00000  Uiso   1.00
C1229  C     0.64544   0.45747   0.75012   0.00000  Uiso   1.00
C1230  C     0.35454   0.54252   0.74962   0.00000  Uiso   1.00
C1231  C     0.62397   0.50000   0.75036   0.00000  Uiso   1.00
C1232  C     0.37603   0.50000   0.74964   0.00000  Uiso   1.00
C1233  C     0.47380   0.35814   0.72262   0.00000  Uiso   1.00
C1234  C     0.52620   0.64184   0.77739   0.00000  Uiso   1.00
C1235  C     0.52620   0.35814   0.77738   0.00000  Uiso   1.00
C1236  C     0.47380   0.64184   0.72261   0.00000  Uiso   1.00
C1237  C     0.50028   0.50005   0.66452   0.00000  Uiso   1.00
C1238  C     0.49972   0.50005   0.83548   0.00000  Uiso   1.00
C1239  C     0.53428   0.49544   0.90726   0.00000  Uiso   1.00
C1240  C     0.46572   0.49544   0.59274   0.00000  Uiso   1.00
C1241  C     0.49760   0.50070   0.88368   0.00000  Uiso   1.00
C1242  C     0.50240   0.50070   0.61632   0.00000  Uiso   1.00
C1243  C     0.46109   0.51236   0.90530   0.00000  Uiso   1.00
C1244  C     0.53891   0.51236   0.59470   0.00000  Uiso   1.00
C1245  C     0.46119   0.51080   0.95278   0.00000  Uiso   1.00
C1246  C     0.53881   0.51080   0.54722   0.00000  Uiso   1.00
C1247  C     0.49936   0.50720   0.97648   0.00000  Uiso   1.00
C1248  C     0.50064   0.50720   0.52352   0.00000  Uiso   1.00
C1249  C     0.53641   0.50459   0.95310   0.00000  Uiso   1.00
C1250  C     0.46359   0.50460   0.54690   0.00000  Uiso   1.00
C1251  C     0.42496   0.51457   0.97737   0.00000  Uiso   1.00
C1252  C     0.57504   0.51457   0.52263   0.00000  Uiso   1.00
Cu1253 Cu    0.50000   0.54689   0.75000   0.00000  Uiso   1.00
Cu1254 Cu    0.50000   0.45311   0.75000   0.00000  Uiso   1.00
H1255  H     0.37048   0.42419   0.74982   0.00000  Uiso   1.00
H1256  H     0.62957   0.57580   0.75088   0.00000  Uiso   1.00
H1257  H     0.62952   0.42419   0.75016   0.00000  Uiso   1.00
H1258  H     0.37043   0.57580   0.74914   0.00000  Uiso   1.00
H1259  H     0.45281   0.37685   0.70069   0.00000  Uiso   1.00
H1260  H     0.54717   0.62311   0.79933   0.00000  Uiso   1.00
H1261  H     0.54719   0.37685   0.79931   0.00000  Uiso   1.00
H1262  H     0.45283   0.62311   0.70067   0.00000  Uiso   1.00
N1263  N     0.50000   0.61736   0.75000   0.00000  Uiso   1.00
N1264  N     0.50000   0.38264   0.75000   0.00000  Uiso   1.00
O1265  O     0.43988   0.53958   0.75000   0.00000  Uiso   1.00
O1266  O     0.56012   0.46042   0.75001   0.00000  Uiso   1.00
O1267  O     0.56012   0.53958   0.75001   0.00000  Uiso   1.00
O1268  O     0.43988   0.46042   0.75000   0.00000  Uiso   1.00
O1269  O     0.49999   0.53960   0.68513   0.00000  Uiso   1.00
O1270  O     0.50001   0.46040   0.81487   0.00000  Uiso   1.00
O1271  O     0.50001   0.53960   0.81487   0.00000  Uiso   1.00
O1272  O     0.49999   0.46040   0.68513   0.00000  Uiso   1.00
F1273  F     0.56786   0.48287   0.88422   0.00000  Uiso   1.00
F1274  F     0.43214   0.48287   0.61578   0.00000  Uiso   1.00
C1275  C     0.42531   0.53198   0.87723   0.00000  Uiso   1.00
C1276  C     0.42395   0.58569   0.88170   0.00000  Uiso   1.00
C1277  C     0.40215   0.60894   0.84202   0.00000  Uiso   1.00
H1278  H     0.42105   0.60566   0.81193   0.00000  Uiso   1.00
H1279  H     0.37194   0.59254   0.83523   0.00000  Uiso   1.00
H1280  H     0.39762   0.64676   0.84903   0.00000  Uiso   1.00
H1281  H     0.40851   0.59542   0.91287   0.00000  Uiso   1.00
H1282  H     0.45559   0.60007   0.88378   0.00000  Uiso   1.00
H1283  H     0.42813   0.52308   0.84164   0.00000  Uiso   1.00
H1284  H     0.39565   0.51543   0.88444   0.00000  Uiso   1.00
C1285  C     0.57469   0.53197   0.62277   0.00000  Uiso   1.00
C1286  C     0.57606   0.58568   0.61830   0.00000  Uiso   1.00
C1287  C     0.59786   0.60893   0.65798   0.00000  Uiso   1.00
H1288  H     0.57895   0.60565   0.68807   0.00000  Uiso   1.00
H1289  H     0.62806   0.59252   0.66479   0.00000  Uiso   1.00
H1290  H     0.60240   0.64675   0.65098   0.00000  Uiso   1.00
H1291  H     0.59151   0.59541   0.58713   0.00000  Uiso   1.00
H1292  H     0.54443   0.60007   0.61622   0.00000  Uiso   1.00
H1293  H     0.57187   0.52307   0.65836   0.00000  Uiso   1.00
H1294  H     0.60435   0.51542   0.61556   0.00000  Uiso   1.00
F1295  F     0.38798   0.51919   0.95673   0.00000  Uiso   1.00
F1296  F     0.61202   0.51920   0.54327   0.00000  Uiso   1.00
C1297  C     0.38681   0.52486   0.54830   0.00000  Uiso   1.00
C1298  C     0.39179   0.57177   0.57298   0.00000  Uiso   1.00
C1299  C     0.35234   0.58578   0.59530   0.00000  Uiso   1.00
H1300  H     0.66136   0.59219   0.56968   0.00000  Uiso   1.00
H1301  H     0.34260   0.55750   0.61813   0.00000  Uiso   1.00
H1302  H     0.35728   0.61845   0.61474   0.00000  Uiso   1.00
H1303  H     0.41642   0.56970   0.59890   0.00000  Uiso   1.00
H1304  H     0.40018   0.59962   0.54895   0.00000  Uiso   1.00
H1305  H     0.36043   0.52874   0.52492   0.00000  Uiso   1.00
H1306  H     0.37733   0.49626   0.57073   0.00000  Uiso   1.00
C1307  C     0.61319   0.52486   0.95170   0.00000  Uiso   1.00
C1308  C     0.60821   0.57177   0.92702   0.00000  Uiso   1.00
C1309  C     0.64765   0.58576   0.90467   0.00000  Uiso   1.00
H1310  H     0.33865   0.59215   0.93026   0.00000  Uiso   1.00
H1311  H     0.65735   0.55749   0.88181   0.00000  Uiso   1.00
H1312  H     0.64271   0.61844   0.88524   0.00000  Uiso   1.00
H1313  H     0.58356   0.56971   0.90112   0.00000  Uiso   1.00
H1314  H     0.59985   0.59963   0.95105   0.00000  Uiso   1.00
H1315  H     0.63957   0.52874   0.97508   0.00000  Uiso   1.00
H1316  H     0.62267   0.49626   0.92927   0.00000  Uiso   1.00
C1317  C     0.75398   0.50000   0.74964   0.00000  Uiso   1.00
C1318  C     0.91268   0.50000   0.75036   0.00000  Uiso   1.00
C1319  C     0.75915   0.51241   0.52401   0.00000  Uiso   1.00
C1320  C     0.90752   0.51241   0.97599   0.00000  Uiso   1.00
C1321  C     0.68789   0.45747   0.74987   0.00000  Uiso   1.00
C1322  C     0.97879   0.54252   0.75039   0.00000  Uiso   1.00
C1323  C     0.97877   0.45747   0.75012   0.00000  Uiso   1.00
C1324  C     0.68788   0.54252   0.74962   0.00000  Uiso   1.00
C1325  C     0.95731   0.50000   0.75036   0.00000  Uiso   1.00
C1326  C     0.70936   0.50000   0.74964   0.00000  Uiso   1.00
C1327  C     0.80713   0.35814   0.72262   0.00000  Uiso   1.00
C1328  C     0.85953   0.64184   0.77739   0.00000  Uiso   1.00
C1329  C     0.85954   0.35814   0.77738   0.00000  Uiso   1.00
C1330  C     0.80714   0.64184   0.72261   0.00000  Uiso   1.00
C1331  C     0.83362   0.50005   0.66452   0.00000  Uiso   1.00
C1332  C     0.83305   0.50005   0.83548   0.00000  Uiso   1.00
C1333  C     0.86761   0.49544   0.90726   0.00000  Uiso   1.00
C1334  C     0.79905   0.49544   0.59274   0.00000  Uiso   1.00
C1335  C     0.83093   0.50070   0.88368   0.00000  Uiso   1.00
C1336  C     0.83573   0.50070   0.61632   0.00000  Uiso   1.00
C1337  C     0.79442   0.51236   0.90530   0.00000  Uiso   1.00
C1338  C     0.87224   0.51236   0.59470   0.00000  Uiso   1.00
C1339  C     0.79453   0.51080   0.95278   0.00000  Uiso   1.00
C1340  C     0.87214   0.51080   0.54722   0.00000  Uiso   1.00
C1341  C     0.83270   0.50720   0.97648   0.00000  Uiso   1.00
C1342  C     0.83397   0.50720   0.52352   0.00000  Uiso   1.00
C1343  C     0.86974   0.50459   0.95310   0.00000  Uiso   1.00
C1344  C     0.79693   0.50460   0.54690   0.00000  Uiso   1.00
C1345  C     0.75830   0.51457   0.97737   0.00000  Uiso   1.00
C1346  C     0.90837   0.51457   0.52263   0.00000  Uiso   1.00
Cu1347 Cu    0.83333   0.54689   0.75000   0.00000  Uiso   1.00
Cu1348 Cu    0.83333   0.45311   0.75000   0.00000  Uiso   1.00
H1349  H     0.70382   0.42419   0.74982   0.00000  Uiso   1.00
H1350  H     0.96290   0.57580   0.75088   0.00000  Uiso   1.00
H1351  H     0.96285   0.42419   0.75016   0.00000  Uiso   1.00
H1352  H     0.70377   0.57580   0.74914   0.00000  Uiso   1.00
H1353  H     0.78614   0.37685   0.70069   0.00000  Uiso   1.00
H1354  H     0.88051   0.62311   0.79933   0.00000  Uiso   1.00
H1355  H     0.88052   0.37685   0.79931   0.00000  Uiso   1.00
H1356  H     0.78616   0.62311   0.70067   0.00000  Uiso   1.00
N1357  N     0.83333   0.61736   0.75000   0.00000  Uiso   1.00
N1358  N     0.83333   0.38264   0.75000   0.00000  Uiso   1.00
O1359  O     0.77321   0.53958   0.75000   0.00000  Uiso   1.00
O1360  O     0.89345   0.46042   0.75001   0.00000  Uiso   1.00
O1361  O     0.89345   0.53958   0.75001   0.00000  Uiso   1.00
O1362  O     0.77321   0.46042   0.75000   0.00000  Uiso   1.00
O1363  O     0.83332   0.53960   0.68513   0.00000  Uiso   1.00
O1364  O     0.83334   0.46040   0.81487   0.00000  Uiso   1.00
O1365  O     0.83334   0.53960   0.81487   0.00000  Uiso   1.00
O1366  O     0.83332   0.46040   0.68513   0.00000  Uiso   1.00
F1367  F     0.90119   0.48287   0.88422   0.00000  Uiso   1.00
F1368  F     0.76548   0.48287   0.61578   0.00000  Uiso   1.00
C1369  C     0.75864   0.53198   0.87723   0.00000  Uiso   1.00
C1370  C     0.75728   0.58569   0.88170   0.00000  Uiso   1.00
C1371  C     0.73549   0.60894   0.84202   0.00000  Uiso   1.00
H1372  H     0.75439   0.60566   0.81193   0.00000  Uiso   1.00
H1373  H     0.70527   0.59254   0.83523   0.00000  Uiso   1.00
H1374  H     0.73096   0.64676   0.84903   0.00000  Uiso   1.00
H1375  H     0.74184   0.59542   0.91287   0.00000  Uiso   1.00
H1376  H     0.78892   0.60007   0.88378   0.00000  Uiso   1.00
H1377  H     0.76146   0.52308   0.84164   0.00000  Uiso   1.00
H1378  H     0.72898   0.51543   0.88444   0.00000  Uiso   1.00
C1379  C     0.90803   0.53197   0.62277   0.00000  Uiso   1.00
C1380  C     0.90940   0.58568   0.61830   0.00000  Uiso   1.00
C1381  C     0.93119   0.60893   0.65798   0.00000  Uiso   1.00
H1382  H     0.91228   0.60565   0.68807   0.00000  Uiso   1.00
H1383  H     0.96140   0.59252   0.66479   0.00000  Uiso   1.00
H1384  H     0.93573   0.64675   0.65098   0.00000  Uiso   1.00
H1385  H     0.92484   0.59541   0.58713   0.00000  Uiso   1.00
H1386  H     0.87776   0.60007   0.61622   0.00000  Uiso   1.00
H1387  H     0.90521   0.52307   0.65836   0.00000  Uiso   1.00
H1388  H     0.93769   0.51542   0.61556   0.00000  Uiso   1.00
F1389  F     0.72131   0.51919   0.95673   0.00000  Uiso   1.00
F1390  F     0.94535   0.51920   0.54327   0.00000  Uiso   1.00
C1391  C     0.72014   0.52486   0.54830   0.00000  Uiso   1.00
C1392  C     0.72512   0.57177   0.57298   0.00000  Uiso   1.00
C1393  C     0.68567   0.58578   0.59530   0.00000  Uiso   1.00
H1394  H     0.99469   0.59219   0.56968   0.00000  Uiso   1.00
H1395  H     0.67594   0.55750   0.61813   0.00000  Uiso   1.00
H1396  H     0.69061   0.61845   0.61474   0.00000  Uiso   1.00
H1397  H     0.74975   0.56970   0.59890   0.00000  Uiso   1.00
H1398  H     0.73351   0.59962   0.54895   0.00000  Uiso   1.00
H1399  H     0.69376   0.52874   0.52492   0.00000  Uiso   1.00
H1400  H     0.71067   0.49626   0.57073   0.00000  Uiso   1.00
C1401  C     0.94653   0.52486   0.95170   0.00000  Uiso   1.00
C1402  C     0.94154   0.57177   0.92702   0.00000  Uiso   1.00
C1403  C     0.98098   0.58576   0.90467   0.00000  Uiso   1.00
H1404  H     0.67199   0.59215   0.93026   0.00000  Uiso   1.00
H1405  H     0.99068   0.55749   0.88181   0.00000  Uiso   1.00
H1406  H     0.97604   0.61844   0.88524   0.00000  Uiso   1.00
H1407  H     0.91690   0.56971   0.90112   0.00000  Uiso   1.00
H1408  H     0.93318   0.59963   0.95105   0.00000  Uiso   1.00
H1409  H     0.97291   0.52874   0.97508   0.00000  Uiso   1.00
H1410  H     0.95600   0.49626   0.92927   0.00000  Uiso   1.00
C1411  C     0.08732   0.83333   0.74964   0.00000  Uiso   1.00
C1412  C     0.24602   0.83333   0.75036   0.00000  Uiso   1.00
C1413  C     0.09248   0.84575   0.52401   0.00000  Uiso   1.00
C1414  C     0.24085   0.84575   0.97599   0.00000  Uiso   1.00
C1415  C     0.02123   0.79081   0.74987   0.00000  Uiso   1.00
C1416  C     0.31212   0.87585   0.75039   0.00000  Uiso   1.00
C1417  C     0.31211   0.79081   0.75012   0.00000  Uiso   1.00
C1418  C     0.02121   0.87585   0.74962   0.00000  Uiso   1.00
C1419  C     0.29064   0.83334   0.75036   0.00000  Uiso   1.00
C1420  C     0.04269   0.83334   0.74964   0.00000  Uiso   1.00
C1421  C     0.14046   0.69147   0.72262   0.00000  Uiso   1.00
C1422  C     0.19286   0.97518   0.77739   0.00000  Uiso   1.00
C1423  C     0.19287   0.69147   0.77738   0.00000  Uiso   1.00
C1424  C     0.14047   0.97518   0.72261   0.00000  Uiso   1.00
C1425  C     0.16695   0.83338   0.66452   0.00000  Uiso   1.00
C1426  C     0.16638   0.83338   0.83548   0.00000  Uiso   1.00
C1427  C     0.20095   0.82877   0.90726   0.00000  Uiso   1.00
C1428  C     0.13239   0.82878   0.59274   0.00000  Uiso   1.00
C1429  C     0.16427   0.83403   0.88368   0.00000  Uiso   1.00
C1430  C     0.16907   0.83404   0.61632   0.00000  Uiso   1.00
C1431  C     0.12776   0.84569   0.90530   0.00000  Uiso   1.00
C1432  C     0.20558   0.84569   0.59470   0.00000  Uiso   1.00
C1433  C     0.12786   0.84414   0.95278   0.00000  Uiso   1.00
C1434  C     0.20547   0.84414   0.54722   0.00000  Uiso   1.00
C1435  C     0.16603   0.84053   0.97648   0.00000  Uiso   1.00
C1436  C     0.16730   0.84054   0.52352   0.00000  Uiso   1.00
C1437  C     0.20307   0.83793   0.95310   0.00000  Uiso   1.00
C1438  C     0.13026   0.83793   0.54690   0.00000  Uiso   1.00
C1439  C     0.09163   0.84790   0.97737   0.00000  Uiso   1.00
C1440  C     0.24170   0.84790   0.52263   0.00000  Uiso   1.00
Cu1441 Cu    0.16667   0.88022   0.75000   0.00000  Uiso   1.00
Cu1442 Cu    0.16667   0.78645   0.75000   0.00000  Uiso   1.00
H1443  H     0.03715   0.75752   0.74982   0.00000  Uiso   1.00
H1444  H     0.29623   0.90913   0.75088   0.00000  Uiso   1.00
H1445  H     0.29618   0.75752   0.75016   0.00000  Uiso   1.00
H1446  H     0.03710   0.90913   0.74914   0.00000  Uiso   1.00
H1447  H     0.11948   0.71019   0.70069   0.00000  Uiso   1.00
H1448  H     0.21384   0.95645   0.79933   0.00000  Uiso   1.00
H1449  H     0.21386   0.71019   0.79931   0.00000  Uiso   1.00
H1450  H     0.11949   0.95645   0.70067   0.00000  Uiso   1.00
N1451  N     0.16667   0.95069   0.75000   0.00000  Uiso   1.00
N1452  N     0.16667   0.71598   0.75000   0.00000  Uiso   1.00
O1453  O     0.10655   0.87291   0.75000   0.00000  Uiso   1.00
O1454  O     0.22679   0.79375   0.75001   0.00000  Uiso   1.00
O1455  O     0.22679   0.87291   0.75001   0.00000  Uiso   1.00
O1456  O     0.10655   0.79375   0.75000   0.00000  Uiso   1.00
O1457  O     0.16666   0.87293   0.68513   0.00000  Uiso   1.00
O1458  O     0.16668   0.79373   0.81487   0.00000  Uiso   1.00
O1459  O     0.16668   0.87293   0.81487   0.00000  Uiso   1.00
O1460  O     0.16666   0.79373   0.68513   0.00000  Uiso   1.00
F1461  F     0.23452   0.81620   0.88422   0.00000  Uiso   1.00
F1462  F     0.09881   0.81620   0.61578   0.00000  Uiso   1.00
C1463  C     0.09198   0.86531   0.87723   0.00000  Uiso   1.00
C1464  C     0.09061   0.91902   0.88170   0.00000  Uiso   1.00
C1465  C     0.06882   0.94228   0.84202   0.00000  Uiso   1.00
H1466  H     0.08772   0.93899   0.81193   0.00000  Uiso   1.00
H1467  H     0.03861   0.92587   0.83523   0.00000  Uiso   1.00
H1468  H     0.06429   0.98009   0.84903   0.00000  Uiso   1.00
H1469  H     0.07518   0.92875   0.91287   0.00000  Uiso   1.00
H1470  H     0.12225   0.93341   0.88378   0.00000  Uiso   1.00
H1471  H     0.09479   0.85641   0.84164   0.00000  Uiso   1.00
H1472  H     0.06231   0.84877   0.88444   0.00000  Uiso   1.00
C1473  C     0.24136   0.86531   0.62277   0.00000  Uiso   1.00
C1474  C     0.24273   0.91902   0.61830   0.00000  Uiso   1.00
C1475  C     0.26452   0.94226   0.65798   0.00000  Uiso   1.00
H1476  H     0.24562   0.93898   0.68807   0.00000  Uiso   1.00
H1477  H     0.29473   0.92585   0.66479   0.00000  Uiso   1.00
H1478  H     0.26906   0.98008   0.65098   0.00000  Uiso   1.00
H1479  H     0.25817   0.92874   0.58713   0.00000  Uiso   1.00
H1480  H     0.21109   0.93340   0.61622   0.00000  Uiso   1.00
H1481  H     0.23854   0.85640   0.65836   0.00000  Uiso   1.00
H1482  H     0.27102   0.84875   0.61556   0.00000  Uiso   1.00
F1483  F     0.05465   0.85253   0.95673   0.00000  Uiso   1.00
F1484  F     0.27869   0.85254   0.54327   0.00000  Uiso   1.00
C1485  C     0.05347   0.85820   0.54830   0.00000  Uiso   1.00
C1486  C     0.05846   0.90511   0.57298   0.00000  Uiso   1.00
C1487  C     0.01900   0.91911   0.59530   0.00000  Uiso   1.00
H1488  H     0.32802   0.92553   0.56968   0.00000  Uiso   1.00
H1489  H     0.00927   0.89084   0.61813   0.00000  Uiso   1.00
H1490  H     0.02395   0.95178   0.61474   0.00000  Uiso   1.00
H1491  H     0.08308   0.90303   0.59890   0.00000  Uiso   1.00
H1492  H     0.06685   0.93295   0.54895   0.00000  Uiso   1.00
H1493  H     0.02709   0.86207   0.52492   0.00000  Uiso   1.00
H1494  H     0.04400   0.82959   0.57073   0.00000  Uiso   1.00
C1495  C     0.27986   0.85820   0.95170   0.00000  Uiso   1.00
C1496  C     0.27487   0.90511   0.92702   0.00000  Uiso   1.00
C1497  C     0.31432   0.91909   0.90467   0.00000  Uiso   1.00
H1498  H     0.00532   0.92548   0.93026   0.00000  Uiso   1.00
H1499  H     0.32402   0.89082   0.88181   0.00000  Uiso   1.00
H1500  H     0.30937   0.95177   0.88524   0.00000  Uiso   1.00
H1501  H     0.25023   0.90304   0.90112   0.00000  Uiso   1.00
H1502  H     0.26651   0.93296   0.95105   0.00000  Uiso   1.00
H1503  H     0.30624   0.86207   0.97508   0.00000  Uiso   1.00
H1504  H     0.28933   0.82959   0.92927   0.00000  Uiso   1.00
C1505  C     0.42065   0.83333   0.74964   0.00000  Uiso   1.00
C1506  C     0.57935   0.83333   0.75036   0.00000  Uiso   1.00
C1507  C     0.42581   0.84575   0.52401   0.00000  Uiso   1.00
C1508  C     0.57419   0.84575   0.97599   0.00000  Uiso   1.00
C1509  C     0.35456   0.79081   0.74987   0.00000  Uiso   1.00
C1510  C     0.64546   0.87585   0.75039   0.00000  Uiso   1.00
C1511  C     0.64544   0.79081   0.75012   0.00000  Uiso   1.00
C1512  C     0.35454   0.87585   0.74962   0.00000  Uiso   1.00
C1513  C     0.62397   0.83334   0.75036   0.00000  Uiso   1.00
C1514  C     0.37603   0.83334   0.74964   0.00000  Uiso   1.00
C1515  C     0.47380   0.69147   0.72262   0.00000  Uiso   1.00
C1516  C     0.52620   0.97518   0.77739   0.00000  Uiso   1.00
C1517  C     0.52620   0.69147   0.77738   0.00000  Uiso   1.00
C1518  C     0.47380   0.97518   0.72261   0.00000  Uiso   1.00
C1519  C     0.50028   0.83338   0.66452   0.00000  Uiso   1.00
C1520  C     0.49972   0.83338   0.83548   0.00000  Uiso   1.00
C1521  C     0.53428   0.82877   0.90726   0.00000  Uiso   1.00
C1522  C     0.46572   0.82878   0.59274   0.00000  Uiso   1.00
C1523  C     0.49760   0.83403   0.88368   0.00000  Uiso   1.00
C1524  C     0.50240   0.83404   0.61632   0.00000  Uiso   1.00
C1525  C     0.46109   0.84569   0.90530   0.00000  Uiso   1.00
C1526  C     0.53891   0.84569   0.59470   0.00000  Uiso   1.00
C1527  C     0.46119   0.84414   0.95278   0.00000  Uiso   1.00
C1528  C     0.53881   0.84414   0.54722   0.00000  Uiso   1.00
C1529  C     0.49936   0.84053   0.97648   0.00000  Uiso   1.00
C1530  C     0.50064   0.84054   0.52352   0.00000  Uiso   1.00
C1531  C     0.53641   0.83793   0.95310   0.00000  Uiso   1.00
C1532  C     0.46359   0.83793   0.54690   0.00000  Uiso   1.00
C1533  C     0.42496   0.84790   0.97737   0.00000  Uiso   1.00
C1534  C     0.57504   0.84790   0.52263   0.00000  Uiso   1.00
Cu1535 Cu    0.50000   0.88022   0.75000   0.00000  Uiso   1.00
Cu1536 Cu    0.50000   0.78645   0.75000   0.00000  Uiso   1.00
H1537  H     0.37048   0.75752   0.74982   0.00000  Uiso   1.00
H1538  H     0.62957   0.90913   0.75088   0.00000  Uiso   1.00
H1539  H     0.62952   0.75752   0.75016   0.00000  Uiso   1.00
H1540  H     0.37043   0.90913   0.74914   0.00000  Uiso   1.00
H1541  H     0.45281   0.71019   0.70069   0.00000  Uiso   1.00
H1542  H     0.54717   0.95645   0.79933   0.00000  Uiso   1.00
H1543  H     0.54719   0.71019   0.79931   0.00000  Uiso   1.00
H1544  H     0.45283   0.95645   0.70067   0.00000  Uiso   1.00
N1545  N     0.50000   0.95069   0.75000   0.00000  Uiso   1.00
N1546  N     0.50000   0.71598   0.75000   0.00000  Uiso   1.00
O1547  O     0.43988   0.87291   0.75000   0.00000  Uiso   1.00
O1548  O     0.56012   0.79375   0.75001   0.00000  Uiso   1.00
O1549  O     0.56012   0.87291   0.75001   0.00000  Uiso   1.00
O1550  O     0.43988   0.79375   0.75000   0.00000  Uiso   1.00
O1551  O     0.49999   0.87293   0.68513   0.00000  Uiso   1.00
O1552  O     0.50001   0.79373   0.81487   0.00000  Uiso   1.00
O1553  O     0.50001   0.87293   0.81487   0.00000  Uiso   1.00
O1554  O     0.49999   0.79373   0.68513   0.00000  Uiso   1.00
F1555  F     0.56786   0.81620   0.88422   0.00000  Uiso   1.00
F1556  F     0.43214   0.81620   0.61578   0.00000  Uiso   1.00
C1557  C     0.42531   0.86531   0.87723   0.00000  Uiso   1.00
C1558  C     0.42395   0.91902   0.88170   0.00000  Uiso   1.00
C1559  C     0.40215   0.94228   0.84202   0.00000  Uiso   1.00
H1560  H     0.42105   0.93899   0.81193   0.00000  Uiso   1.00
H1561  H     0.37194   0.92587   0.83523   0.00000  Uiso   1.00
H1562  H     0.39762   0.98009   0.84903   0.00000  Uiso   1.00
H1563  H     0.40851   0.92875   0.91287   0.00000  Uiso   1.00
H1564  H     0.45559   0.93341   0.88378   0.00000  Uiso   1.00
H1565  H     0.42813   0.85641   0.84164   0.00000  Uiso   1.00
H1566  H     0.39565   0.84877   0.88444   0.00000  Uiso   1.00
C1567  C     0.57469   0.86531   0.62277   0.00000  Uiso   1.00
C1568  C     0.57606   0.91902   0.61830   0.00000  Uiso   1.00
C1569  C     0.59786   0.94226   0.65798   0.00000  Uiso   1.00
H1570  H     0.57895   0.93898   0.68807   0.00000  Uiso   1.00
H1571  H     0.62806   0.92585   0.66479   0.00000  Uiso   1.00
H1572  H     0.60240   0.98008   0.65098   0.00000  Uiso   1.00
H1573  H     0.59151   0.92874   0.58713   0.00000  Uiso   1.00
H1574  H     0.54443   0.93340   0.61622   0.00000  Uiso   1.00
H1575  H     0.57187   0.85640   0.65836   0.00000  Uiso   1.00
H1576  H     0.60435   0.84875   0.61556   0.00000  Uiso   1.00
F1577  F     0.38798   0.85253   0.95673   0.00000  Uiso   1.00
F1578  F     0.61202   0.85254   0.54327   0.00000  Uiso   1.00
C1579  C     0.38681   0.85820   0.54830   0.00000  Uiso   1.00
C1580  C     0.39179   0.90511   0.57298   0.00000  Uiso   1.00
C1581  C     0.35234   0.91911   0.59530   0.00000  Uiso   1.00
H1582  H     0.66136   0.92553   0.56968   0.00000  Uiso   1.00
H1583  H     0.34260   0.89084   0.61813   0.00000  Uiso   1.00
H1584  H     0.35728   0.95178   0.61474   0.00000  Uiso   1.00
H1585  H     0.41642   0.90303   0.59890   0.00000  Uiso   1.00
H1586  H     0.40018   0.93295   0.54895   0.00000  Uiso   1.00
H1587  H     0.36043   0.86207   0.52492   0.00000  Uiso   1.00
H1588  H     0.37733   0.82959   0.57073   0.00000  Uiso   1.00
C1589  C     0.61319   0.85820   0.95170   0.00000  Uiso   1.00
C1590  C     0.60821   0.90511   0.92702   0.00000  Uiso   1.00
C1591  C     0.64765   0.91909   0.90467   0.00000  Uiso   1.00
H1592  H     0.33865   0.92548   0.93026   0.00000  Uiso   1.00
H1593  H     0.65735   0.89082   0.88181   0.00000  Uiso   1.00
H1594  H     0.64271   0.95177   0.88524   0.00000  Uiso   1.00
H1595  H     0.58356   0.90304   0.90112   0.00000  Uiso   1.00
H1596  H     0.59985   0.93296   0.95105   0.00000  Uiso   1.00
H1597  H     0.63957   0.86207   0.97508   0.00000  Uiso   1.00
H1598  H     0.62267   0.82959   0.92927   0.00000  Uiso   1.00
C1599  C     0.75398   0.83333   0.74964   0.00000  Uiso   1.00
C1600  C     0.91268   0.83333   0.75036   0.00000  Uiso   1.00
C1601  C     0.75915   0.84575   0.52401   0.00000  Uiso   1.00
C1602  C     0.90752   0.84575   0.97599   0.00000  Uiso   1.00
C1603  C     0.68789   0.79081   0.74987   0.00000  Uiso   1.00
C1604  C     0.97879   0.87585   0.75039   0.00000  Uiso   1.00
C1605  C     0.97877   0.79081   0.75012   0.00000  Uiso   1.00
C1606  C     0.68788   0.87585   0.74962   0.00000  Uiso   1.00
C1607  C     0.95731   0.83334   0.75036   0.00000  Uiso   1.00
C1608  C     0.70936   0.83334   0.74964   0.00000  Uiso   1.00
C1609  C     0.80713   0.69147   0.72262   0.00000  Uiso   1.00
C1610  C     0.85953   0.97518   0.77739   0.00000  Uiso   1.00
C1611  C     0.85954   0.69147   0.77738   0.00000  Uiso   1.00
C1612  C     0.80714   0.97518   0.72261   0.00000  Uiso   1.00
C1613  C     0.83362   0.83338   0.66452   0.00000  Uiso   1.00
C1614  C     0.83305   0.83338   0.83548   0.00000  Uiso   1.00
C1615  C     0.86761   0.82877   0.90726   0.00000  Uiso   1.00
C1616  C     0.79905   0.82878   0.59274   0.00000  Uiso   1.00
C1617  C     0.83093   0.83403   0.88368   0.00000  Uiso   1.00
C1618  C     0.83573   0.83404   0.61632   0.00000  Uiso   1.00
C1619  C     0.79442   0.84569   0.90530   0.00000  Uiso   1.00
C1620  C     0.87224   0.84569   0.59470   0.00000  Uiso   1.00
C1621  C     0.79453   0.84414   0.95278   0.00000  Uiso   1.00
C1622  C     0.87214   0.84414   0.54722   0.00000  Uiso   1.00
C1623  C     0.83270   0.84053   0.97648   0.00000  Uiso   1.00
C1624  C     0.83397   0.84054   0.52352   0.00000  Uiso   1.00
C1625  C     0.86974   0.83793   0.95310   0.00000  Uiso   1.00
C1626  C     0.79693   0.83793   0.54690   0.00000  Uiso   1.00
C1627  C     0.75830   0.84790   0.97737   0.00000  Uiso   1.00
C1628  C     0.90837   0.84790   0.52263   0.00000  Uiso   1.00
Cu1629 Cu    0.83333   0.88022   0.75000   0.00000  Uiso   1.00
Cu1630 Cu    0.83333   0.78645   0.75000   0.00000  Uiso   1.00
H1631  H     0.70382   0.75752   0.74982   0.00000  Uiso   1.00
H1632  H     0.96290   0.90913   0.75088   0.00000  Uiso   1.00
H1633  H     0.96285   0.75752   0.75016   0.00000  Uiso   1.00
H1634  H     0.70377   0.90913   0.74914   0.00000  Uiso   1.00
H1635  H     0.78614   0.71019   0.70069   0.00000  Uiso   1.00
H1636  H     0.88051   0.95645   0.79933   0.00000  Uiso   1.00
H1637  H     0.88052   0.71019   0.79931   0.00000  Uiso   1.00
H1638  H     0.78616   0.95645   0.70067   0.00000  Uiso   1.00
N1639  N     0.83333   0.95069   0.75000   0.00000  Uiso   1.00
N1640  N     0.83333   0.71598   0.75000   0.00000  Uiso   1.00
O1641  O     0.77321   0.87291   0.75000   0.00000  Uiso   1.00
O1642  O     0.89345   0.79375   0.75001   0.00000  Uiso   1.00
O1643  O     0.89345   0.87291   0.75001   0.00000  Uiso   1.00
O1644  O     0.77321   0.79375   0.75000   0.00000  Uiso   1.00
O1645  O     0.83332   0.87293   0.68513   0.00000  Uiso   1.00
O1646  O     0.83334   0.79373   0.81487   0.00000  Uiso   1.00
O1647  O     0.83334   0.87293   0.81487   0.00000  Uiso   1.00
O1648  O     0.83332   0.79373   0.68513   0.00000  Uiso   1.00
F1649  F     0.90119   0.81620   0.88422   0.00000  Uiso   1.00
F1650  F     0.76548   0.81620   0.61578   0.00000  Uiso   1.00
C1651  C     0.75864   0.86531   0.87723   0.00000  Uiso   1.00
C1652  C     0.75728   0.91902   0.88170   0.00000  Uiso   1.00
C1653  C     0.73549   0.94228   0.84202   0.00000  Uiso   1.00
H1654  H     0.75439   0.93899   0.81193   0.00000  Uiso   1.00
H1655  H     0.70527   0.92587   0.83523   0.00000  Uiso   1.00
H1656  H     0.73096   0.98009   0.84903   0.00000  Uiso   1.00
H1657  H     0.74184   0.92875   0.91287   0.00000  Uiso   1.00
H1658  H     0.78892   0.93341   0.88378   0.00000  Uiso   1.00
H1659  H     0.76146   0.85641   0.84164   0.00000  Uiso   1.00
H1660  H     0.72898   0.84877   0.88444   0.00000  Uiso   1.00
C1661  C     0.90803   0.86531   0.62277   0.00000  Uiso   1.00
C1662  C     0.90940   0.91902   0.61830   0.00000  Uiso   1.00
C1663  C     0.93119   0.94226   0.65798   0.00000  Uiso   1.00
H1664  H     0.91228   0.93898   0.68807   0.00000  Uiso   1.00
H1665  H     0.96140   0.92585   0.66479   0.00000  Uiso   1.00
H1666  H     0.93573   0.98008   0.65098   0.00000  Uiso   1.00
H1667  H     0.92484   0.92874   0.58713   0.00000  Uiso   1.00
H1668  H     0.87776   0.93340   0.61622   0.00000  Uiso   1.00
H1669  H     0.90521   0.85640   0.65836   0.00000  Uiso   1.00
H1670  H     0.93769   0.84875   0.61556   0.00000  Uiso   1.00
F1671  F     0.72131   0.85253   0.95673   0.00000  Uiso   1.00
F1672  F     0.94535   0.85254   0.54327   0.00000  Uiso   1.00
C1673  C     0.72014   0.85820   0.54830   0.00000  Uiso   1.00
C1674  C     0.72512   0.90511   0.57298   0.00000  Uiso   1.00
C1675  C     0.68567   0.91911   0.59530   0.00000  Uiso   1.00
H1676  H     0.99469   0.92553   0.56968   0.00000  Uiso   1.00
H1677  H     0.67594   0.89084   0.61813   0.00000  Uiso   1.00
H1678  H     0.69061   0.95178   0.61474   0.00000  Uiso   1.00
H1679  H     0.74975   0.90303   0.59890   0.00000  Uiso   1.00
H1680  H     0.73351   0.93295   0.54895   0.00000  Uiso   1.00
H1681  H     0.69376   0.86207   0.52492   0.00000  Uiso   1.00
H1682  H     0.71067   0.82959   0.57073   0.00000  Uiso   1.00
C1683  C     0.94653   0.85820   0.95170   0.00000  Uiso   1.00
C1684  C     0.94154   0.90511   0.92702   0.00000  Uiso   1.00
C1685  C     0.98098   0.91909   0.90467   0.00000  Uiso   1.00
H1686  H     0.67199   0.92548   0.93026   0.00000  Uiso   1.00
H1687  H     0.99068   0.89082   0.88181   0.00000  Uiso   1.00
H1688  H     0.97604   0.95177   0.88524   0.00000  Uiso   1.00
H1689  H     0.91690   0.90304   0.90112   0.00000  Uiso   1.00
H1690  H     0.93318   0.93296   0.95105   0.00000  Uiso   1.00
H1691  H     0.97291   0.86207   0.97508   0.00000  Uiso   1.00
H1692  H     0.95600   0.82959   0.92927   0.00000  Uiso   1.00
loop_
_geom_bond_atom_site_label_1
_geom_bond_atom_site_label_2
_geom_bond_distance
_geom_bond_site_symmetry_2
_ccdc_geom_bond_type
C1     O43     1.293   .     A
C1     C10     1.458   .     S
C1     O46     1.293   .     A
C2     O44     1.293   .     A
C2     O45     1.293   .     A
C2     C9      1.458   .     S
C3     C28     1.418   .     A
C3     C75     1.525   .     S
C3     C875    1.403   1_554 S
C4     C85     1.525   .     S
C4     C27     1.418   .     A
C4     C876    1.403   .     S
C5     H33     1.083   .     S
C5     C10     1.402   .     A
C5     C195    1.387   1_455 S
C6     C9      1.402   .     A
C6     H34     1.083   .     S
C6     C102    1.387   .     S
C7     C9      1.402   .     A
C7     H35     1.083   .     S
C7     C99     1.387   .     S
C8     H36     1.083   .     S
C8     C10     1.402   .     A
C8     C194    1.387   1_455 S
C11    N42     1.367   .     A
C11    H37     1.082   .     S
C11    C578    1.416   1_545 S
C12    N41     1.367   .     A
C12    H38     1.082   .     S
C12    C295    1.416   .     S
C13    N42     1.367   .     A
C13    H39     1.082   .     S
C13    C576    1.416   1_545 S
C14    N41     1.367   .     A
C14    H40     1.082   .     S
C14    C293    1.416   .     S
C15    O47     1.288   .     A
C15    O50     1.290   .     A
C15    C20     1.452   .     S
C16    O48     1.290   .     A
C16    O49     1.288   .     A
C16    C19     1.452   .     S
C17    F51     1.358   .     S
C17    C27     1.402   .     A
C17    C19     1.387   .     A
C18    F52     1.358   .     S
C18    C28     1.402   .     A
C18    C20     1.387   .     A
C19    C21     1.411   .     A
C20    C22     1.411   .     A
C21    C23     1.427   .     A
C21    C53     1.533   .     S
C22    C63     1.533   .     S
C22    C24     1.427   .     A
C23    C29     1.413   .     A
C23    C25     1.426   .     A
C24    C26     1.426   .     A
C24    C30     1.413   .     A
C25    C27     1.415   .     A
C25    C872    1.413   .     S
C26    C28     1.415   .     A
C26    C871    1.413   1_554 S
C29    F73     1.353   .     S
C29    C849    1.403   .     S
C30    F74     1.353   .     S
C30    C850    1.403   1_554 S
Cu31   O43     1.976   .     S
Cu31   O47     1.961   .     S
Cu31   O49     1.961   .     S
Cu31   Cu32    2.676   .     S
Cu31   N41     2.011   .     S
Cu31   O45     1.976   .     S
Cu32   O48     1.961   .     S
Cu32   O44     1.976   .     S
Cu32   O50     1.961   .     S
Cu32   O46     1.976   .     S
Cu32   N42     2.011   .     S
C53    C54     1.540   .     S
C53    H62     1.104   .     S
C53    H61     1.105   .     S
C54    H60     1.113   .     S
C54    H59     1.109   .     S
C54    C55     1.527   .     S
C55    H56     1.110   .     S
C55    H57     1.108   .     S
C55    H58     1.110   .     S
C63    H71     1.105   .     S
C63    C64     1.540   .     S
C63    H72     1.104   .     S
C64    H70     1.113   .     S
C64    H69     1.109   .     S
C64    C65     1.527   .     S
C65    H67     1.108   .     S
C65    H68     1.110   .     S
C65    H66     1.110   .     S
C75    H84     1.107   .     S
C75    C76     1.537   .     S
C75    H83     1.106   .     S
C76    H82     1.112   .     S
C76    C77     1.520   .     S
C76    H81     1.109   .     S
C77    H79     1.110   .     S
C77    H80     1.110   .     S
C77    H266    1.109   1_455 S
H78    C171    1.109   .     S
C85    H93     1.106   .     S
C85    H94     1.107   .     S
C85    C86     1.537   .     S
C86    H91     1.109   .     S
C86    C87     1.520   .     S
C86    H92     1.112   .     S
C87    H90     1.110   .     S
C87    H89     1.110   .     S
C87    H182    1.109   .     S
H88    C275    1.109   1_455 S
C95    O137    1.293   .     A
C95    C104    1.458   .     S
C95    O140    1.293   .     A
C96    O138    1.293   .     A
C96    O139    1.293   .     A
C96    C103    1.458   .     S
C97    C122    1.418   .     A
C97    C169    1.525   .     S
C97    C969    1.403   1_554 S
C98    C179    1.525   .     S
C98    C121    1.418   .     A
C98    C970    1.403   .     S
C99    H127    1.083   .     S
C99    C104    1.402   .     A
C100   C103    1.402   .     A
C100   H128    1.083   .     S
C100   C196    1.387   .     S
C101   C103    1.402   .     A
C101   H129    1.083   .     S
C101   C193    1.387   .     S
C102   H130    1.083   .     S
C102   C104    1.402   .     A
C105   N136    1.367   .     A
C105   H131    1.082   .     S
C105   C672    1.416   1_545 S
C106   N135    1.367   .     A
C106   H132    1.082   .     S
C106   C389    1.416   .     S
C107   N136    1.367   .     A
C107   H133    1.082   .     S
C107   C670    1.416   1_545 S
C108   N135    1.367   .     A
C108   H134    1.082   .     S
C108   C387    1.416   .     S
C109   O141    1.288   .     A
C109   O144    1.290   .     A
C109   C114    1.452   .     S
C110   O142    1.290   .     A
C110   O143    1.288   .     A
C110   C113    1.452   .     S
C111   F145    1.358   .     S
C111   C121    1.402   .     A
C111   C113    1.387   .     A
C112   F146    1.358   .     S
C112   C122    1.402   .     A
C112   C114    1.387   .     A
C113   C115    1.411   .     A
C114   C116    1.411   .     A
C115   C117    1.427   .     A
C115   C147    1.533   .     S
C116   C157    1.533   .     S
C116   C118    1.427   .     A
C117   C123    1.413   .     A
C117   C119    1.426   .     A
C118   C120    1.426   .     A
C118   C124    1.413   .     A
C119   C121    1.415   .     A
C119   C966    1.413   .     S
C120   C122    1.415   .     A
C120   C965    1.413   1_554 S
C123   F167    1.353   .     S
C123   C943    1.403   .     S
C124   F168    1.353   .     S
C124   C944    1.403   1_554 S
Cu125  O137    1.976   .     S
Cu125  O141    1.961   .     S
Cu125  O143    1.961   .     S
Cu125  Cu126   2.676   .     S
Cu125  N135    2.011   .     S
Cu125  O139    1.976   .     S
Cu126  O142    1.961   .     S
Cu126  O138    1.976   .     S
Cu126  O144    1.961   .     S
Cu126  O140    1.976   .     S
Cu126  N136    2.011   .     S
C147   C148    1.540   .     S
C147   H156    1.104   .     S
C147   H155    1.105   .     S
C148   H154    1.113   .     S
C148   H153    1.109   .     S
C148   C149    1.527   .     S
C149   H150    1.110   .     S
C149   H151    1.108   .     S
C149   H152    1.110   .     S
C157   H165    1.105   .     S
C157   C158    1.540   .     S
C157   H166    1.104   .     S
C158   H164    1.113   .     S
C158   H163    1.109   .     S
C158   C159    1.527   .     S
C159   H161    1.108   .     S
C159   H162    1.110   .     S
C159   H160    1.110   .     S
C169   H178    1.107   .     S
C169   C170    1.537   .     S
C169   H177    1.106   .     S
C170   H176    1.112   .     S
C170   C171    1.520   .     S
C170   H175    1.109   .     S
C171   H173    1.110   .     S
C171   H174    1.110   .     S
H172   C265    1.109   .     S
C179   H187    1.106   .     S
C179   H188    1.107   .     S
C179   C180    1.537   .     S
C180   H185    1.109   .     S
C180   C181    1.520   .     S
C180   H186    1.112   .     S
C181   H184    1.110   .     S
C181   H183    1.110   .     S
C181   H276    1.109   .     S
C189   O231    1.293   .     A
C189   C198    1.458   .     S
C189   O234    1.293   .     A
C190   O232    1.293   .     A
C190   O233    1.293   .     A
C190   C197    1.458   .     S
C191   C216    1.418   .     A
C191   C263    1.525   .     S
C191   C1063   1.403   1_554 S
C192   C273    1.525   .     S
C192   C215    1.418   .     A
C192   C1064   1.403   .     S
C193   H221    1.083   .     S
C193   C198    1.402   .     A
C194   C197    1.402   .     A
C194   H222    1.083   .     S
C194   C8      1.387   1_655 S
C195   C197    1.402   .     A
C195   H223    1.083   .     S
C195   C5      1.387   1_655 S
C196   H224    1.083   .     S
C196   C198    1.402   .     A
C199   N230    1.367   .     A
C199   H225    1.082   .     S
C199   C766    1.416   1_545 S
C200   N229    1.367   .     A
C200   H226    1.082   .     S
C200   C483    1.416   .     S
C201   N230    1.367   .     A
C201   H227    1.082   .     S
C201   C764    1.416   1_545 S
C202   N229    1.367   .     A
C202   H228    1.082   .     S
C202   C481    1.416   .     S
C203   O235    1.288   .     A
C203   O238    1.290   .     A
C203   C208    1.452   .     S
C204   O236    1.290   .     A
C204   O237    1.288   .     A
C204   C207    1.452   .     S
C205   F239    1.358   .     S
C205   C215    1.402   .     A
C205   C207    1.387   .     A
C206   F240    1.358   .     S
C206   C216    1.402   .     A
C206   C208    1.387   .     A
C207   C209    1.411   .     A
C208   C210    1.411   .     A
C209   C211    1.427   .     A
C209   C241    1.533   .     S
C210   C251    1.533   .     S
C210   C212    1.427   .     A
C211   C217    1.413   .     A
C211   C213    1.426   .     A
C212   C214    1.426   .     A
C212   C218    1.413   .     A
C213   C215    1.415   .     A
C213   C1060   1.413   .     S
C214   C216    1.415   .     A
C214   C1059   1.413   1_554 S
C217   F261    1.353   .     S
C217   C1037   1.403   .     S
C218   F262    1.353   .     S
C218   C1038   1.403   1_554 S
Cu219  O231    1.976   .     S
Cu219  O235    1.961   .     S
Cu219  O237    1.961   .     S
Cu219  Cu220   2.676   .     S
Cu219  N229    2.011   .     S
Cu219  O233    1.976   .     S
Cu220  O236    1.961   .     S
Cu220  O232    1.976   .     S
Cu220  O238    1.961   .     S
Cu220  O234    1.976   .     S
Cu220  N230    2.011   .     S
C241   C242    1.540   .     S
C241   H250    1.104   .     S
C241   H249    1.105   .     S
C242   H248    1.113   .     S
C242   H247    1.109   .     S
C242   C243    1.527   .     S
C243   H244    1.110   .     S
C243   H245    1.108   .     S
C243   H246    1.110   .     S
C251   H259    1.105   .     S
C251   C252    1.540   .     S
C251   H260    1.104   .     S
C252   H258    1.113   .     S
C252   H257    1.109   .     S
C252   C253    1.527   .     S
C253   H255    1.108   .     S
C253   H256    1.110   .     S
C253   H254    1.110   .     S
C263   H272    1.107   .     S
C263   C264    1.537   .     S
C263   H271    1.106   .     S
C264   H270    1.112   .     S
C264   C265    1.520   .     S
C264   H269    1.109   .     S
C265   H267    1.110   .     S
C265   H268    1.110   .     S
H266   C77     1.109   1_655 S
C273   H281    1.106   .     S
C273   H282    1.107   .     S
C273   C274    1.537   .     S
C274   H279    1.109   .     S
C274   C275    1.520   .     S
C274   H280    1.112   .     S
C275   H278    1.110   .     S
C275   H277    1.110   .     S
C275   H88     1.109   1_655 S
C283   O325    1.293   .     A
C283   C292    1.458   .     S
C283   O328    1.293   .     A
C284   O326    1.293   .     A
C284   O327    1.293   .     A
C284   C291    1.458   .     S
C285   C310    1.418   .     A
C285   C357    1.525   .     S
C285   C1157   1.403   1_554 S
C286   C367    1.525   .     S
C286   C309    1.418   .     A
C286   C1158   1.403   .     S
C287   H315    1.083   .     S
C287   C292    1.402   .     A
C287   C477    1.387   1_455 S
C288   C291    1.402   .     A
C288   H316    1.083   .     S
C288   C384    1.387   .     S
C289   C291    1.402   .     A
C289   H317    1.083   .     S
C289   C381    1.387   .     S
C290   H318    1.083   .     S
C290   C292    1.402   .     A
C290   C476    1.387   1_455 S
C293   N324    1.367   .     A
C293   H319    1.082   .     S
C294   N323    1.367   .     A
C294   H320    1.082   .     S
C294   C577    1.416   .     S
C295   N324    1.367   .     A
C295   H321    1.082   .     S
C296   N323    1.367   .     A
C296   H322    1.082   .     S
C296   C575    1.416   .     S
C297   O329    1.288   .     A
C297   O332    1.290   .     A
C297   C302    1.452   .     S
C298   O330    1.290   .     A
C298   O331    1.288   .     A
C298   C301    1.452   .     S
C299   F333    1.358   .     S
C299   C309    1.402   .     A
C299   C301    1.387   .     A
C300   F334    1.358   .     S
C300   C310    1.402   .     A
C300   C302    1.387   .     A
C301   C303    1.411   .     A
C302   C304    1.411   .     A
C303   C305    1.427   .     A
C303   C335    1.533   .     S
C304   C345    1.533   .     S
C304   C306    1.427   .     A
C305   C311    1.413   .     A
C305   C307    1.426   .     A
C306   C308    1.426   .     A
C306   C312    1.413   .     A
C307   C309    1.415   .     A
C307   C1154   1.413   .     S
C308   C310    1.415   .     A
C308   C1153   1.413   1_554 S
C311   F355    1.353   .     S
C311   C1131   1.403   .     S
C312   F356    1.353   .     S
C312   C1132   1.403   1_554 S
Cu313  O325    1.976   .     S
Cu313  O329    1.961   .     S
Cu313  O331    1.961   .     S
Cu313  Cu314   2.676   .     S
Cu313  N323    2.011   .     S
Cu313  O327    1.976   .     S
Cu314  O330    1.961   .     S
Cu314  O326    1.976   .     S
Cu314  O332    1.961   .     S
Cu314  O328    1.976   .     S
Cu314  N324    2.011   .     S
C335   C336    1.540   .     S
C335   H344    1.104   .     S
C335   H343    1.105   .     S
C336   H342    1.113   .     S
C336   H341    1.109   .     S
C336   C337    1.527   .     S
C337   H338    1.110   .     S
C337   H339    1.108   .     S
C337   H340    1.110   .     S
C345   H353    1.105   .     S
C345   C346    1.540   .     S
C345   H354    1.104   .     S
C346   H352    1.113   .     S
C346   H351    1.109   .     S
C346   C347    1.527   .     S
C347   H349    1.108   .     S
C347   H350    1.110   .     S
C347   H348    1.110   .     S
C357   H366    1.107   .     S
C357   C358    1.537   .     S
C357   H365    1.106   .     S
C358   H364    1.112   .     S
C358   C359    1.520   .     S
C358   H363    1.109   .     S
C359   H361    1.110   .     S
C359   H362    1.110   .     S
C359   H548    1.109   1_455 S
H360   C453    1.109   .     S
C367   H375    1.106   .     S
C367   H376    1.107   .     S
C367   C368    1.537   .     S
C368   H373    1.109   .     S
C368   C369    1.520   .     S
C368   H374    1.112   .     S
C369   H372    1.110   .     S
C369   H371    1.110   .     S
C369   H464    1.109   .     S
H370   C557    1.109   1_455 S
C377   O419    1.293   .     A
C377   C386    1.458   .     S
C377   O422    1.293   .     A
C378   O420    1.293   .     A
C378   O421    1.293   .     A
C378   C385    1.458   .     S
C379   C404    1.418   .     A
C379   C451    1.525   .     S
C379   C1251   1.403   1_554 S
C380   C461    1.525   .     S
C380   C403    1.418   .     A
C380   C1252   1.403   .     S
C381   H409    1.083   .     S
C381   C386    1.402   .     A
C382   C385    1.402   .     A
C382   H410    1.083   .     S
C382   C478    1.387   .     S
C383   C385    1.402   .     A
C383   H411    1.083   .     S
C383   C475    1.387   .     S
C384   H412    1.083   .     S
C384   C386    1.402   .     A
C387   N418    1.367   .     A
C387   H413    1.082   .     S
C388   N417    1.367   .     A
C388   H414    1.082   .     S
C388   C671    1.416   .     S
C389   N418    1.367   .     A
C389   H415    1.082   .     S
C390   N417    1.367   .     A
C390   H416    1.082   .     S
C390   C669    1.416   .     S
C391   O423    1.288   .     A
C391   O426    1.290   .     A
C391   C396    1.452   .     S
C392   O424    1.290   .     A
C392   O425    1.288   .     A
C392   C395    1.452   .     S
C393   F427    1.358   .     S
C393   C403    1.402   .     A
C393   C395    1.387   .     A
C394   F428    1.358   .     S
C394   C404    1.402   .     A
C394   C396    1.387   .     A
C395   C397    1.411   .     A
C396   C398    1.411   .     A
C397   C399    1.427   .     A
C397   C429    1.533   .     S
C398   C439    1.533   .     S
C398   C400    1.427   .     A
C399   C405    1.413   .     A
C399   C401    1.426   .     A
C400   C402    1.426   .     A
C400   C406    1.413   .     A
C401   C403    1.415   .     A
C401   C1248   1.413   .     S
C402   C404    1.415   .     A
C402   C1247   1.413   1_554 S
C405   F449    1.353   .     S
C405   C1225   1.403   .     S
C406   F450    1.353   .     S
C406   C1226   1.403   1_554 S
Cu407  O419    1.976   .     S
Cu407  O423    1.961   .     S
Cu407  O425    1.961   .     S
Cu407  Cu408   2.676   .     S
Cu407  N417    2.011   .     S
Cu407  O421    1.976   .     S
Cu408  O424    1.961   .     S
Cu408  O420    1.976   .     S
Cu408  O426    1.961   .     S
Cu408  O422    1.976   .     S
Cu408  N418    2.011   .     S
C429   C430    1.540   .     S
C429   H438    1.104   .     S
C429   H437    1.105   .     S
C430   H436    1.113   .     S
C430   H435    1.109   .     S
C430   C431    1.527   .     S
C431   H432    1.110   .     S
C431   H433    1.108   .     S
C431   H434    1.110   .     S
C439   H447    1.105   .     S
C439   C440    1.540   .     S
C439   H448    1.104   .     S
C440   H446    1.113   .     S
C440   H445    1.109   .     S
C440   C441    1.527   .     S
C441   H443    1.108   .     S
C441   H444    1.110   .     S
C441   H442    1.110   .     S
C451   H460    1.107   .     S
C451   C452    1.537   .     S
C451   H459    1.106   .     S
C452   H458    1.112   .     S
C452   C453    1.520   .     S
C452   H457    1.109   .     S
C453   H455    1.110   .     S
C453   H456    1.110   .     S
H454   C547    1.109   .     S
C461   H469    1.106   .     S
C461   H470    1.107   .     S
C461   C462    1.537   .     S
C462   H467    1.109   .     S
C462   C463    1.520   .     S
C462   H468    1.112   .     S
C463   H466    1.110   .     S
C463   H465    1.110   .     S
C463   H558    1.109   .     S
C471   O513    1.293   .     A
C471   C480    1.458   .     S
C471   O516    1.293   .     A
C472   O514    1.293   .     A
C472   O515    1.293   .     A
C472   C479    1.458   .     S
C473   C498    1.418   .     A
C473   C545    1.525   .     S
C473   C1345   1.403   1_554 S
C474   C555    1.525   .     S
C474   C497    1.418   .     A
C474   C1346   1.403   .     S
C475   H503    1.083   .     S
C475   C480    1.402   .     A
C476   C479    1.402   .     A
C476   H504    1.083   .     S
C476   C290    1.387   1_655 S
C477   C479    1.402   .     A
C477   H505    1.083   .     S
C477   C287    1.387   1_655 S
C478   H506    1.083   .     S
C478   C480    1.402   .     A
C481   N512    1.367   .     A
C481   H507    1.082   .     S
C482   N511    1.367   .     A
C482   H508    1.082   .     S
C482   C765    1.416   .     S
C483   N512    1.367   .     A
C483   H509    1.082   .     S
C484   N511    1.367   .     A
C484   H510    1.082   .     S
C484   C763    1.416   .     S
C485   O517    1.288   .     A
C485   O520    1.290   .     A
C485   C490    1.452   .     S
C486   O518    1.290   .     A
C486   O519    1.288   .     A
C486   C489    1.452   .     S
C487   F521    1.358   .     S
C487   C497    1.402   .     A
C487   C489    1.387   .     A
C488   F522    1.358   .     S
C488   C498    1.402   .     A
C488   C490    1.387   .     A
C489   C491    1.411   .     A
C490   C492    1.411   .     A
C491   C493    1.427   .     A
C491   C523    1.533   .     S
C492   C533    1.533   .     S
C492   C494    1.427   .     A
C493   C499    1.413   .     A
C493   C495    1.426   .     A
C494   C496    1.426   .     A
C494   C500    1.413   .     A
C495   C497    1.415   .     A
C495   C1342   1.413   .     S
C496   C498    1.415   .     A
C496   C1341   1.413   1_554 S
C499   F543    1.353   .     S
C499   C1319   1.403   .     S
C500   F544    1.353   .     S
C500   C1320   1.403   1_554 S
Cu501  O513    1.976   .     S
Cu501  O517    1.961   .     S
Cu501  O519    1.961   .     S
Cu501  Cu502   2.676   .     S
Cu501  N511    2.011   .     S
Cu501  O515    1.976   .     S
Cu502  O518    1.961   .     S
Cu502  O514    1.976   .     S
Cu502  O520    1.961   .     S
Cu502  O516    1.976   .     S
Cu502  N512    2.011   .     S
C523   C524    1.540   .     S
C523   H532    1.104   .     S
C523   H531    1.105   .     S
C524   H530    1.113   .     S
C524   H529    1.109   .     S
C524   C525    1.527   .     S
C525   H526    1.110   .     S
C525   H527    1.108   .     S
C525   H528    1.110   .     S
C533   H541    1.105   .     S
C533   C534    1.540   .     S
C533   H542    1.104   .     S
C534   H540    1.113   .     S
C534   H539    1.109   .     S
C534   C535    1.527   .     S
C535   H537    1.108   .     S
C535   H538    1.110   .     S
C535   H536    1.110   .     S
C545   H554    1.107   .     S
C545   C546    1.537   .     S
C545   H553    1.106   .     S
C546   H552    1.112   .     S
C546   C547    1.520   .     S
C546   H551    1.109   .     S
C547   H549    1.110   .     S
C547   H550    1.110   .     S
H548   C359    1.109   1_655 S
C555   H563    1.106   .     S
C555   H564    1.107   .     S
C555   C556    1.537   .     S
C556   H561    1.109   .     S
C556   C557    1.520   .     S
C556   H562    1.112   .     S
C557   H560    1.110   .     S
C557   H559    1.110   .     S
C557   H370    1.109   1_655 S
C565   O607    1.293   .     A
C565   C574    1.458   .     S
C565   O610    1.293   .     A
C566   O608    1.293   .     A
C566   O609    1.293   .     A
C566   C573    1.458   .     S
C567   C592    1.418   .     A
C567   C639    1.525   .     S
C567   C1439   1.403   1_554 S
C568   C649    1.525   .     S
C568   C591    1.418   .     A
C568   C1440   1.403   .     S
C569   H597    1.083   .     S
C569   C574    1.402   .     A
C569   C759    1.387   1_455 S
C570   C573    1.402   .     A
C570   H598    1.083   .     S
C570   C666    1.387   .     S
C571   C573    1.402   .     A
C571   H599    1.083   .     S
C571   C663    1.387   .     S
C572   H600    1.083   .     S
C572   C574    1.402   .     A
C572   C758    1.387   1_455 S
C575   N606    1.367   .     A
C575   H601    1.082   .     S
C576   N605    1.367   .     A
C576   H602    1.082   .     S
C576   C13     1.416   1_565 S
C577   N606    1.367   .     A
C577   H603    1.082   .     S
C578   N605    1.367   .     A
C578   H604    1.082   .     S
C578   C11     1.416   1_565 S
C579   O611    1.288   .     A
C579   O614    1.290   .     A
C579   C584    1.452   .     S
C580   O612    1.290   .     A
C580   O613    1.288   .     A
C580   C583    1.452   .     S
C581   F615    1.358   .     S
C581   C591    1.402   .     A
C581   C583    1.387   .     A
C582   F616    1.358   .     S
C582   C592    1.402   .     A
C582   C584    1.387   .     A
C583   C585    1.411   .     A
C584   C586    1.411   .     A
C585   C587    1.427   .     A
C585   C617    1.533   .     S
C586   C627    1.533   .     S
C586   C588    1.427   .     A
C587   C593    1.413   .     A
C587   C589    1.426   .     A
C588   C590    1.426   .     A
C588   C594    1.413   .     A
C589   C591    1.415   .     A
C589   C1436   1.413   .     S
C590   C592    1.415   .     A
C590   C1435   1.413   1_554 S
C593   F637    1.353   .     S
C593   C1413   1.403   .     S
C594   F638    1.353   .     S
C594   C1414   1.403   1_554 S
Cu595  O607    1.976   .     S
Cu595  O611    1.961   .     S
Cu595  O613    1.961   .     S
Cu595  Cu596   2.676   .     S
Cu595  N605    2.011   .     S
Cu595  O609    1.976   .     S
Cu596  O612    1.961   .     S
Cu596  O608    1.976   .     S
Cu596  O614    1.961   .     S
Cu596  O610    1.976   .     S
Cu596  N606    2.011   .     S
C617   C618    1.540   .     S
C617   H626    1.104   .     S
C617   H625    1.105   .     S
C618   H624    1.113   .     S
C618   H623    1.109   .     S
C618   C619    1.527   .     S
C619   H620    1.110   .     S
C619   H621    1.108   .     S
C619   H622    1.110   .     S
C627   H635    1.105   .     S
C627   C628    1.540   .     S
C627   H636    1.104   .     S
C628   H634    1.113   .     S
C628   H633    1.109   .     S
C628   C629    1.527   .     S
C629   H631    1.108   .     S
C629   H632    1.110   .     S
C629   H630    1.110   .     S
C639   H648    1.107   .     S
C639   C640    1.537   .     S
C639   H647    1.106   .     S
C640   H646    1.112   .     S
C640   C641    1.520   .     S
C640   H645    1.109   .     S
C641   H643    1.110   .     S
C641   H644    1.110   .     S
C641   H830    1.109   1_455 S
H642   C735    1.109   .     S
C649   H657    1.106   .     S
C649   H658    1.107   .     S
C649   C650    1.537   .     S
C650   H655    1.109   .     S
C650   C651    1.520   .     S
C650   H656    1.112   .     S
C651   H654    1.110   .     S
C651   H653    1.110   .     S
C651   H746    1.109   .     S
H652   C839    1.109   1_455 S
C659   O701    1.293   .     A
C659   C668    1.458   .     S
C659   O704    1.293   .     A
C660   O702    1.293   .     A
C660   O703    1.293   .     A
C660   C667    1.458   .     S
C661   C686    1.418   .     A
C661   C733    1.525   .     S
C661   C1533   1.403   1_554 S
C662   C743    1.525   .     S
C662   C685    1.418   .     A
C662   C1534   1.403   .     S
C663   H691    1.083   .     S
C663   C668    1.402   .     A
C664   C667    1.402   .     A
C664   H692    1.083   .     S
C664   C760    1.387   .     S
C665   C667    1.402   .     A
C665   H693    1.083   .     S
C665   C757    1.387   .     S
C666   H694    1.083   .     S
C666   C668    1.402   .     A
C669   N700    1.367   .     A
C669   H695    1.082   .     S
C670   N699    1.367   .     A
C670   H696    1.082   .     S
C670   C107    1.416   1_565 S
C671   N700    1.367   .     A
C671   H697    1.082   .     S
C672   N699    1.367   .     A
C672   H698    1.082   .     S
C672   C105    1.416   1_565 S
C673   O705    1.288   .     A
C673   O708    1.290   .     A
C673   C678    1.452   .     S
C674   O706    1.290   .     A
C674   O707    1.288   .     A
C674   C677    1.452   .     S
C675   F709    1.358   .     S
C675   C685    1.402   .     A
C675   C677    1.387   .     A
C676   F710    1.358   .     S
C676   C686    1.402   .     A
C676   C678    1.387   .     A
C677   C679    1.411   .     A
C678   C680    1.411   .     A
C679   C681    1.427   .     A
C679   C711    1.533   .     S
C680   C721    1.533   .     S
C680   C682    1.427   .     A
C681   C687    1.413   .     A
C681   C683    1.426   .     A
C682   C684    1.426   .     A
C682   C688    1.413   .     A
C683   C685    1.415   .     A
C683   C1530   1.413   .     S
C684   C686    1.415   .     A
C684   C1529   1.413   1_554 S
C687   F731    1.353   .     S
C687   C1507   1.403   .     S
C688   F732    1.353   .     S
C688   C1508   1.403   1_554 S
Cu689  O701    1.976   .     S
Cu689  O705    1.961   .     S
Cu689  O707    1.961   .     S
Cu689  Cu690   2.676   .     S
Cu689  N699    2.011   .     S
Cu689  O703    1.976   .     S
Cu690  O706    1.961   .     S
Cu690  O702    1.976   .     S
Cu690  O708    1.961   .     S
Cu690  O704    1.976   .     S
Cu690  N700    2.011   .     S
C711   C712    1.540   .     S
C711   H720    1.104   .     S
C711   H719    1.105   .     S
C712   H718    1.113   .     S
C712   H717    1.109   .     S
C712   C713    1.527   .     S
C713   H714    1.110   .     S
C713   H715    1.108   .     S
C713   H716    1.110   .     S
C721   H729    1.105   .     S
C721   C722    1.540   .     S
C721   H730    1.104   .     S
C722   H728    1.113   .     S
C722   H727    1.109   .     S
C722   C723    1.527   .     S
C723   H725    1.108   .     S
C723   H726    1.110   .     S
C723   H724    1.110   .     S
C733   H742    1.107   .     S
C733   C734    1.537   .     S
C733   H741    1.106   .     S
C734   H740    1.112   .     S
C734   C735    1.520   .     S
C734   H739    1.109   .     S
C735   H737    1.110   .     S
C735   H738    1.110   .     S
H736   C829    1.109   .     S
C743   H751    1.106   .     S
C743   H752    1.107   .     S
C743   C744    1.537   .     S
C744   H749    1.109   .     S
C744   C745    1.520   .     S
C744   H750    1.112   .     S
C745   H748    1.110   .     S
C745   H747    1.110   .     S
C745   H840    1.109   .     S
C753   O795    1.293   .     A
C753   C762    1.458   .     S
C753   O798    1.293   .     A
C754   O796    1.293   .     A
C754   O797    1.293   .     A
C754   C761    1.458   .     S
C755   C780    1.418   .     A
C755   C827    1.525   .     S
C755   C1627   1.403   1_554 S
C756   C837    1.525   .     S
C756   C779    1.418   .     A
C756   C1628   1.403   .     S
C757   H785    1.083   .     S
C757   C762    1.402   .     A
C758   C761    1.402   .     A
C758   H786    1.083   .     S
C758   C572    1.387   1_655 S
C759   C761    1.402   .     A
C759   H787    1.083   .     S
C759   C569    1.387   1_655 S
C760   H788    1.083   .     S
C760   C762    1.402   .     A
C763   N794    1.367   .     A
C763   H789    1.082   .     S
C764   N793    1.367   .     A
C764   H790    1.082   .     S
C764   C201    1.416   1_565 S
C765   N794    1.367   .     A
C765   H791    1.082   .     S
C766   N793    1.367   .     A
C766   H792    1.082   .     S
C766   C199    1.416   1_565 S
C767   O799    1.288   .     A
C767   O802    1.290   .     A
C767   C772    1.452   .     S
C768   O800    1.290   .     A
C768   O801    1.288   .     A
C768   C771    1.452   .     S
C769   F803    1.358   .     S
C769   C779    1.402   .     A
C769   C771    1.387   .     A
C770   F804    1.358   .     S
C770   C780    1.402   .     A
C770   C772    1.387   .     A
C771   C773    1.411   .     A
C772   C774    1.411   .     A
C773   C775    1.427   .     A
C773   C805    1.533   .     S
C774   C815    1.533   .     S
C774   C776    1.427   .     A
C775   C781    1.413   .     A
C775   C777    1.426   .     A
C776   C778    1.426   .     A
C776   C782    1.413   .     A
C777   C779    1.415   .     A
C777   C1624   1.413   .     S
C778   C780    1.415   .     A
C778   C1623   1.413   1_554 S
C781   F825    1.353   .     S
C781   C1601   1.403   .     S
C782   F826    1.353   .     S
C782   C1602   1.403   1_554 S
Cu783  O795    1.976   .     S
Cu783  O799    1.961   .     S
Cu783  O801    1.961   .     S
Cu783  Cu784   2.676   .     S
Cu783  N793    2.011   .     S
Cu783  O797    1.976   .     S
Cu784  O800    1.961   .     S
Cu784  O796    1.976   .     S
Cu784  O802    1.961   .     S
Cu784  O798    1.976   .     S
Cu784  N794    2.011   .     S
C805   C806    1.540   .     S
C805   H814    1.104   .     S
C805   H813    1.105   .     S
C806   H812    1.113   .     S
C806   H811    1.109   .     S
C806   C807    1.527   .     S
C807   H808    1.110   .     S
C807   H809    1.108   .     S
C807   H810    1.110   .     S
C815   H823    1.105   .     S
C815   C816    1.540   .     S
C815   H824    1.104   .     S
C816   H822    1.113   .     S
C816   H821    1.109   .     S
C816   C817    1.527   .     S
C817   H819    1.108   .     S
C817   H820    1.110   .     S
C817   H818    1.110   .     S
C827   H836    1.107   .     S
C827   C828    1.537   .     S
C827   H835    1.106   .     S
C828   H834    1.112   .     S
C828   C829    1.520   .     S
C828   H833    1.109   .     S
C829   H831    1.110   .     S
C829   H832    1.110   .     S
H830   C641    1.109   1_655 S
C837   H845    1.106   .     S
C837   H846    1.107   .     S
C837   C838    1.537   .     S
C838   H843    1.109   .     S
C838   C839    1.520   .     S
C838   H844    1.112   .     S
C839   H842    1.110   .     S
C839   H841    1.110   .     S
C839   H652    1.109   1_655 S
C847   O889    1.293   .     A
C847   C856    1.458   .     S
C847   O892    1.293   .     A
C848   O890    1.293   .     A
C848   O891    1.293   .     A
C848   C855    1.458   .     S
C849   C874    1.418   .     A
C849   C921    1.525   .     S
C850   C931    1.525   .     S
C850   C873    1.418   .     A
C850   C30     1.403   1_556 S
C851   H879    1.083   .     S
C851   C856    1.402   .     A
C851   C1041   1.387   1_455 S
C852   C855    1.402   .     A
C852   H880    1.083   .     S
C852   C948    1.387   .     S
C853   C855    1.402   .     A
C853   H881    1.083   .     S
C853   C945    1.387   .     S
C854   H882    1.083   .     S
C854   C856    1.402   .     A
C854   C1040   1.387   1_455 S
C857   N888    1.367   .     A
C857   H883    1.082   .     S
C857   C1424   1.416   1_545 S
C858   N887    1.367   .     A
C858   H884    1.082   .     S
C858   C1141   1.416   .     S
C859   N888    1.367   .     A
C859   H885    1.082   .     S
C859   C1422   1.416   1_545 S
C860   N887    1.367   .     A
C860   H886    1.082   .     S
C860   C1139   1.416   .     S
C861   O893    1.288   .     A
C861   O896    1.290   .     A
C861   C866    1.452   .     S
C862   O894    1.290   .     A
C862   O895    1.288   .     A
C862   C865    1.452   .     S
C863   F897    1.358   .     S
C863   C873    1.402   .     A
C863   C865    1.387   .     A
C864   F898    1.358   .     S
C864   C874    1.402   .     A
C864   C866    1.387   .     A
C865   C867    1.411   .     A
C866   C868    1.411   .     A
C867   C869    1.427   .     A
C867   C899    1.533   .     S
C868   C909    1.533   .     S
C868   C870    1.427   .     A
C869   C875    1.413   .     A
C869   C871    1.426   .     A
C870   C872    1.426   .     A
C870   C876    1.413   .     A
C871   C873    1.415   .     A
C871   C26     1.413   1_556 S
C872   C874    1.415   .     A
C875   F919    1.353   .     S
C875   C3      1.403   1_556 S
C876   F920    1.353   .     S
Cu877  O889    1.976   .     S
Cu877  O893    1.961   .     S
Cu877  O895    1.961   .     S
Cu877  Cu878   2.676   .     S
Cu877  N887    2.011   .     S
Cu877  O891    1.976   .     S
Cu878  O894    1.961   .     S
Cu878  O890    1.976   .     S
Cu878  O896    1.961   .     S
Cu878  O892    1.976   .     S
Cu878  N888    2.011   .     S
C899   C900    1.540   .     S
C899   H908    1.104   .     S
C899   H907    1.105   .     S
C900   H906    1.113   .     S
C900   H905    1.109   .     S
C900   C901    1.527   .     S
C901   H902    1.110   .     S
C901   H903    1.108   .     S
C901   H904    1.110   .     S
C909   H917    1.105   .     S
C909   C910    1.540   .     S
C909   H918    1.104   .     S
C910   H916    1.113   .     S
C910   H915    1.109   .     S
C910   C911    1.527   .     S
C911   H913    1.108   .     S
C911   H914    1.110   .     S
C911   H912    1.110   .     S
C921   H930    1.107   .     S
C921   C922    1.537   .     S
C921   H929    1.106   .     S
C922   H928    1.112   .     S
C922   C923    1.520   .     S
C922   H927    1.109   .     S
C923   H925    1.110   .     S
C923   H926    1.110   .     S
C923   H1112   1.109   1_455 S
H924   C1017   1.109   .     S
C931   H939    1.106   .     S
C931   H940    1.107   .     S
C931   C932    1.537   .     S
C932   H937    1.109   .     S
C932   C933    1.520   .     S
C932   H938    1.112   .     S
C933   H936    1.110   .     S
C933   H935    1.110   .     S
C933   H1028   1.109   .     S
H934   C1121   1.109   1_455 S
C941   O983    1.293   .     A
C941   C950    1.458   .     S
C941   O986    1.293   .     A
C942   O984    1.293   .     A
C942   O985    1.293   .     A
C942   C949    1.458   .     S
C943   C968    1.418   .     A
C943   C1015   1.525   .     S
C944   C1025   1.525   .     S
C944   C967    1.418   .     A
C944   C124    1.403   1_556 S
C945   H973    1.083   .     S
C945   C950    1.402   .     A
C946   C949    1.402   .     A
C946   H974    1.083   .     S
C946   C1042   1.387   .     S
C947   C949    1.402   .     A
C947   H975    1.083   .     S
C947   C1039   1.387   .     S
C948   H976    1.083   .     S
C948   C950    1.402   .     A
C951   N982    1.367   .     A
C951   H977    1.082   .     S
C951   C1518   1.416   1_545 S
C952   N981    1.367   .     A
C952   H978    1.082   .     S
C952   C1235   1.416   .     S
C953   N982    1.367   .     A
C953   H979    1.082   .     S
C953   C1516   1.416   1_545 S
C954   N981    1.367   .     A
C954   H980    1.082   .     S
C954   C1233   1.416   .     S
C955   O987    1.288   .     A
C955   O990    1.290   .     A
C955   C960    1.452   .     S
C956   O988    1.290   .     A
C956   O989    1.288   .     A
C956   C959    1.452   .     S
C957   F991    1.358   .     S
C957   C967    1.402   .     A
C957   C959    1.387   .     A
C958   F992    1.358   .     S
C958   C968    1.402   .     A
C958   C960    1.387   .     A
C959   C961    1.411   .     A
C960   C962    1.411   .     A
C961   C963    1.427   .     A
C961   C993    1.533   .     S
C962   C1003   1.533   .     S
C962   C964    1.427   .     A
C963   C969    1.413   .     A
C963   C965    1.426   .     A
C964   C966    1.426   .     A
C964   C970    1.413   .     A
C965   C967    1.415   .     A
C965   C120    1.413   1_556 S
C966   C968    1.415   .     A
C969   F1013   1.353   .     S
C969   C97     1.403   1_556 S
C970   F1014   1.353   .     S
Cu971  O983    1.976   .     S
Cu971  O987    1.961   .     S
Cu971  O989    1.961   .     S
Cu971  Cu972   2.676   .     S
Cu971  N981    2.011   .     S
Cu971  O985    1.976   .     S
Cu972  O988    1.961   .     S
Cu972  O984    1.976   .     S
Cu972  O990    1.961   .     S
Cu972  O986    1.976   .     S
Cu972  N982    2.011   .     S
C993   C994    1.540   .     S
C993   H1002   1.104   .     S
C993   H1001   1.105   .     S
C994   H1000   1.113   .     S
C994   H999    1.109   .     S
C994   C995    1.527   .     S
C995   H996    1.110   .     S
C995   H997    1.108   .     S
C995   H998    1.110   .     S
C1003  H1011   1.105   .     S
C1003  C1004   1.540   .     S
C1003  H1012   1.104   .     S
C1004  H1010   1.113   .     S
C1004  H1009   1.109   .     S
C1004  C1005   1.527   .     S
C1005  H1007   1.108   .     S
C1005  H1008   1.110   .     S
C1005  H1006   1.110   .     S
C1015  H1024   1.107   .     S
C1015  C1016   1.537   .     S
C1015  H1023   1.106   .     S
C1016  H1022   1.112   .     S
C1016  C1017   1.520   .     S
C1016  H1021   1.109   .     S
C1017  H1019   1.110   .     S
C1017  H1020   1.110   .     S
H1018  C1111   1.109   .     S
C1025  H1033   1.106   .     S
C1025  H1034   1.107   .     S
C1025  C1026   1.537   .     S
C1026  H1031   1.109   .     S
C1026  C1027   1.520   .     S
C1026  H1032   1.112   .     S
C1027  H1030   1.110   .     S
C1027  H1029   1.110   .     S
C1027  H1122   1.109   .     S
C1035  O1077   1.293   .     A
C1035  C1044   1.458   .     S
C1035  O1080   1.293   .     A
C1036  O1078   1.293   .     A
C1036  O1079   1.293   .     A
C1036  C1043   1.458   .     S
C1037  C1062   1.418   .     A
C1037  C1109   1.525   .     S
C1038  C1119   1.525   .     S
C1038  C1061   1.418   .     A
C1038  C218    1.403   1_556 S
C1039  H1067   1.083   .     S
C1039  C1044   1.402   .     A
C1040  C1043   1.402   .     A
C1040  H1068   1.083   .     S
C1040  C854    1.387   1_655 S
C1041  C1043   1.402   .     A
C1041  H1069   1.083   .     S
C1041  C851    1.387   1_655 S
C1042  H1070   1.083   .     S
C1042  C1044   1.402   .     A
C1045  N1076   1.367   .     A
C1045  H1071   1.082   .     S
C1045  C1612   1.416   1_545 S
C1046  N1075   1.367   .     A
C1046  H1072   1.082   .     S
C1046  C1329   1.416   .     S
C1047  N1076   1.367   .     A
C1047  H1073   1.082   .     S
C1047  C1610   1.416   1_545 S
C1048  N1075   1.367   .     A
C1048  H1074   1.082   .     S
C1048  C1327   1.416   .     S
C1049  O1081   1.288   .     A
C1049  O1084   1.290   .     A
C1049  C1054   1.452   .     S
C1050  O1082   1.290   .     A
C1050  O1083   1.288   .     A
C1050  C1053   1.452   .     S
C1051  F1085   1.358   .     S
C1051  C1061   1.402   .     A
C1051  C1053   1.387   .     A
C1052  F1086   1.358   .     S
C1052  C1062   1.402   .     A
C1052  C1054   1.387   .     A
C1053  C1055   1.411   .     A
C1054  C1056   1.411   .     A
C1055  C1057   1.427   .     A
C1055  C1087   1.533   .     S
C1056  C1097   1.533   .     S
C1056  C1058   1.427   .     A
C1057  C1063   1.413   .     A
C1057  C1059   1.426   .     A
C1058  C1060   1.426   .     A
C1058  C1064   1.413   .     A
C1059  C1061   1.415   .     A
C1059  C214    1.413   1_556 S
C1060  C1062   1.415   .     A
C1063  F1107   1.353   .     S
C1063  C191    1.403   1_556 S
C1064  F1108   1.353   .     S
Cu1065 O1077   1.976   .     S
Cu1065 O1081   1.961   .     S
Cu1065 O1083   1.961   .     S
Cu1065 Cu1066  2.676   .     S
Cu1065 N1075   2.011   .     S
Cu1065 O1079   1.976   .     S
Cu1066 O1082   1.961   .     S
Cu1066 O1078   1.976   .     S
Cu1066 O1084   1.961   .     S
Cu1066 O1080   1.976   .     S
Cu1066 N1076   2.011   .     S
C1087  C1088   1.540   .     S
C1087  H1096   1.104   .     S
C1087  H1095   1.105   .     S
C1088  H1094   1.113   .     S
C1088  H1093   1.109   .     S
C1088  C1089   1.527   .     S
C1089  H1090   1.110   .     S
C1089  H1091   1.108   .     S
C1089  H1092   1.110   .     S
C1097  H1105   1.105   .     S
C1097  C1098   1.540   .     S
C1097  H1106   1.104   .     S
C1098  H1104   1.113   .     S
C1098  H1103   1.109   .     S
C1098  C1099   1.527   .     S
C1099  H1101   1.108   .     S
C1099  H1102   1.110   .     S
C1099  H1100   1.110   .     S
C1109  H1118   1.107   .     S
C1109  C1110   1.537   .     S
C1109  H1117   1.106   .     S
C1110  H1116   1.112   .     S
C1110  C1111   1.520   .     S
C1110  H1115   1.109   .     S
C1111  H1113   1.110   .     S
C1111  H1114   1.110   .     S
H1112  C923    1.109   1_655 S
C1119  H1127   1.106   .     S
C1119  H1128   1.107   .     S
C1119  C1120   1.537   .     S
C1120  H1125   1.109   .     S
C1120  C1121   1.520   .     S
C1120  H1126   1.112   .     S
C1121  H1124   1.110   .     S
C1121  H1123   1.110   .     S
C1121  H934    1.109   1_655 S
C1129  O1171   1.293   .     A
C1129  C1138   1.458   .     S
C1129  O1174   1.293   .     A
C1130  O1172   1.293   .     A
C1130  O1173   1.293   .     A
C1130  C1137   1.458   .     S
C1131  C1156   1.418   .     A
C1131  C1203   1.525   .     S
C1132  C1213   1.525   .     S
C1132  C1155   1.418   .     A
C1132  C312    1.403   1_556 S
C1133  H1161   1.083   .     S
C1133  C1138   1.402   .     A
C1133  C1323   1.387   1_455 S
C1134  C1137   1.402   .     A
C1134  H1162   1.083   .     S
C1134  C1230   1.387   .     S
C1135  C1137   1.402   .     A
C1135  H1163   1.083   .     S
C1135  C1227   1.387   .     S
C1136  H1164   1.083   .     S
C1136  C1138   1.402   .     A
C1136  C1322   1.387   1_455 S
C1139  N1170   1.367   .     A
C1139  H1165   1.082   .     S
C1140  N1169   1.367   .     A
C1140  H1166   1.082   .     S
C1140  C1423   1.416   .     S
C1141  N1170   1.367   .     A
C1141  H1167   1.082   .     S
C1142  N1169   1.367   .     A
C1142  H1168   1.082   .     S
C1142  C1421   1.416   .     S
C1143  O1175   1.288   .     A
C1143  O1178   1.290   .     A
C1143  C1148   1.452   .     S
C1144  O1176   1.290   .     A
C1144  O1177   1.288   .     A
C1144  C1147   1.452   .     S
C1145  F1179   1.358   .     S
C1145  C1155   1.402   .     A
C1145  C1147   1.387   .     A
C1146  F1180   1.358   .     S
C1146  C1156   1.402   .     A
C1146  C1148   1.387   .     A
C1147  C1149   1.411   .     A
C1148  C1150   1.411   .     A
C1149  C1151   1.427   .     A
C1149  C1181   1.533   .     S
C1150  C1191   1.533   .     S
C1150  C1152   1.427   .     A
C1151  C1157   1.413   .     A
C1151  C1153   1.426   .     A
C1152  C1154   1.426   .     A
C1152  C1158   1.413   .     A
C1153  C1155   1.415   .     A
C1153  C308    1.413   1_556 S
C1154  C1156   1.415   .     A
C1157  F1201   1.353   .     S
C1157  C285    1.403   1_556 S
C1158  F1202   1.353   .     S
Cu1159 O1171   1.976   .     S
Cu1159 O1175   1.961   .     S
Cu1159 O1177   1.961   .     S
Cu1159 Cu1160  2.676   .     S
Cu1159 N1169   2.011   .     S
Cu1159 O1173   1.976   .     S
Cu1160 O1176   1.961   .     S
Cu1160 O1172   1.976   .     S
Cu1160 O1178   1.961   .     S
Cu1160 O1174   1.976   .     S
Cu1160 N1170   2.011   .     S
C1181  C1182   1.540   .     S
C1181  H1190   1.104   .     S
C1181  H1189   1.105   .     S
C1182  H1188   1.113   .     S
C1182  H1187   1.109   .     S
C1182  C1183   1.527   .     S
C1183  H1184   1.110   .     S
C1183  H1185   1.108   .     S
C1183  H1186   1.110   .     S
C1191  H1199   1.105   .     S
C1191  C1192   1.540   .     S
C1191  H1200   1.104   .     S
C1192  H1198   1.113   .     S
C1192  H1197   1.109   .     S
C1192  C1193   1.527   .     S
C1193  H1195   1.108   .     S
C1193  H1196   1.110   .     S
C1193  H1194   1.110   .     S
C1203  H1212   1.107   .     S
C1203  C1204   1.537   .     S
C1203  H1211   1.106   .     S
C1204  H1210   1.112   .     S
C1204  C1205   1.520   .     S
C1204  H1209   1.109   .     S
C1205  H1207   1.110   .     S
C1205  H1208   1.110   .     S
C1205  H1394   1.109   1_455 S
H1206  C1299   1.109   .     S
C1213  H1221   1.106   .     S
C1213  H1222   1.107   .     S
C1213  C1214   1.537   .     S
C1214  H1219   1.109   .     S
C1214  C1215   1.520   .     S
C1214  H1220   1.112   .     S
C1215  H1218   1.110   .     S
C1215  H1217   1.110   .     S
C1215  H1310   1.109   .     S
H1216  C1403   1.109   1_455 S
C1223  O1265   1.293   .     A
C1223  C1232   1.458   .     S
C1223  O1268   1.293   .     A
C1224  O1266   1.293   .     A
C1224  O1267   1.293   .     A
C1224  C1231   1.458   .     S
C1225  C1250   1.418   .     A
C1225  C1297   1.525   .     S
C1226  C1307   1.525   .     S
C1226  C1249   1.418   .     A
C1226  C406    1.403   1_556 S
C1227  H1255   1.083   .     S
C1227  C1232   1.402   .     A
C1228  C1231   1.402   .     A
C1228  H1256   1.083   .     S
C1228  C1324   1.387   .     S
C1229  C1231   1.402   .     A
C1229  H1257   1.083   .     S
C1229  C1321   1.387   .     S
C1230  H1258   1.083   .     S
C1230  C1232   1.402   .     A
C1233  N1264   1.367   .     A
C1233  H1259   1.082   .     S
C1234  N1263   1.367   .     A
C1234  H1260   1.082   .     S
C1234  C1517   1.416   .     S
C1235  N1264   1.367   .     A
C1235  H1261   1.082   .     S
C1236  N1263   1.367   .     A
C1236  H1262   1.082   .     S
C1236  C1515   1.416   .     S
C1237  O1269   1.288   .     A
C1237  O1272   1.290   .     A
C1237  C1242   1.452   .     S
C1238  O1270   1.290   .     A
C1238  O1271   1.288   .     A
C1238  C1241   1.452   .     S
C1239  F1273   1.358   .     S
C1239  C1249   1.402   .     A
C1239  C1241   1.387   .     A
C1240  F1274   1.358   .     S
C1240  C1250   1.402   .     A
C1240  C1242   1.387   .     A
C1241  C1243   1.411   .     A
C1242  C1244   1.411   .     A
C1243  C1245   1.427   .     A
C1243  C1275   1.533   .     S
C1244  C1285   1.533   .     S
C1244  C1246   1.427   .     A
C1245  C1251   1.413   .     A
C1245  C1247   1.426   .     A
C1246  C1248   1.426   .     A
C1246  C1252   1.413   .     A
C1247  C1249   1.415   .     A
C1247  C402    1.413   1_556 S
C1248  C1250   1.415   .     A
C1251  F1295   1.353   .     S
C1251  C379    1.403   1_556 S
C1252  F1296   1.353   .     S
Cu1253 O1265   1.976   .     S
Cu1253 O1269   1.961   .     S
Cu1253 O1271   1.961   .     S
Cu1253 Cu1254  2.676   .     S
Cu1253 N1263   2.011   .     S
Cu1253 O1267   1.976   .     S
Cu1254 O1270   1.961   .     S
Cu1254 O1266   1.976   .     S
Cu1254 O1272   1.961   .     S
Cu1254 O1268   1.976   .     S
Cu1254 N1264   2.011   .     S
C1275  C1276   1.540   .     S
C1275  H1284   1.104   .     S
C1275  H1283   1.105   .     S
C1276  H1282   1.113   .     S
C1276  H1281   1.109   .     S
C1276  C1277   1.527   .     S
C1277  H1278   1.110   .     S
C1277  H1279   1.108   .     S
C1277  H1280   1.110   .     S
C1285  H1293   1.105   .     S
C1285  C1286   1.540   .     S
C1285  H1294   1.104   .     S
C1286  H1292   1.113   .     S
C1286  H1291   1.109   .     S
C1286  C1287   1.527   .     S
C1287  H1289   1.108   .     S
C1287  H1290   1.110   .     S
C1287  H1288   1.110   .     S
C1297  H1306   1.107   .     S
C1297  C1298   1.537   .     S
C1297  H1305   1.106   .     S
C1298  H1304   1.112   .     S
C1298  C1299   1.520   .     S
C1298  H1303   1.109   .     S
C1299  H1301   1.110   .     S
C1299  H1302   1.110   .     S
H1300  C1393   1.109   .     S
C1307  H1315   1.106   .     S
C1307  H1316   1.107   .     S
C1307  C1308   1.537   .     S
C1308  H1313   1.109   .     S
C1308  C1309   1.520   .     S
C1308  H1314   1.112   .     S
C1309  H1312   1.110   .     S
C1309  H1311   1.110   .     S
C1309  H1404   1.109   .     S
C1317  O1359   1.293   .     A
C1317  C1326   1.458   .     S
C1317  O1362   1.293   .     A
C1318  O1360   1.293   .     A
C1318  O1361   1.293   .     A
C1318  C1325   1.458   .     S
C1319  C1344   1.418   .     A
C1319  C1391   1.525   .     S
C1320  C1401   1.525   .     S
C1320  C1343   1.418   .     A
C1320  C500    1.403   1_556 S
C1321  H1349   1.083   .     S
C1321  C1326   1.402   .     A
C1322  C1325   1.402   .     A
C1322  H1350   1.083   .     S
C1322  C1136   1.387   1_655 S
C1323  C1325   1.402   .     A
C1323  H1351   1.083   .     S
C1323  C1133   1.387   1_655 S
C1324  H1352   1.083   .     S
C1324  C1326   1.402   .     A
C1327  N1358   1.367   .     A
C1327  H1353   1.082   .     S
C1328  N1357   1.367   .     A
C1328  H1354   1.082   .     S
C1328  C1611   1.416   .     S
C1329  N1358   1.367   .     A
C1329  H1355   1.082   .     S
C1330  N1357   1.367   .     A
C1330  H1356   1.082   .     S
C1330  C1609   1.416   .     S
C1331  O1363   1.288   .     A
C1331  O1366   1.290   .     A
C1331  C1336   1.452   .     S
C1332  O1364   1.290   .     A
C1332  O1365   1.288   .     A
C1332  C1335   1.452   .     S
C1333  F1367   1.358   .     S
C1333  C1343   1.402   .     A
C1333  C1335   1.387   .     A
C1334  F1368   1.358   .     S
C1334  C1344   1.402   .     A
C1334  C1336   1.387   .     A
C1335  C1337   1.411   .     A
C1336  C1338   1.411   .     A
C1337  C1339   1.427   .     A
C1337  C1369   1.533   .     S
C1338  C1379   1.533   .     S
C1338  C1340   1.427   .     A
C1339  C1345   1.413   .     A
C1339  C1341   1.426   .     A
C1340  C1342   1.426   .     A
C1340  C1346   1.413   .     A
C1341  C1343   1.415   .     A
C1341  C496    1.413   1_556 S
C1342  C1344   1.415   .     A
C1345  F1389   1.353   .     S
C1345  C473    1.403   1_556 S
C1346  F1390   1.353   .     S
Cu1347 O1359   1.976   .     S
Cu1347 O1363   1.961   .     S
Cu1347 O1365   1.961   .     S
Cu1347 Cu1348  2.676   .     S
Cu1347 N1357   2.011   .     S
Cu1347 O1361   1.976   .     S
Cu1348 O1364   1.961   .     S
Cu1348 O1360   1.976   .     S
Cu1348 O1366   1.961   .     S
Cu1348 O1362   1.976   .     S
Cu1348 N1358   2.011   .     S
C1369  C1370   1.540   .     S
C1369  H1378   1.104   .     S
C1369  H1377   1.105   .     S
C1370  H1376   1.113   .     S
C1370  H1375   1.109   .     S
C1370  C1371   1.527   .     S
C1371  H1372   1.110   .     S
C1371  H1373   1.108   .     S
C1371  H1374   1.110   .     S
C1379  H1387   1.105   .     S
C1379  C1380   1.540   .     S
C1379  H1388   1.104   .     S
C1380  H1386   1.113   .     S
C1380  H1385   1.109   .     S
C1380  C1381   1.527   .     S
C1381  H1383   1.108   .     S
C1381  H1384   1.110   .     S
C1381  H1382   1.110   .     S
C1391  H1400   1.107   .     S
C1391  C1392   1.537   .     S
C1391  H1399   1.106   .     S
C1392  H1398   1.112   .     S
C1392  C1393   1.520   .     S
C1392  H1397   1.109   .     S
C1393  H1395   1.110   .     S
C1393  H1396   1.110   .     S
H1394  C1205   1.109   1_655 S
C1401  H1409   1.106   .     S
C1401  H1410   1.107   .     S
C1401  C1402   1.537   .     S
C1402  H1407   1.109   .     S
C1402  C1403   1.520   .     S
C1402  H1408   1.112   .     S
C1403  H1406   1.110   .     S
C1403  H1405   1.110   .     S
C1403  H1216   1.109   1_655 S
C1411  O1453   1.293   .     A
C1411  C1420   1.458   .     S
C1411  O1456   1.293   .     A
C1412  O1454   1.293   .     A
C1412  O1455   1.293   .     A
C1412  C1419   1.458   .     S
C1413  C1438   1.418   .     A
C1413  C1485   1.525   .     S
C1414  C1495   1.525   .     S
C1414  C1437   1.418   .     A
C1414  C594    1.403   1_556 S
C1415  H1443   1.083   .     S
C1415  C1420   1.402   .     A
C1415  C1605   1.387   1_455 S
C1416  C1419   1.402   .     A
C1416  H1444   1.083   .     S
C1416  C1512   1.387   .     S
C1417  C1419   1.402   .     A
C1417  H1445   1.083   .     S
C1417  C1509   1.387   .     S
C1418  H1446   1.083   .     S
C1418  C1420   1.402   .     A
C1418  C1604   1.387   1_455 S
C1421  N1452   1.367   .     A
C1421  H1447   1.082   .     S
C1422  N1451   1.367   .     A
C1422  H1448   1.082   .     S
C1422  C859    1.416   1_565 S
C1423  N1452   1.367   .     A
C1423  H1449   1.082   .     S
C1424  N1451   1.367   .     A
C1424  H1450   1.082   .     S
C1424  C857    1.416   1_565 S
C1425  O1457   1.288   .     A
C1425  O1460   1.290   .     A
C1425  C1430   1.452   .     S
C1426  O1458   1.290   .     A
C1426  O1459   1.288   .     A
C1426  C1429   1.452   .     S
C1427  F1461   1.358   .     S
C1427  C1437   1.402   .     A
C1427  C1429   1.387   .     A
C1428  F1462   1.358   .     S
C1428  C1438   1.402   .     A
C1428  C1430   1.387   .     A
C1429  C1431   1.411   .     A
C1430  C1432   1.411   .     A
C1431  C1433   1.427   .     A
C1431  C1463   1.533   .     S
C1432  C1473   1.533   .     S
C1432  C1434   1.427   .     A
C1433  C1439   1.413   .     A
C1433  C1435   1.426   .     A
C1434  C1436   1.426   .     A
C1434  C1440   1.413   .     A
C1435  C1437   1.415   .     A
C1435  C590    1.413   1_556 S
C1436  C1438   1.415   .     A
C1439  F1483   1.353   .     S
C1439  C567    1.403   1_556 S
C1440  F1484   1.353   .     S
Cu1441 O1453   1.976   .     S
Cu1441 O1457   1.961   .     S
Cu1441 O1459   1.961   .     S
Cu1441 Cu1442  2.676   .     S
Cu1441 N1451   2.011   .     S
Cu1441 O1455   1.976   .     S
Cu1442 O1458   1.961   .     S
Cu1442 O1454   1.976   .     S
Cu1442 O1460   1.961   .     S
Cu1442 O1456   1.976   .     S
Cu1442 N1452   2.011   .     S
C1463  C1464   1.540   .     S
C1463  H1472   1.104   .     S
C1463  H1471   1.105   .     S
C1464  H1470   1.113   .     S
C1464  H1469   1.109   .     S
C1464  C1465   1.527   .     S
C1465  H1466   1.110   .     S
C1465  H1467   1.108   .     S
C1465  H1468   1.110   .     S
C1473  H1481   1.105   .     S
C1473  C1474   1.540   .     S
C1473  H1482   1.104   .     S
C1474  H1480   1.113   .     S
C1474  H1479   1.109   .     S
C1474  C1475   1.527   .     S
C1475  H1477   1.108   .     S
C1475  H1478   1.110   .     S
C1475  H1476   1.110   .     S
C1485  H1494   1.107   .     S
C1485  C1486   1.537   .     S
C1485  H1493   1.106   .     S
C1486  H1492   1.112   .     S
C1486  C1487   1.520   .     S
C1486  H1491   1.109   .     S
C1487  H1489   1.110   .     S
C1487  H1490   1.110   .     S
C1487  H1676   1.109   1_455 S
H1488  C1581   1.109   .     S
C1495  H1503   1.106   .     S
C1495  H1504   1.107   .     S
C1495  C1496   1.537   .     S
C1496  H1501   1.109   .     S
C1496  C1497   1.520   .     S
C1496  H1502   1.112   .     S
C1497  H1500   1.110   .     S
C1497  H1499   1.110   .     S
C1497  H1592   1.109   .     S
H1498  C1685   1.109   1_455 S
C1505  O1547   1.293   .     A
C1505  C1514   1.458   .     S
C1505  O1550   1.293   .     A
C1506  O1548   1.293   .     A
C1506  O1549   1.293   .     A
C1506  C1513   1.458   .     S
C1507  C1532   1.418   .     A
C1507  C1579   1.525   .     S
C1508  C1589   1.525   .     S
C1508  C1531   1.418   .     A
C1508  C688    1.403   1_556 S
C1509  H1537   1.083   .     S
C1509  C1514   1.402   .     A
C1510  C1513   1.402   .     A
C1510  H1538   1.083   .     S
C1510  C1606   1.387   .     S
C1511  C1513   1.402   .     A
C1511  H1539   1.083   .     S
C1511  C1603   1.387   .     S
C1512  H1540   1.083   .     S
C1512  C1514   1.402   .     A
C1515  N1546   1.367   .     A
C1515  H1541   1.082   .     S
C1516  N1545   1.367   .     A
C1516  H1542   1.082   .     S
C1516  C953    1.416   1_565 S
C1517  N1546   1.367   .     A
C1517  H1543   1.082   .     S
C1518  N1545   1.367   .     A
C1518  H1544   1.082   .     S
C1518  C951    1.416   1_565 S
C1519  O1551   1.288   .     A
C1519  O1554   1.290   .     A
C1519  C1524   1.452   .     S
C1520  O1552   1.290   .     A
C1520  O1553   1.288   .     A
C1520  C1523   1.452   .     S
C1521  F1555   1.358   .     S
C1521  C1531   1.402   .     A
C1521  C1523   1.387   .     A
C1522  F1556   1.358   .     S
C1522  C1532   1.402   .     A
C1522  C1524   1.387   .     A
C1523  C1525   1.411   .     A
C1524  C1526   1.411   .     A
C1525  C1527   1.427   .     A
C1525  C1557   1.533   .     S
C1526  C1567   1.533   .     S
C1526  C1528   1.427   .     A
C1527  C1533   1.413   .     A
C1527  C1529   1.426   .     A
C1528  C1530   1.426   .     A
C1528  C1534   1.413   .     A
C1529  C1531   1.415   .     A
C1529  C684    1.413   1_556 S
C1530  C1532   1.415   .     A
C1533  F1577   1.353   .     S
C1533  C661    1.403   1_556 S
C1534  F1578   1.353   .     S
Cu1535 O1547   1.976   .     S
Cu1535 O1551   1.961   .     S
Cu1535 O1553   1.961   .     S
Cu1535 Cu1536  2.676   .     S
Cu1535 N1545   2.011   .     S
Cu1535 O1549   1.976   .     S
Cu1536 O1552   1.961   .     S
Cu1536 O1548   1.976   .     S
Cu1536 O1554   1.961   .     S
Cu1536 O1550   1.976   .     S
Cu1536 N1546   2.011   .     S
C1557  C1558   1.540   .     S
C1557  H1566   1.104   .     S
C1557  H1565   1.105   .     S
C1558  H1564   1.113   .     S
C1558  H1563   1.109   .     S
C1558  C1559   1.527   .     S
C1559  H1560   1.110   .     S
C1559  H1561   1.108   .     S
C1559  H1562   1.110   .     S
C1567  H1575   1.105   .     S
C1567  C1568   1.540   .     S
C1567  H1576   1.104   .     S
C1568  H1574   1.113   .     S
C1568  H1573   1.109   .     S
C1568  C1569   1.527   .     S
C1569  H1571   1.108   .     S
C1569  H1572   1.110   .     S
C1569  H1570   1.110   .     S
C1579  H1588   1.107   .     S
C1579  C1580   1.537   .     S
C1579  H1587   1.106   .     S
C1580  H1586   1.112   .     S
C1580  C1581   1.520   .     S
C1580  H1585   1.109   .     S
C1581  H1583   1.110   .     S
C1581  H1584   1.110   .     S
H1582  C1675   1.109   .     S
C1589  H1597   1.106   .     S
C1589  H1598   1.107   .     S
C1589  C1590   1.537   .     S
C1590  H1595   1.109   .     S
C1590  C1591   1.520   .     S
C1590  H1596   1.112   .     S
C1591  H1594   1.110   .     S
C1591  H1593   1.110   .     S
C1591  H1686   1.109   .     S
C1599  O1641   1.293   .     A
C1599  C1608   1.458   .     S
C1599  O1644   1.293   .     A
C1600  O1642   1.293   .     A
C1600  O1643   1.293   .     A
C1600  C1607   1.458   .     S
C1601  C1626   1.418   .     A
C1601  C1673   1.525   .     S
C1602  C1683   1.525   .     S
C1602  C1625   1.418   .     A
C1602  C782    1.403   1_556 S
C1603  H1631   1.083   .     S
C1603  C1608   1.402   .     A
C1604  C1607   1.402   .     A
C1604  H1632   1.083   .     S
C1604  C1418   1.387   1_655 S
C1605  C1607   1.402   .     A
C1605  H1633   1.083   .     S
C1605  C1415   1.387   1_655 S
C1606  H1634   1.083   .     S
C1606  C1608   1.402   .     A
C1609  N1640   1.367   .     A
C1609  H1635   1.082   .     S
C1610  N1639   1.367   .     A
C1610  H1636   1.082   .     S
C1610  C1047   1.416   1_565 S
C1611  N1640   1.367   .     A
C1611  H1637   1.082   .     S
C1612  N1639   1.367   .     A
C1612  H1638   1.082   .     S
C1612  C1045   1.416   1_565 S
C1613  O1645   1.288   .     A
C1613  O1648   1.290   .     A
C1613  C1618   1.452   .     S
C1614  O1646   1.290   .     A
C1614  O1647   1.288   .     A
C1614  C1617   1.452   .     S
C1615  F1649   1.358   .     S
C1615  C1625   1.402   .     A
C1615  C1617   1.387   .     A
C1616  F1650   1.358   .     S
C1616  C1626   1.402   .     A
C1616  C1618   1.387   .     A
C1617  C1619   1.411   .     A
C1618  C1620   1.411   .     A
C1619  C1621   1.427   .     A
C1619  C1651   1.533   .     S
C1620  C1661   1.533   .     S
C1620  C1622   1.427   .     A
C1621  C1627   1.413   .     A
C1621  C1623   1.426   .     A
C1622  C1624   1.426   .     A
C1622  C1628   1.413   .     A
C1623  C1625   1.415   .     A
C1623  C778    1.413   1_556 S
C1624  C1626   1.415   .     A
C1627  F1671   1.353   .     S
C1627  C755    1.403   1_556 S
C1628  F1672   1.353   .     S
Cu1629 O1641   1.976   .     S
Cu1629 O1645   1.961   .     S
Cu1629 O1647   1.961   .     S
Cu1629 Cu1630  2.676   .     S
Cu1629 N1639   2.011   .     S
Cu1629 O1643   1.976   .     S
Cu1630 O1646   1.961   .     S
Cu1630 O1642   1.976   .     S
Cu1630 O1648   1.961   .     S
Cu1630 O1644   1.976   .     S
Cu1630 N1640   2.011   .     S
C1651  C1652   1.540   .     S
C1651  H1660   1.104   .     S
C1651  H1659   1.105   .     S
C1652  H1658   1.113   .     S
C1652  H1657   1.109   .     S
C1652  C1653   1.527   .     S
C1653  H1654   1.110   .     S
C1653  H1655   1.108   .     S
C1653  H1656   1.110   .     S
C1661  H1669   1.105   .     S
C1661  C1662   1.540   .     S
C1661  H1670   1.104   .     S
C1662  H1668   1.113   .     S
C1662  H1667   1.109   .     S
C1662  C1663   1.527   .     S
C1663  H1665   1.108   .     S
C1663  H1666   1.110   .     S
C1663  H1664   1.110   .     S
C1673  H1682   1.107   .     S
C1673  C1674   1.537   .     S
C1673  H1681   1.106   .     S
C1674  H1680   1.112   .     S
C1674  C1675   1.520   .     S
C1674  H1679   1.109   .     S
C1675  H1677   1.110   .     S
C1675  H1678   1.110   .     S
H1676  C1487   1.109   1_655 S
C1683  H1691   1.106   .     S
C1683  H1692   1.107   .     S
C1683  C1684   1.537   .     S
C1684  H1689   1.109   .     S
C1684  C1685   1.520   .     S
C1684  H1690   1.112   .     S
C1685  H1688   1.110   .     S
C1685  H1687   1.110   .     S
C1685  H1498   1.109   1_655 S
