data_str_m2_o1_o16_pcu_sym.15
_audit_creation_date              2020-01-03
_audit_creation_method            'Materials Studio'
_symmetry_space_group_name_H-M    'P1'
_symmetry_Int_Tables_number       1
_symmetry_cell_setting            triclinic
loop_
_symmetry_equiv_pos_as_xyz
  x,y,z
_cell_length_a                    28.7174
_cell_length_b                    32.6019
_cell_length_c                    27.0962
_cell_angle_alpha                 89.8617
_cell_angle_beta                  73.2021
_cell_angle_gamma                 91.1621
loop_
_atom_site_label
_atom_site_type_symbol
_atom_site_fract_x
_atom_site_fract_y
_atom_site_fract_z
_atom_site_U_iso_or_equiv
_atom_site_adp_type
_atom_site_occupancy
C1     C     0.16738   0.24583   0.24899   0.00000  Uiso   1.00
C2     C     0.12545   0.16674   0.40734   0.00000  Uiso   1.00
C3     C     0.20843   0.31288   0.25257   0.00000  Uiso   1.00
C4     C     0.14076   0.16796   0.35003   0.00000  Uiso   1.00
C5     C     0.20741   0.02203   0.25278   0.00000  Uiso   1.00
C6     C     0.16582   0.04245   0.24929   0.00000  Uiso   1.00
C7     C     0.12491   0.01942   0.24536   0.00000  Uiso   1.00
C8     C     0.12778   0.31035   0.24153   0.00000  Uiso   1.00
C9     C     0.16830   0.29028   0.24734   0.00000  Uiso   1.00
C10    C     0.30267   0.19686   0.27427   0.00000  Uiso   1.00
C11    C     0.01879   0.19688   0.27422   0.00000  Uiso   1.00
C12    C     0.14538   0.16796   0.48968   0.00000  Uiso   1.00
C13    C     0.03114   0.13738   0.22405   0.00000  Uiso   1.00
C14    C     0.31499   0.13738   0.22410   0.00000  Uiso   1.00
C15    C     0.16622   0.08731   0.24995   0.00000  Uiso   1.00
C16    C     0.19250   0.16777   0.15038   0.00000  Uiso   1.00
C17    C     0.26630   0.18600   0.01249   0.00000  Uiso   1.00
C18    C     0.20656   0.17186   0.09426   0.00000  Uiso   1.00
C19    C     0.08165   0.14593   0.43227   0.00000  Uiso   1.00
C20    C     0.06978   0.13535   0.48431   0.00000  Uiso   1.00
C21    C     0.10120   0.14648   0.01278   0.00000  Uiso   1.00
C22    C     0.04444   0.02781   0.28765   0.00000  Uiso   1.00
C23    C     0.15707   0.17904   0.43672   0.00000  Uiso   1.00
C24    C     0.32991   0.02631   0.27430   0.00000  Uiso   1.00
C25    C     0.27782   0.13958   0.38494   0.00000  Uiso   1.00
C26    C     0.32565   0.11942   0.35942   0.00000  Uiso   1.00
C27    C     0.18079   0.17493   0.01629   0.00000  Uiso   1.00
C28    C     0.22947   0.18453   0.48792   0.00000  Uiso   1.00
C29    C     0.24063   0.19136   0.43498   0.00000  Uiso   1.00
C30    C     0.20270   0.19796   0.41361   0.00000  Uiso   1.00
C31    C     0.16996   0.17005   0.06964   0.00000  Uiso   1.00
C32    C     0.25489   0.17963   0.06549   0.00000  Uiso   1.00
Cu33   Cu    0.11978   0.16666   0.25000   0.00000  Uiso   1.00
Cu34   Cu    0.21355   0.16667   0.25000   0.00000  Uiso   1.00
H35    H     0.28354   0.18182   0.08405   0.00000  Uiso   1.00
H36    H     0.05868   0.13452   0.41023   0.00000  Uiso   1.00
H37    H     0.09222   0.13471   0.05169   0.00000  Uiso   1.00
H38    H     0.21247   0.21102   0.37540   0.00000  Uiso   1.00
H39    H     0.24042   0.29783   0.25666   0.00000  Uiso   1.00
H40    H     0.04348   0.05143   0.31714   0.00000  Uiso   1.00
H41    H     0.04776   0.33098   0.30573   0.00000  Uiso   1.00
H42    H     0.32981   0.00054   0.24760   0.00000  Uiso   1.00
H43    H     0.29924   0.02162   0.30993   0.00000  Uiso   1.00
H44    H     0.32484   0.05534   0.25540   0.00000  Uiso   1.00
H45    H     0.25764   0.14185   0.35576   0.00000  Uiso   1.00
H46    H     0.23905   0.03891   0.25635   0.00000  Uiso   1.00
H47    H     0.25654   0.11861   0.41647   0.00000  Uiso   1.00
H48    H     0.00103   0.09684   0.38593   0.00000  Uiso   1.00
H49    H     0.32262   0.10298   0.32480   0.00000  Uiso   1.00
H50    H     0.02191   0.14261   0.34747   0.00000  Uiso   1.00
H51    H     0.06499   0.05212   0.02421   0.00000  Uiso   1.00
H52    H     0.09705   0.29317   0.23582   0.00000  Uiso   1.00
H53    H     0.27937   0.22091   0.29419   0.00000  Uiso   1.00
H54    H     0.03224   0.22081   0.29443   0.00000  Uiso   1.00
H55    H     0.05473   0.11379   0.20333   0.00000  Uiso   1.00
H56    H     0.30166   0.11383   0.20328   0.00000  Uiso   1.00
H57    H     0.30375   0.19285   0.49088   0.00000  Uiso   1.00
H58    H     0.13273   0.16599   0.09286   0.00000  Uiso   1.00
N59    N     0.04931   0.16666   0.24999   0.00000  Uiso   1.00
N60    N     0.28402   0.16669   0.25000   0.00000  Uiso   1.00
O61    O     0.12708   0.22678   0.25001   0.00000  Uiso   1.00
O62    O     0.28521   0.17935   0.40336   0.00000  Uiso   1.00
O63    O     0.33262   0.11016   0.06840   0.00000  Uiso   1.00
O64    O     0.31479   0.10541   0.48539   0.00000  Uiso   1.00
O65    O     0.04038   0.05311   0.00509   0.00000  Uiso   1.00
O66    O     0.20627   0.22679   0.25001   0.00000  Uiso   1.00
O67    O     0.10775   0.16665   0.32549   0.00000  Uiso   1.00
O68    O     0.18694   0.16666   0.32549   0.00000  Uiso   1.00
O69    O     0.12706   0.10654   0.25000   0.00000  Uiso   1.00
O70    O     0.20625   0.10655   0.25000   0.00000  Uiso   1.00
O71    O     0.14640   0.16667   0.17451   0.00000  Uiso   1.00
O72    O     0.22559   0.16668   0.17451   0.00000  Uiso   1.00
O73    O     0.08279   0.03797   0.24281   0.00000  Uiso   1.00
S74    S     0.02035   0.10145   0.01196   0.00000  Uiso   1.00
C75    C     0.50071   0.24583   0.24899   0.00000  Uiso   1.00
C76    C     0.45879   0.16674   0.40734   0.00000  Uiso   1.00
C77    C     0.54177   0.31288   0.25257   0.00000  Uiso   1.00
C78    C     0.47409   0.16796   0.35003   0.00000  Uiso   1.00
C79    C     0.54075   0.02203   0.25278   0.00000  Uiso   1.00
C80    C     0.49916   0.04245   0.24929   0.00000  Uiso   1.00
C81    C     0.45824   0.01942   0.24536   0.00000  Uiso   1.00
C82    C     0.46111   0.31035   0.24153   0.00000  Uiso   1.00
C83    C     0.50163   0.29028   0.24734   0.00000  Uiso   1.00
C84    C     0.63600   0.19686   0.27427   0.00000  Uiso   1.00
C85    C     0.35213   0.19688   0.27422   0.00000  Uiso   1.00
C86    C     0.47872   0.16796   0.48968   0.00000  Uiso   1.00
C87    C     0.36447   0.13738   0.22405   0.00000  Uiso   1.00
C88    C     0.64832   0.13738   0.22410   0.00000  Uiso   1.00
C89    C     0.49956   0.08731   0.24995   0.00000  Uiso   1.00
C90    C     0.52584   0.16777   0.15038   0.00000  Uiso   1.00
C91    C     0.59964   0.18600   0.01249   0.00000  Uiso   1.00
C92    C     0.53989   0.17186   0.09426   0.00000  Uiso   1.00
C93    C     0.41498   0.14593   0.43227   0.00000  Uiso   1.00
C94    C     0.40312   0.13535   0.48431   0.00000  Uiso   1.00
C95    C     0.43453   0.14648   0.01278   0.00000  Uiso   1.00
C96    C     0.37777   0.02781   0.28765   0.00000  Uiso   1.00
C97    C     0.49040   0.17904   0.43672   0.00000  Uiso   1.00
C98    C     0.66324   0.02631   0.27430   0.00000  Uiso   1.00
C99    C     0.61115   0.13958   0.38494   0.00000  Uiso   1.00
C100   C     0.65899   0.11942   0.35942   0.00000  Uiso   1.00
C101   C     0.51413   0.17493   0.01629   0.00000  Uiso   1.00
C102   C     0.56280   0.18453   0.48792   0.00000  Uiso   1.00
C103   C     0.57396   0.19136   0.43498   0.00000  Uiso   1.00
C104   C     0.53603   0.19796   0.41361   0.00000  Uiso   1.00
C105   C     0.50330   0.17005   0.06964   0.00000  Uiso   1.00
C106   C     0.58822   0.17963   0.06549   0.00000  Uiso   1.00
Cu107  Cu    0.45311   0.16666   0.25000   0.00000  Uiso   1.00
Cu108  Cu    0.54689   0.16667   0.25000   0.00000  Uiso   1.00
H109   H     0.61688   0.18182   0.08405   0.00000  Uiso   1.00
H110   H     0.39201   0.13452   0.41023   0.00000  Uiso   1.00
H111   H     0.42555   0.13471   0.05169   0.00000  Uiso   1.00
H112   H     0.54581   0.21102   0.37540   0.00000  Uiso   1.00
H113   H     0.57375   0.29783   0.25666   0.00000  Uiso   1.00
H114   H     0.37681   0.05143   0.31714   0.00000  Uiso   1.00
H115   H     0.38109   0.33098   0.30573   0.00000  Uiso   1.00
H116   H     0.66314   0.00054   0.24760   0.00000  Uiso   1.00
H117   H     0.63257   0.02162   0.30993   0.00000  Uiso   1.00
H118   H     0.65817   0.05534   0.25540   0.00000  Uiso   1.00
H119   H     0.59098   0.14185   0.35576   0.00000  Uiso   1.00
H120   H     0.57238   0.03891   0.25635   0.00000  Uiso   1.00
H121   H     0.58987   0.11861   0.41647   0.00000  Uiso   1.00
H122   H     0.33436   0.09684   0.38593   0.00000  Uiso   1.00
H123   H     0.65595   0.10298   0.32480   0.00000  Uiso   1.00
H124   H     0.35524   0.14261   0.34747   0.00000  Uiso   1.00
H125   H     0.39833   0.05212   0.02421   0.00000  Uiso   1.00
H126   H     0.43039   0.29317   0.23582   0.00000  Uiso   1.00
H127   H     0.61270   0.22091   0.29419   0.00000  Uiso   1.00
H128   H     0.36557   0.22081   0.29443   0.00000  Uiso   1.00
H129   H     0.38806   0.11379   0.20333   0.00000  Uiso   1.00
H130   H     0.63499   0.11383   0.20328   0.00000  Uiso   1.00
H131   H     0.63708   0.19285   0.49088   0.00000  Uiso   1.00
H132   H     0.46606   0.16599   0.09286   0.00000  Uiso   1.00
N133   N     0.38265   0.16666   0.24999   0.00000  Uiso   1.00
N134   N     0.61735   0.16669   0.25000   0.00000  Uiso   1.00
O135   O     0.46042   0.22678   0.25001   0.00000  Uiso   1.00
O136   O     0.61855   0.17935   0.40336   0.00000  Uiso   1.00
O137   O     0.66596   0.11016   0.06840   0.00000  Uiso   1.00
O138   O     0.64812   0.10541   0.48539   0.00000  Uiso   1.00
O139   O     0.37372   0.05311   0.00509   0.00000  Uiso   1.00
O140   O     0.53961   0.22679   0.25001   0.00000  Uiso   1.00
O141   O     0.44108   0.16665   0.32549   0.00000  Uiso   1.00
O142   O     0.52027   0.16666   0.32549   0.00000  Uiso   1.00
O143   O     0.46039   0.10654   0.25000   0.00000  Uiso   1.00
O144   O     0.53958   0.10655   0.25000   0.00000  Uiso   1.00
O145   O     0.47973   0.16667   0.17451   0.00000  Uiso   1.00
O146   O     0.55892   0.16668   0.17451   0.00000  Uiso   1.00
O147   O     0.41613   0.03797   0.24281   0.00000  Uiso   1.00
S148   S     0.35369   0.10145   0.01196   0.00000  Uiso   1.00
C149   C     0.83405   0.24583   0.24899   0.00000  Uiso   1.00
C150   C     0.79212   0.16674   0.40734   0.00000  Uiso   1.00
C151   C     0.87510   0.31288   0.25257   0.00000  Uiso   1.00
C152   C     0.80743   0.16796   0.35003   0.00000  Uiso   1.00
C153   C     0.87408   0.02203   0.25278   0.00000  Uiso   1.00
C154   C     0.83249   0.04245   0.24929   0.00000  Uiso   1.00
C155   C     0.79157   0.01942   0.24536   0.00000  Uiso   1.00
C156   C     0.79444   0.31035   0.24153   0.00000  Uiso   1.00
C157   C     0.83496   0.29028   0.24734   0.00000  Uiso   1.00
C158   C     0.96934   0.19686   0.27427   0.00000  Uiso   1.00
C159   C     0.68546   0.19688   0.27422   0.00000  Uiso   1.00
C160   C     0.81205   0.16796   0.48968   0.00000  Uiso   1.00
C161   C     0.69781   0.13738   0.22405   0.00000  Uiso   1.00
C162   C     0.98165   0.13738   0.22410   0.00000  Uiso   1.00
C163   C     0.83289   0.08731   0.24995   0.00000  Uiso   1.00
C164   C     0.85917   0.16777   0.15038   0.00000  Uiso   1.00
C165   C     0.93297   0.18600   0.01249   0.00000  Uiso   1.00
C166   C     0.87323   0.17186   0.09426   0.00000  Uiso   1.00
C167   C     0.74831   0.14593   0.43227   0.00000  Uiso   1.00
C168   C     0.73645   0.13535   0.48431   0.00000  Uiso   1.00
C169   C     0.76787   0.14648   0.01278   0.00000  Uiso   1.00
C170   C     0.71111   0.02781   0.28765   0.00000  Uiso   1.00
C171   C     0.82373   0.17904   0.43672   0.00000  Uiso   1.00
C172   C     0.99657   0.02631   0.27430   0.00000  Uiso   1.00
C173   C     0.94448   0.13958   0.38494   0.00000  Uiso   1.00
C174   C     0.99232   0.11942   0.35942   0.00000  Uiso   1.00
C175   C     0.84746   0.17493   0.01629   0.00000  Uiso   1.00
C176   C     0.89613   0.18453   0.48792   0.00000  Uiso   1.00
C177   C     0.90729   0.19136   0.43498   0.00000  Uiso   1.00
C178   C     0.86937   0.19796   0.41361   0.00000  Uiso   1.00
C179   C     0.83663   0.17005   0.06964   0.00000  Uiso   1.00
C180   C     0.92155   0.17963   0.06549   0.00000  Uiso   1.00
Cu181  Cu    0.78645   0.16666   0.25000   0.00000  Uiso   1.00
Cu182  Cu    0.88022   0.16667   0.25000   0.00000  Uiso   1.00
H183   H     0.95021   0.18182   0.08405   0.00000  Uiso   1.00
H184   H     0.72534   0.13452   0.41023   0.00000  Uiso   1.00
H185   H     0.75888   0.13471   0.05169   0.00000  Uiso   1.00
H186   H     0.87914   0.21102   0.37540   0.00000  Uiso   1.00
H187   H     0.90709   0.29783   0.25666   0.00000  Uiso   1.00
H188   H     0.71015   0.05143   0.31714   0.00000  Uiso   1.00
H189   H     0.71442   0.33098   0.30573   0.00000  Uiso   1.00
H190   H     0.99648   0.00054   0.24760   0.00000  Uiso   1.00
H191   H     0.96591   0.02162   0.30993   0.00000  Uiso   1.00
H192   H     0.99151   0.05534   0.25540   0.00000  Uiso   1.00
H193   H     0.92431   0.14185   0.35576   0.00000  Uiso   1.00
H194   H     0.90571   0.03891   0.25635   0.00000  Uiso   1.00
H195   H     0.92320   0.11861   0.41647   0.00000  Uiso   1.00
H196   H     0.66769   0.09684   0.38593   0.00000  Uiso   1.00
H197   H     0.98929   0.10298   0.32480   0.00000  Uiso   1.00
H198   H     0.68858   0.14261   0.34747   0.00000  Uiso   1.00
H199   H     0.73166   0.05212   0.02421   0.00000  Uiso   1.00
H200   H     0.76372   0.29317   0.23582   0.00000  Uiso   1.00
H201   H     0.94603   0.22091   0.29419   0.00000  Uiso   1.00
H202   H     0.69890   0.22081   0.29443   0.00000  Uiso   1.00
H203   H     0.72140   0.11379   0.20333   0.00000  Uiso   1.00
H204   H     0.96832   0.11383   0.20328   0.00000  Uiso   1.00
H205   H     0.97041   0.19285   0.49088   0.00000  Uiso   1.00
H206   H     0.79940   0.16599   0.09286   0.00000  Uiso   1.00
N207   N     0.71598   0.16666   0.24999   0.00000  Uiso   1.00
N208   N     0.95069   0.16669   0.25000   0.00000  Uiso   1.00
O209   O     0.79375   0.22678   0.25001   0.00000  Uiso   1.00
O210   O     0.95188   0.17935   0.40336   0.00000  Uiso   1.00
O211   O     0.99929   0.11016   0.06840   0.00000  Uiso   1.00
O212   O     0.98146   0.10541   0.48539   0.00000  Uiso   1.00
O213   O     0.70705   0.05311   0.00509   0.00000  Uiso   1.00
O214   O     0.87294   0.22679   0.25001   0.00000  Uiso   1.00
O215   O     0.77441   0.16665   0.32549   0.00000  Uiso   1.00
O216   O     0.85360   0.16666   0.32549   0.00000  Uiso   1.00
O217   O     0.79373   0.10654   0.25000   0.00000  Uiso   1.00
O218   O     0.87292   0.10655   0.25000   0.00000  Uiso   1.00
O219   O     0.81306   0.16667   0.17451   0.00000  Uiso   1.00
O220   O     0.89225   0.16668   0.17451   0.00000  Uiso   1.00
O221   O     0.74946   0.03797   0.24281   0.00000  Uiso   1.00
S222   S     0.68702   0.10145   0.01196   0.00000  Uiso   1.00
C223   C     0.16738   0.57916   0.24899   0.00000  Uiso   1.00
C224   C     0.12545   0.50007   0.40734   0.00000  Uiso   1.00
C225   C     0.20843   0.64621   0.25257   0.00000  Uiso   1.00
C226   C     0.14076   0.50129   0.35003   0.00000  Uiso   1.00
C227   C     0.20741   0.35537   0.25278   0.00000  Uiso   1.00
C228   C     0.16582   0.37578   0.24929   0.00000  Uiso   1.00
C229   C     0.12491   0.35276   0.24536   0.00000  Uiso   1.00
C230   C     0.12778   0.64368   0.24153   0.00000  Uiso   1.00
C231   C     0.16830   0.62361   0.24734   0.00000  Uiso   1.00
C232   C     0.30267   0.53019   0.27427   0.00000  Uiso   1.00
C233   C     0.01879   0.53021   0.27422   0.00000  Uiso   1.00
C234   C     0.14538   0.50129   0.48968   0.00000  Uiso   1.00
C235   C     0.03114   0.47072   0.22405   0.00000  Uiso   1.00
C236   C     0.31499   0.47072   0.22410   0.00000  Uiso   1.00
C237   C     0.16622   0.42064   0.24995   0.00000  Uiso   1.00
C238   C     0.19250   0.50110   0.15038   0.00000  Uiso   1.00
C239   C     0.26630   0.51933   0.01249   0.00000  Uiso   1.00
C240   C     0.20656   0.50519   0.09426   0.00000  Uiso   1.00
C241   C     0.08165   0.47927   0.43227   0.00000  Uiso   1.00
C242   C     0.06978   0.46868   0.48431   0.00000  Uiso   1.00
C243   C     0.10120   0.47981   0.01278   0.00000  Uiso   1.00
C244   C     0.04444   0.36114   0.28765   0.00000  Uiso   1.00
C245   C     0.15707   0.51237   0.43672   0.00000  Uiso   1.00
C246   C     0.32991   0.35964   0.27430   0.00000  Uiso   1.00
C247   C     0.27782   0.47291   0.38494   0.00000  Uiso   1.00
C248   C     0.32565   0.45275   0.35942   0.00000  Uiso   1.00
C249   C     0.18079   0.50826   0.01629   0.00000  Uiso   1.00
C250   C     0.22947   0.51786   0.48792   0.00000  Uiso   1.00
C251   C     0.24063   0.52470   0.43498   0.00000  Uiso   1.00
C252   C     0.20270   0.53129   0.41361   0.00000  Uiso   1.00
C253   C     0.16996   0.50338   0.06964   0.00000  Uiso   1.00
C254   C     0.25489   0.51296   0.06549   0.00000  Uiso   1.00
Cu255  Cu    0.11978   0.49999   0.25000   0.00000  Uiso   1.00
Cu256  Cu    0.21355   0.50001   0.25000   0.00000  Uiso   1.00
H257   H     0.28354   0.51516   0.08405   0.00000  Uiso   1.00
H258   H     0.05868   0.46785   0.41023   0.00000  Uiso   1.00
H259   H     0.09222   0.46805   0.05169   0.00000  Uiso   1.00
H260   H     0.21247   0.54436   0.37540   0.00000  Uiso   1.00
H261   H     0.24042   0.63117   0.25666   0.00000  Uiso   1.00
H262   H     0.04348   0.38477   0.31714   0.00000  Uiso   1.00
H263   H     0.04776   0.66431   0.30573   0.00000  Uiso   1.00
H264   H     0.32981   0.33387   0.24760   0.00000  Uiso   1.00
H265   H     0.29924   0.35495   0.30993   0.00000  Uiso   1.00
H266   H     0.32484   0.38867   0.25540   0.00000  Uiso   1.00
H267   H     0.25764   0.47519   0.35576   0.00000  Uiso   1.00
H268   H     0.23905   0.37224   0.25635   0.00000  Uiso   1.00
H269   H     0.25654   0.45194   0.41647   0.00000  Uiso   1.00
H270   H     0.00103   0.43018   0.38593   0.00000  Uiso   1.00
H271   H     0.32262   0.43631   0.32480   0.00000  Uiso   1.00
H272   H     0.02191   0.47594   0.34747   0.00000  Uiso   1.00
H273   H     0.06499   0.38545   0.02421   0.00000  Uiso   1.00
H274   H     0.09705   0.62651   0.23582   0.00000  Uiso   1.00
H275   H     0.27937   0.55424   0.29419   0.00000  Uiso   1.00
H276   H     0.03224   0.55414   0.29443   0.00000  Uiso   1.00
H277   H     0.05473   0.44712   0.20333   0.00000  Uiso   1.00
H278   H     0.30166   0.44716   0.20328   0.00000  Uiso   1.00
H279   H     0.30375   0.52619   0.49088   0.00000  Uiso   1.00
H280   H     0.13273   0.49933   0.09286   0.00000  Uiso   1.00
N281   N     0.04931   0.49999   0.24999   0.00000  Uiso   1.00
N282   N     0.28402   0.50002   0.25000   0.00000  Uiso   1.00
O283   O     0.12708   0.56011   0.25001   0.00000  Uiso   1.00
O284   O     0.28521   0.51268   0.40336   0.00000  Uiso   1.00
O285   O     0.33262   0.44350   0.06840   0.00000  Uiso   1.00
O286   O     0.31479   0.43874   0.48539   0.00000  Uiso   1.00
O287   O     0.04038   0.38645   0.00509   0.00000  Uiso   1.00
O288   O     0.20627   0.56012   0.25001   0.00000  Uiso   1.00
O289   O     0.10775   0.49998   0.32549   0.00000  Uiso   1.00
O290   O     0.18694   0.49999   0.32549   0.00000  Uiso   1.00
O291   O     0.12706   0.43988   0.25000   0.00000  Uiso   1.00
O292   O     0.20625   0.43989   0.25000   0.00000  Uiso   1.00
O293   O     0.14640   0.50001   0.17451   0.00000  Uiso   1.00
O294   O     0.22559   0.50002   0.17451   0.00000  Uiso   1.00
O295   O     0.08279   0.37130   0.24281   0.00000  Uiso   1.00
S296   S     0.02035   0.43479   0.01196   0.00000  Uiso   1.00
C297   C     0.50071   0.57916   0.24899   0.00000  Uiso   1.00
C298   C     0.45879   0.50007   0.40734   0.00000  Uiso   1.00
C299   C     0.54177   0.64621   0.25257   0.00000  Uiso   1.00
C300   C     0.47409   0.50129   0.35003   0.00000  Uiso   1.00
C301   C     0.54075   0.35537   0.25278   0.00000  Uiso   1.00
C302   C     0.49916   0.37578   0.24929   0.00000  Uiso   1.00
C303   C     0.45824   0.35276   0.24536   0.00000  Uiso   1.00
C304   C     0.46111   0.64368   0.24153   0.00000  Uiso   1.00
C305   C     0.50163   0.62361   0.24734   0.00000  Uiso   1.00
C306   C     0.63600   0.53019   0.27427   0.00000  Uiso   1.00
C307   C     0.35213   0.53021   0.27422   0.00000  Uiso   1.00
C308   C     0.47872   0.50129   0.48968   0.00000  Uiso   1.00
C309   C     0.36447   0.47072   0.22405   0.00000  Uiso   1.00
C310   C     0.64832   0.47072   0.22410   0.00000  Uiso   1.00
C311   C     0.49956   0.42064   0.24995   0.00000  Uiso   1.00
C312   C     0.52584   0.50110   0.15038   0.00000  Uiso   1.00
C313   C     0.59964   0.51933   0.01249   0.00000  Uiso   1.00
C314   C     0.53989   0.50519   0.09426   0.00000  Uiso   1.00
C315   C     0.41498   0.47927   0.43227   0.00000  Uiso   1.00
C316   C     0.40312   0.46868   0.48431   0.00000  Uiso   1.00
C317   C     0.43453   0.47981   0.01278   0.00000  Uiso   1.00
C318   C     0.37777   0.36114   0.28765   0.00000  Uiso   1.00
C319   C     0.49040   0.51237   0.43672   0.00000  Uiso   1.00
C320   C     0.66324   0.35964   0.27430   0.00000  Uiso   1.00
C321   C     0.61115   0.47291   0.38494   0.00000  Uiso   1.00
C322   C     0.65899   0.45275   0.35942   0.00000  Uiso   1.00
C323   C     0.51413   0.50826   0.01629   0.00000  Uiso   1.00
C324   C     0.56280   0.51786   0.48792   0.00000  Uiso   1.00
C325   C     0.57396   0.52470   0.43498   0.00000  Uiso   1.00
C326   C     0.53603   0.53129   0.41361   0.00000  Uiso   1.00
C327   C     0.50330   0.50338   0.06964   0.00000  Uiso   1.00
C328   C     0.58822   0.51296   0.06549   0.00000  Uiso   1.00
Cu329  Cu    0.45311   0.49999   0.25000   0.00000  Uiso   1.00
Cu330  Cu    0.54689   0.50001   0.25000   0.00000  Uiso   1.00
H331   H     0.61688   0.51516   0.08405   0.00000  Uiso   1.00
H332   H     0.39201   0.46785   0.41023   0.00000  Uiso   1.00
H333   H     0.42555   0.46805   0.05169   0.00000  Uiso   1.00
H334   H     0.54581   0.54436   0.37540   0.00000  Uiso   1.00
H335   H     0.57375   0.63117   0.25666   0.00000  Uiso   1.00
H336   H     0.37681   0.38477   0.31714   0.00000  Uiso   1.00
H337   H     0.38109   0.66431   0.30573   0.00000  Uiso   1.00
H338   H     0.66314   0.33387   0.24760   0.00000  Uiso   1.00
H339   H     0.63257   0.35495   0.30993   0.00000  Uiso   1.00
H340   H     0.65817   0.38867   0.25540   0.00000  Uiso   1.00
H341   H     0.59098   0.47519   0.35576   0.00000  Uiso   1.00
H342   H     0.57238   0.37224   0.25635   0.00000  Uiso   1.00
H343   H     0.58987   0.45194   0.41647   0.00000  Uiso   1.00
H344   H     0.33436   0.43018   0.38593   0.00000  Uiso   1.00
H345   H     0.65595   0.43631   0.32480   0.00000  Uiso   1.00
H346   H     0.35524   0.47594   0.34747   0.00000  Uiso   1.00
H347   H     0.39833   0.38545   0.02421   0.00000  Uiso   1.00
H348   H     0.43039   0.62651   0.23582   0.00000  Uiso   1.00
H349   H     0.61270   0.55424   0.29419   0.00000  Uiso   1.00
H350   H     0.36557   0.55414   0.29443   0.00000  Uiso   1.00
H351   H     0.38806   0.44712   0.20333   0.00000  Uiso   1.00
H352   H     0.63499   0.44716   0.20328   0.00000  Uiso   1.00
H353   H     0.63708   0.52619   0.49088   0.00000  Uiso   1.00
H354   H     0.46606   0.49933   0.09286   0.00000  Uiso   1.00
N355   N     0.38265   0.49999   0.24999   0.00000  Uiso   1.00
N356   N     0.61735   0.50002   0.25000   0.00000  Uiso   1.00
O357   O     0.46042   0.56011   0.25001   0.00000  Uiso   1.00
O358   O     0.61855   0.51268   0.40336   0.00000  Uiso   1.00
O359   O     0.66596   0.44350   0.06840   0.00000  Uiso   1.00
O360   O     0.64812   0.43874   0.48539   0.00000  Uiso   1.00
O361   O     0.37372   0.38645   0.00509   0.00000  Uiso   1.00
O362   O     0.53961   0.56012   0.25001   0.00000  Uiso   1.00
O363   O     0.44108   0.49998   0.32549   0.00000  Uiso   1.00
O364   O     0.52027   0.49999   0.32549   0.00000  Uiso   1.00
O365   O     0.46039   0.43988   0.25000   0.00000  Uiso   1.00
O366   O     0.53958   0.43989   0.25000   0.00000  Uiso   1.00
O367   O     0.47973   0.50001   0.17451   0.00000  Uiso   1.00
O368   O     0.55892   0.50002   0.17451   0.00000  Uiso   1.00
O369   O     0.41613   0.37130   0.24281   0.00000  Uiso   1.00
S370   S     0.35369   0.43479   0.01196   0.00000  Uiso   1.00
C371   C     0.83405   0.57916   0.24899   0.00000  Uiso   1.00
C372   C     0.79212   0.50007   0.40734   0.00000  Uiso   1.00
C373   C     0.87510   0.64621   0.25257   0.00000  Uiso   1.00
C374   C     0.80743   0.50129   0.35003   0.00000  Uiso   1.00
C375   C     0.87408   0.35537   0.25278   0.00000  Uiso   1.00
C376   C     0.83249   0.37578   0.24929   0.00000  Uiso   1.00
C377   C     0.79157   0.35276   0.24536   0.00000  Uiso   1.00
C378   C     0.79444   0.64368   0.24153   0.00000  Uiso   1.00
C379   C     0.83496   0.62361   0.24734   0.00000  Uiso   1.00
C380   C     0.96934   0.53019   0.27427   0.00000  Uiso   1.00
C381   C     0.68546   0.53021   0.27422   0.00000  Uiso   1.00
C382   C     0.81205   0.50129   0.48968   0.00000  Uiso   1.00
C383   C     0.69781   0.47072   0.22405   0.00000  Uiso   1.00
C384   C     0.98165   0.47072   0.22410   0.00000  Uiso   1.00
C385   C     0.83289   0.42064   0.24995   0.00000  Uiso   1.00
C386   C     0.85917   0.50110   0.15038   0.00000  Uiso   1.00
C387   C     0.93297   0.51933   0.01249   0.00000  Uiso   1.00
C388   C     0.87323   0.50519   0.09426   0.00000  Uiso   1.00
C389   C     0.74831   0.47927   0.43227   0.00000  Uiso   1.00
C390   C     0.73645   0.46868   0.48431   0.00000  Uiso   1.00
C391   C     0.76787   0.47981   0.01278   0.00000  Uiso   1.00
C392   C     0.71111   0.36114   0.28765   0.00000  Uiso   1.00
C393   C     0.82373   0.51237   0.43672   0.00000  Uiso   1.00
C394   C     0.99657   0.35964   0.27430   0.00000  Uiso   1.00
C395   C     0.94448   0.47291   0.38494   0.00000  Uiso   1.00
C396   C     0.99232   0.45275   0.35942   0.00000  Uiso   1.00
C397   C     0.84746   0.50826   0.01629   0.00000  Uiso   1.00
C398   C     0.89613   0.51786   0.48792   0.00000  Uiso   1.00
C399   C     0.90729   0.52470   0.43498   0.00000  Uiso   1.00
C400   C     0.86937   0.53129   0.41361   0.00000  Uiso   1.00
C401   C     0.83663   0.50338   0.06964   0.00000  Uiso   1.00
C402   C     0.92155   0.51296   0.06549   0.00000  Uiso   1.00
Cu403  Cu    0.78645   0.49999   0.25000   0.00000  Uiso   1.00
Cu404  Cu    0.88022   0.50001   0.25000   0.00000  Uiso   1.00
H405   H     0.95021   0.51516   0.08405   0.00000  Uiso   1.00
H406   H     0.72534   0.46785   0.41023   0.00000  Uiso   1.00
H407   H     0.75888   0.46805   0.05169   0.00000  Uiso   1.00
H408   H     0.87914   0.54436   0.37540   0.00000  Uiso   1.00
H409   H     0.90709   0.63117   0.25666   0.00000  Uiso   1.00
H410   H     0.71015   0.38477   0.31714   0.00000  Uiso   1.00
H411   H     0.71442   0.66431   0.30573   0.00000  Uiso   1.00
H412   H     0.99648   0.33387   0.24760   0.00000  Uiso   1.00
H413   H     0.96591   0.35495   0.30993   0.00000  Uiso   1.00
H414   H     0.99151   0.38867   0.25540   0.00000  Uiso   1.00
H415   H     0.92431   0.47519   0.35576   0.00000  Uiso   1.00
H416   H     0.90571   0.37224   0.25635   0.00000  Uiso   1.00
H417   H     0.92320   0.45194   0.41647   0.00000  Uiso   1.00
H418   H     0.66769   0.43018   0.38593   0.00000  Uiso   1.00
H419   H     0.98929   0.43631   0.32480   0.00000  Uiso   1.00
H420   H     0.68858   0.47594   0.34747   0.00000  Uiso   1.00
H421   H     0.73166   0.38545   0.02421   0.00000  Uiso   1.00
H422   H     0.76372   0.62651   0.23582   0.00000  Uiso   1.00
H423   H     0.94603   0.55424   0.29419   0.00000  Uiso   1.00
H424   H     0.69890   0.55414   0.29443   0.00000  Uiso   1.00
H425   H     0.72140   0.44712   0.20333   0.00000  Uiso   1.00
H426   H     0.96832   0.44716   0.20328   0.00000  Uiso   1.00
H427   H     0.97041   0.52619   0.49088   0.00000  Uiso   1.00
H428   H     0.79940   0.49933   0.09286   0.00000  Uiso   1.00
N429   N     0.71598   0.49999   0.24999   0.00000  Uiso   1.00
N430   N     0.95069   0.50002   0.25000   0.00000  Uiso   1.00
O431   O     0.79375   0.56011   0.25001   0.00000  Uiso   1.00
O432   O     0.95188   0.51268   0.40336   0.00000  Uiso   1.00
O433   O     0.99929   0.44350   0.06840   0.00000  Uiso   1.00
O434   O     0.98146   0.43874   0.48539   0.00000  Uiso   1.00
O435   O     0.70705   0.38645   0.00509   0.00000  Uiso   1.00
O436   O     0.87294   0.56012   0.25001   0.00000  Uiso   1.00
O437   O     0.77441   0.49998   0.32549   0.00000  Uiso   1.00
O438   O     0.85360   0.49999   0.32549   0.00000  Uiso   1.00
O439   O     0.79373   0.43988   0.25000   0.00000  Uiso   1.00
O440   O     0.87292   0.43989   0.25000   0.00000  Uiso   1.00
O441   O     0.81306   0.50001   0.17451   0.00000  Uiso   1.00
O442   O     0.89225   0.50002   0.17451   0.00000  Uiso   1.00
O443   O     0.74946   0.37130   0.24281   0.00000  Uiso   1.00
S444   S     0.68702   0.43479   0.01196   0.00000  Uiso   1.00
C445   C     0.16738   0.91250   0.24899   0.00000  Uiso   1.00
C446   C     0.12545   0.83340   0.40734   0.00000  Uiso   1.00
C447   C     0.20843   0.97954   0.25257   0.00000  Uiso   1.00
C448   C     0.14076   0.83462   0.35003   0.00000  Uiso   1.00
C449   C     0.20741   0.68870   0.25278   0.00000  Uiso   1.00
C450   C     0.16582   0.70912   0.24929   0.00000  Uiso   1.00
C451   C     0.12491   0.68609   0.24536   0.00000  Uiso   1.00
C452   C     0.12778   0.97701   0.24153   0.00000  Uiso   1.00
C453   C     0.16830   0.95695   0.24734   0.00000  Uiso   1.00
C454   C     0.30267   0.86352   0.27427   0.00000  Uiso   1.00
C455   C     0.01879   0.86355   0.27422   0.00000  Uiso   1.00
C456   C     0.14538   0.83462   0.48968   0.00000  Uiso   1.00
C457   C     0.03114   0.80405   0.22405   0.00000  Uiso   1.00
C458   C     0.31499   0.80405   0.22410   0.00000  Uiso   1.00
C459   C     0.16622   0.75397   0.24995   0.00000  Uiso   1.00
C460   C     0.19250   0.83444   0.15038   0.00000  Uiso   1.00
C461   C     0.26630   0.85266   0.01249   0.00000  Uiso   1.00
C462   C     0.20656   0.83853   0.09426   0.00000  Uiso   1.00
C463   C     0.08165   0.81260   0.43227   0.00000  Uiso   1.00
C464   C     0.06978   0.80201   0.48431   0.00000  Uiso   1.00
C465   C     0.10120   0.81315   0.01278   0.00000  Uiso   1.00
C466   C     0.04444   0.69447   0.28765   0.00000  Uiso   1.00
C467   C     0.15707   0.84571   0.43672   0.00000  Uiso   1.00
C468   C     0.32991   0.69297   0.27430   0.00000  Uiso   1.00
C469   C     0.27782   0.80624   0.38494   0.00000  Uiso   1.00
C470   C     0.32565   0.78609   0.35942   0.00000  Uiso   1.00
C471   C     0.18079   0.84159   0.01629   0.00000  Uiso   1.00
C472   C     0.22947   0.85119   0.48792   0.00000  Uiso   1.00
C473   C     0.24063   0.85803   0.43498   0.00000  Uiso   1.00
C474   C     0.20270   0.86463   0.41361   0.00000  Uiso   1.00
C475   C     0.16996   0.83672   0.06964   0.00000  Uiso   1.00
C476   C     0.25489   0.84629   0.06549   0.00000  Uiso   1.00
Cu477  Cu    0.11978   0.83333   0.25000   0.00000  Uiso   1.00
Cu478  Cu    0.21355   0.83334   0.25000   0.00000  Uiso   1.00
H479   H     0.28354   0.84849   0.08405   0.00000  Uiso   1.00
H480   H     0.05868   0.80119   0.41023   0.00000  Uiso   1.00
H481   H     0.09222   0.80138   0.05169   0.00000  Uiso   1.00
H482   H     0.21247   0.87769   0.37540   0.00000  Uiso   1.00
H483   H     0.24042   0.96450   0.25666   0.00000  Uiso   1.00
H484   H     0.04348   0.71810   0.31714   0.00000  Uiso   1.00
H485   H     0.04776   0.99764   0.30573   0.00000  Uiso   1.00
H486   H     0.32981   0.66721   0.24760   0.00000  Uiso   1.00
H487   H     0.29924   0.68829   0.30993   0.00000  Uiso   1.00
H488   H     0.32484   0.72200   0.25540   0.00000  Uiso   1.00
H489   H     0.25764   0.80852   0.35576   0.00000  Uiso   1.00
H490   H     0.23905   0.70558   0.25635   0.00000  Uiso   1.00
H491   H     0.25654   0.78528   0.41647   0.00000  Uiso   1.00
H492   H     0.00103   0.76351   0.38593   0.00000  Uiso   1.00
H493   H     0.32262   0.76965   0.32480   0.00000  Uiso   1.00
H494   H     0.02191   0.80927   0.34747   0.00000  Uiso   1.00
H495   H     0.06499   0.71879   0.02421   0.00000  Uiso   1.00
H496   H     0.09705   0.95984   0.23582   0.00000  Uiso   1.00
H497   H     0.27937   0.88757   0.29419   0.00000  Uiso   1.00
H498   H     0.03224   0.88747   0.29443   0.00000  Uiso   1.00
H499   H     0.05473   0.78046   0.20333   0.00000  Uiso   1.00
H500   H     0.30166   0.78050   0.20328   0.00000  Uiso   1.00
H501   H     0.30375   0.85952   0.49088   0.00000  Uiso   1.00
H502   H     0.13273   0.83266   0.09286   0.00000  Uiso   1.00
N503   N     0.04931   0.83332   0.24999   0.00000  Uiso   1.00
N504   N     0.28402   0.83335   0.25000   0.00000  Uiso   1.00
O505   O     0.12708   0.89345   0.25001   0.00000  Uiso   1.00
O506   O     0.28521   0.84602   0.40336   0.00000  Uiso   1.00
O507   O     0.33262   0.77683   0.06840   0.00000  Uiso   1.00
O508   O     0.31479   0.77207   0.48539   0.00000  Uiso   1.00
O509   O     0.04038   0.71978   0.00509   0.00000  Uiso   1.00
O510   O     0.20627   0.89346   0.25001   0.00000  Uiso   1.00
O511   O     0.10775   0.83332   0.32549   0.00000  Uiso   1.00
O512   O     0.18694   0.83333   0.32549   0.00000  Uiso   1.00
O513   O     0.12706   0.77321   0.25000   0.00000  Uiso   1.00
O514   O     0.20625   0.77322   0.25000   0.00000  Uiso   1.00
O515   O     0.14640   0.83334   0.17451   0.00000  Uiso   1.00
O516   O     0.22559   0.83335   0.17451   0.00000  Uiso   1.00
O517   O     0.08279   0.70464   0.24281   0.00000  Uiso   1.00
S518   S     0.02035   0.76812   0.01196   0.00000  Uiso   1.00
C519   C     0.50071   0.91250   0.24899   0.00000  Uiso   1.00
C520   C     0.45879   0.83340   0.40734   0.00000  Uiso   1.00
C521   C     0.54177   0.97954   0.25257   0.00000  Uiso   1.00
C522   C     0.47409   0.83462   0.35003   0.00000  Uiso   1.00
C523   C     0.54075   0.68870   0.25278   0.00000  Uiso   1.00
C524   C     0.49916   0.70912   0.24929   0.00000  Uiso   1.00
C525   C     0.45824   0.68609   0.24536   0.00000  Uiso   1.00
C526   C     0.46111   0.97701   0.24153   0.00000  Uiso   1.00
C527   C     0.50163   0.95695   0.24734   0.00000  Uiso   1.00
C528   C     0.63600   0.86352   0.27427   0.00000  Uiso   1.00
C529   C     0.35213   0.86355   0.27422   0.00000  Uiso   1.00
C530   C     0.47872   0.83462   0.48968   0.00000  Uiso   1.00
C531   C     0.36447   0.80405   0.22405   0.00000  Uiso   1.00
C532   C     0.64832   0.80405   0.22410   0.00000  Uiso   1.00
C533   C     0.49956   0.75397   0.24995   0.00000  Uiso   1.00
C534   C     0.52584   0.83444   0.15038   0.00000  Uiso   1.00
C535   C     0.59964   0.85266   0.01249   0.00000  Uiso   1.00
C536   C     0.53989   0.83853   0.09426   0.00000  Uiso   1.00
C537   C     0.41498   0.81260   0.43227   0.00000  Uiso   1.00
C538   C     0.40312   0.80201   0.48431   0.00000  Uiso   1.00
C539   C     0.43453   0.81315   0.01278   0.00000  Uiso   1.00
C540   C     0.37777   0.69447   0.28765   0.00000  Uiso   1.00
C541   C     0.49040   0.84571   0.43672   0.00000  Uiso   1.00
C542   C     0.66324   0.69297   0.27430   0.00000  Uiso   1.00
C543   C     0.61115   0.80624   0.38494   0.00000  Uiso   1.00
C544   C     0.65899   0.78609   0.35942   0.00000  Uiso   1.00
C545   C     0.51413   0.84159   0.01629   0.00000  Uiso   1.00
C546   C     0.56280   0.85119   0.48792   0.00000  Uiso   1.00
C547   C     0.57396   0.85803   0.43498   0.00000  Uiso   1.00
C548   C     0.53603   0.86463   0.41361   0.00000  Uiso   1.00
C549   C     0.50330   0.83672   0.06964   0.00000  Uiso   1.00
C550   C     0.58822   0.84629   0.06549   0.00000  Uiso   1.00
Cu551  Cu    0.45311   0.83333   0.25000   0.00000  Uiso   1.00
Cu552  Cu    0.54689   0.83334   0.25000   0.00000  Uiso   1.00
H553   H     0.61688   0.84849   0.08405   0.00000  Uiso   1.00
H554   H     0.39201   0.80119   0.41023   0.00000  Uiso   1.00
H555   H     0.42555   0.80138   0.05169   0.00000  Uiso   1.00
H556   H     0.54581   0.87769   0.37540   0.00000  Uiso   1.00
H557   H     0.57375   0.96450   0.25666   0.00000  Uiso   1.00
H558   H     0.37681   0.71810   0.31714   0.00000  Uiso   1.00
H559   H     0.38109   0.99764   0.30573   0.00000  Uiso   1.00
H560   H     0.66314   0.66721   0.24760   0.00000  Uiso   1.00
H561   H     0.63257   0.68829   0.30993   0.00000  Uiso   1.00
H562   H     0.65817   0.72200   0.25540   0.00000  Uiso   1.00
H563   H     0.59098   0.80852   0.35576   0.00000  Uiso   1.00
H564   H     0.57238   0.70558   0.25635   0.00000  Uiso   1.00
H565   H     0.58987   0.78528   0.41647   0.00000  Uiso   1.00
H566   H     0.33436   0.76351   0.38593   0.00000  Uiso   1.00
H567   H     0.65595   0.76965   0.32480   0.00000  Uiso   1.00
H568   H     0.35524   0.80927   0.34747   0.00000  Uiso   1.00
H569   H     0.39833   0.71879   0.02421   0.00000  Uiso   1.00
H570   H     0.43039   0.95984   0.23582   0.00000  Uiso   1.00
H571   H     0.61270   0.88757   0.29419   0.00000  Uiso   1.00
H572   H     0.36557   0.88747   0.29443   0.00000  Uiso   1.00
H573   H     0.38806   0.78046   0.20333   0.00000  Uiso   1.00
H574   H     0.63499   0.78050   0.20328   0.00000  Uiso   1.00
H575   H     0.63708   0.85952   0.49088   0.00000  Uiso   1.00
H576   H     0.46606   0.83266   0.09286   0.00000  Uiso   1.00
N577   N     0.38265   0.83332   0.24999   0.00000  Uiso   1.00
N578   N     0.61735   0.83335   0.25000   0.00000  Uiso   1.00
O579   O     0.46042   0.89345   0.25001   0.00000  Uiso   1.00
O580   O     0.61855   0.84602   0.40336   0.00000  Uiso   1.00
O581   O     0.66596   0.77683   0.06840   0.00000  Uiso   1.00
O582   O     0.64812   0.77207   0.48539   0.00000  Uiso   1.00
O583   O     0.37372   0.71978   0.00509   0.00000  Uiso   1.00
O584   O     0.53961   0.89346   0.25001   0.00000  Uiso   1.00
O585   O     0.44108   0.83332   0.32549   0.00000  Uiso   1.00
O586   O     0.52027   0.83333   0.32549   0.00000  Uiso   1.00
O587   O     0.46039   0.77321   0.25000   0.00000  Uiso   1.00
O588   O     0.53958   0.77322   0.25000   0.00000  Uiso   1.00
O589   O     0.47973   0.83334   0.17451   0.00000  Uiso   1.00
O590   O     0.55892   0.83335   0.17451   0.00000  Uiso   1.00
O591   O     0.41613   0.70464   0.24281   0.00000  Uiso   1.00
S592   S     0.35369   0.76812   0.01196   0.00000  Uiso   1.00
C593   C     0.83405   0.91250   0.24899   0.00000  Uiso   1.00
C594   C     0.79212   0.83340   0.40734   0.00000  Uiso   1.00
C595   C     0.87510   0.97954   0.25257   0.00000  Uiso   1.00
C596   C     0.80743   0.83462   0.35003   0.00000  Uiso   1.00
C597   C     0.87408   0.68870   0.25278   0.00000  Uiso   1.00
C598   C     0.83249   0.70912   0.24929   0.00000  Uiso   1.00
C599   C     0.79157   0.68609   0.24536   0.00000  Uiso   1.00
C600   C     0.79444   0.97701   0.24153   0.00000  Uiso   1.00
C601   C     0.83496   0.95695   0.24734   0.00000  Uiso   1.00
C602   C     0.96934   0.86352   0.27427   0.00000  Uiso   1.00
C603   C     0.68546   0.86355   0.27422   0.00000  Uiso   1.00
C604   C     0.81205   0.83462   0.48968   0.00000  Uiso   1.00
C605   C     0.69781   0.80405   0.22405   0.00000  Uiso   1.00
C606   C     0.98165   0.80405   0.22410   0.00000  Uiso   1.00
C607   C     0.83289   0.75397   0.24995   0.00000  Uiso   1.00
C608   C     0.85917   0.83444   0.15038   0.00000  Uiso   1.00
C609   C     0.93297   0.85266   0.01249   0.00000  Uiso   1.00
C610   C     0.87323   0.83853   0.09426   0.00000  Uiso   1.00
C611   C     0.74831   0.81260   0.43227   0.00000  Uiso   1.00
C612   C     0.73645   0.80201   0.48431   0.00000  Uiso   1.00
C613   C     0.76787   0.81315   0.01278   0.00000  Uiso   1.00
C614   C     0.71111   0.69447   0.28765   0.00000  Uiso   1.00
C615   C     0.82373   0.84571   0.43672   0.00000  Uiso   1.00
C616   C     0.99657   0.69297   0.27430   0.00000  Uiso   1.00
C617   C     0.94448   0.80624   0.38494   0.00000  Uiso   1.00
C618   C     0.99232   0.78609   0.35942   0.00000  Uiso   1.00
C619   C     0.84746   0.84159   0.01629   0.00000  Uiso   1.00
C620   C     0.89613   0.85119   0.48792   0.00000  Uiso   1.00
C621   C     0.90729   0.85803   0.43498   0.00000  Uiso   1.00
C622   C     0.86937   0.86463   0.41361   0.00000  Uiso   1.00
C623   C     0.83663   0.83672   0.06964   0.00000  Uiso   1.00
C624   C     0.92155   0.84629   0.06549   0.00000  Uiso   1.00
Cu625  Cu    0.78645   0.83333   0.25000   0.00000  Uiso   1.00
Cu626  Cu    0.88022   0.83334   0.25000   0.00000  Uiso   1.00
H627   H     0.95021   0.84849   0.08405   0.00000  Uiso   1.00
H628   H     0.72534   0.80119   0.41023   0.00000  Uiso   1.00
H629   H     0.75888   0.80138   0.05169   0.00000  Uiso   1.00
H630   H     0.87914   0.87769   0.37540   0.00000  Uiso   1.00
H631   H     0.90709   0.96450   0.25666   0.00000  Uiso   1.00
H632   H     0.71015   0.71810   0.31714   0.00000  Uiso   1.00
H633   H     0.71442   0.99764   0.30573   0.00000  Uiso   1.00
H634   H     0.99648   0.66721   0.24760   0.00000  Uiso   1.00
H635   H     0.96591   0.68829   0.30993   0.00000  Uiso   1.00
H636   H     0.99151   0.72200   0.25540   0.00000  Uiso   1.00
H637   H     0.92431   0.80852   0.35576   0.00000  Uiso   1.00
H638   H     0.90571   0.70558   0.25635   0.00000  Uiso   1.00
H639   H     0.92320   0.78528   0.41647   0.00000  Uiso   1.00
H640   H     0.66769   0.76351   0.38593   0.00000  Uiso   1.00
H641   H     0.98929   0.76965   0.32480   0.00000  Uiso   1.00
H642   H     0.68858   0.80927   0.34747   0.00000  Uiso   1.00
H643   H     0.73166   0.71879   0.02421   0.00000  Uiso   1.00
H644   H     0.76372   0.95984   0.23582   0.00000  Uiso   1.00
H645   H     0.94603   0.88757   0.29419   0.00000  Uiso   1.00
H646   H     0.69890   0.88747   0.29443   0.00000  Uiso   1.00
H647   H     0.72140   0.78046   0.20333   0.00000  Uiso   1.00
H648   H     0.96832   0.78050   0.20328   0.00000  Uiso   1.00
H649   H     0.97041   0.85952   0.49088   0.00000  Uiso   1.00
H650   H     0.79940   0.83266   0.09286   0.00000  Uiso   1.00
N651   N     0.71598   0.83332   0.24999   0.00000  Uiso   1.00
N652   N     0.95069   0.83335   0.25000   0.00000  Uiso   1.00
O653   O     0.79375   0.89345   0.25001   0.00000  Uiso   1.00
O654   O     0.95188   0.84602   0.40336   0.00000  Uiso   1.00
O655   O     0.99929   0.77683   0.06840   0.00000  Uiso   1.00
O656   O     0.98146   0.77207   0.48539   0.00000  Uiso   1.00
O657   O     0.70705   0.71978   0.00509   0.00000  Uiso   1.00
O658   O     0.87294   0.89346   0.25001   0.00000  Uiso   1.00
O659   O     0.77441   0.83332   0.32549   0.00000  Uiso   1.00
O660   O     0.85360   0.83333   0.32549   0.00000  Uiso   1.00
O661   O     0.79373   0.77321   0.25000   0.00000  Uiso   1.00
O662   O     0.87292   0.77322   0.25000   0.00000  Uiso   1.00
O663   O     0.81306   0.83334   0.17451   0.00000  Uiso   1.00
O664   O     0.89225   0.83335   0.17451   0.00000  Uiso   1.00
O665   O     0.74946   0.70464   0.24281   0.00000  Uiso   1.00
S666   S     0.68702   0.76812   0.01196   0.00000  Uiso   1.00
C667   C     0.16738   0.24583   0.74899   0.00000  Uiso   1.00
C668   C     0.12545   0.16674   0.90734   0.00000  Uiso   1.00
C669   C     0.20843   0.31288   0.75257   0.00000  Uiso   1.00
C670   C     0.14076   0.16796   0.85003   0.00000  Uiso   1.00
C671   C     0.20741   0.02203   0.75278   0.00000  Uiso   1.00
C672   C     0.16582   0.04245   0.74929   0.00000  Uiso   1.00
C673   C     0.12491   0.01942   0.74536   0.00000  Uiso   1.00
C674   C     0.12778   0.31035   0.74153   0.00000  Uiso   1.00
C675   C     0.16830   0.29028   0.74734   0.00000  Uiso   1.00
C676   C     0.30267   0.19686   0.77427   0.00000  Uiso   1.00
C677   C     0.01879   0.19688   0.77422   0.00000  Uiso   1.00
C678   C     0.14538   0.16796   0.98968   0.00000  Uiso   1.00
C679   C     0.03114   0.13738   0.72405   0.00000  Uiso   1.00
C680   C     0.31499   0.13738   0.72410   0.00000  Uiso   1.00
C681   C     0.16622   0.08731   0.74995   0.00000  Uiso   1.00
C682   C     0.19250   0.16777   0.65038   0.00000  Uiso   1.00
C683   C     0.26630   0.18600   0.51249   0.00000  Uiso   1.00
C684   C     0.20656   0.17186   0.59426   0.00000  Uiso   1.00
C685   C     0.08165   0.14593   0.93227   0.00000  Uiso   1.00
C686   C     0.06978   0.13535   0.98431   0.00000  Uiso   1.00
C687   C     0.10120   0.14648   0.51278   0.00000  Uiso   1.00
C688   C     0.04444   0.02781   0.78765   0.00000  Uiso   1.00
C689   C     0.15707   0.17904   0.93672   0.00000  Uiso   1.00
C690   C     0.32991   0.02631   0.77430   0.00000  Uiso   1.00
C691   C     0.27782   0.13958   0.88494   0.00000  Uiso   1.00
C692   C     0.32565   0.11942   0.85942   0.00000  Uiso   1.00
C693   C     0.18079   0.17493   0.51629   0.00000  Uiso   1.00
C694   C     0.22947   0.18453   0.98792   0.00000  Uiso   1.00
C695   C     0.24063   0.19136   0.93498   0.00000  Uiso   1.00
C696   C     0.20270   0.19796   0.91361   0.00000  Uiso   1.00
C697   C     0.16996   0.17005   0.56964   0.00000  Uiso   1.00
C698   C     0.25489   0.17963   0.56549   0.00000  Uiso   1.00
Cu699  Cu    0.11978   0.16666   0.75000   0.00000  Uiso   1.00
Cu700  Cu    0.21355   0.16667   0.75000   0.00000  Uiso   1.00
H701   H     0.28354   0.18182   0.58405   0.00000  Uiso   1.00
H702   H     0.05868   0.13452   0.91023   0.00000  Uiso   1.00
H703   H     0.09222   0.13471   0.55169   0.00000  Uiso   1.00
H704   H     0.21247   0.21102   0.87540   0.00000  Uiso   1.00
H705   H     0.24042   0.29783   0.75666   0.00000  Uiso   1.00
H706   H     0.04348   0.05143   0.81714   0.00000  Uiso   1.00
H707   H     0.04776   0.33098   0.80573   0.00000  Uiso   1.00
H708   H     0.32981   0.00054   0.74760   0.00000  Uiso   1.00
H709   H     0.29924   0.02162   0.80993   0.00000  Uiso   1.00
H710   H     0.32484   0.05534   0.75540   0.00000  Uiso   1.00
H711   H     0.25764   0.14185   0.85576   0.00000  Uiso   1.00
H712   H     0.23905   0.03891   0.75635   0.00000  Uiso   1.00
H713   H     0.25654   0.11861   0.91647   0.00000  Uiso   1.00
H714   H     0.00103   0.09684   0.88593   0.00000  Uiso   1.00
H715   H     0.32262   0.10298   0.82480   0.00000  Uiso   1.00
H716   H     0.02191   0.14261   0.84747   0.00000  Uiso   1.00
H717   H     0.06499   0.05212   0.52421   0.00000  Uiso   1.00
H718   H     0.09705   0.29317   0.73582   0.00000  Uiso   1.00
H719   H     0.27937   0.22091   0.79419   0.00000  Uiso   1.00
H720   H     0.03224   0.22081   0.79443   0.00000  Uiso   1.00
H721   H     0.05473   0.11379   0.70333   0.00000  Uiso   1.00
H722   H     0.30166   0.11383   0.70328   0.00000  Uiso   1.00
H723   H     0.30375   0.19285   0.99088   0.00000  Uiso   1.00
H724   H     0.13273   0.16599   0.59286   0.00000  Uiso   1.00
N725   N     0.04931   0.16666   0.74999   0.00000  Uiso   1.00
N726   N     0.28402   0.16669   0.75000   0.00000  Uiso   1.00
O727   O     0.12708   0.22678   0.75001   0.00000  Uiso   1.00
O728   O     0.28521   0.17935   0.90336   0.00000  Uiso   1.00
O729   O     0.33262   0.11016   0.56840   0.00000  Uiso   1.00
O730   O     0.31479   0.10541   0.98539   0.00000  Uiso   1.00
O731   O     0.04038   0.05311   0.50509   0.00000  Uiso   1.00
O732   O     0.20627   0.22679   0.75001   0.00000  Uiso   1.00
O733   O     0.10775   0.16665   0.82549   0.00000  Uiso   1.00
O734   O     0.18694   0.16666   0.82549   0.00000  Uiso   1.00
O735   O     0.12706   0.10654   0.75000   0.00000  Uiso   1.00
O736   O     0.20625   0.10655   0.75000   0.00000  Uiso   1.00
O737   O     0.14640   0.16667   0.67451   0.00000  Uiso   1.00
O738   O     0.22559   0.16668   0.67451   0.00000  Uiso   1.00
O739   O     0.08279   0.03797   0.74281   0.00000  Uiso   1.00
S740   S     0.02035   0.10145   0.51196   0.00000  Uiso   1.00
C741   C     0.50071   0.24583   0.74899   0.00000  Uiso   1.00
C742   C     0.45879   0.16674   0.90734   0.00000  Uiso   1.00
C743   C     0.54177   0.31288   0.75257   0.00000  Uiso   1.00
C744   C     0.47409   0.16796   0.85003   0.00000  Uiso   1.00
C745   C     0.54075   0.02203   0.75278   0.00000  Uiso   1.00
C746   C     0.49916   0.04245   0.74929   0.00000  Uiso   1.00
C747   C     0.45824   0.01942   0.74536   0.00000  Uiso   1.00
C748   C     0.46111   0.31035   0.74153   0.00000  Uiso   1.00
C749   C     0.50163   0.29028   0.74734   0.00000  Uiso   1.00
C750   C     0.63600   0.19686   0.77427   0.00000  Uiso   1.00
C751   C     0.35213   0.19688   0.77422   0.00000  Uiso   1.00
C752   C     0.47872   0.16796   0.98968   0.00000  Uiso   1.00
C753   C     0.36447   0.13738   0.72405   0.00000  Uiso   1.00
C754   C     0.64832   0.13738   0.72410   0.00000  Uiso   1.00
C755   C     0.49956   0.08731   0.74995   0.00000  Uiso   1.00
C756   C     0.52584   0.16777   0.65038   0.00000  Uiso   1.00
C757   C     0.59964   0.18600   0.51249   0.00000  Uiso   1.00
C758   C     0.53989   0.17186   0.59426   0.00000  Uiso   1.00
C759   C     0.41498   0.14593   0.93227   0.00000  Uiso   1.00
C760   C     0.40312   0.13535   0.98431   0.00000  Uiso   1.00
C761   C     0.43453   0.14648   0.51278   0.00000  Uiso   1.00
C762   C     0.37777   0.02781   0.78765   0.00000  Uiso   1.00
C763   C     0.49040   0.17904   0.93672   0.00000  Uiso   1.00
C764   C     0.66324   0.02631   0.77430   0.00000  Uiso   1.00
C765   C     0.61115   0.13958   0.88494   0.00000  Uiso   1.00
C766   C     0.65899   0.11942   0.85942   0.00000  Uiso   1.00
C767   C     0.51413   0.17493   0.51629   0.00000  Uiso   1.00
C768   C     0.56280   0.18453   0.98792   0.00000  Uiso   1.00
C769   C     0.57396   0.19136   0.93498   0.00000  Uiso   1.00
C770   C     0.53603   0.19796   0.91361   0.00000  Uiso   1.00
C771   C     0.50330   0.17005   0.56964   0.00000  Uiso   1.00
C772   C     0.58822   0.17963   0.56549   0.00000  Uiso   1.00
Cu773  Cu    0.45311   0.16666   0.75000   0.00000  Uiso   1.00
Cu774  Cu    0.54689   0.16667   0.75000   0.00000  Uiso   1.00
H775   H     0.61688   0.18182   0.58405   0.00000  Uiso   1.00
H776   H     0.39201   0.13452   0.91023   0.00000  Uiso   1.00
H777   H     0.42555   0.13471   0.55169   0.00000  Uiso   1.00
H778   H     0.54581   0.21102   0.87540   0.00000  Uiso   1.00
H779   H     0.57375   0.29783   0.75666   0.00000  Uiso   1.00
H780   H     0.37681   0.05143   0.81714   0.00000  Uiso   1.00
H781   H     0.38109   0.33098   0.80573   0.00000  Uiso   1.00
H782   H     0.66314   0.00054   0.74760   0.00000  Uiso   1.00
H783   H     0.63257   0.02162   0.80993   0.00000  Uiso   1.00
H784   H     0.65817   0.05534   0.75540   0.00000  Uiso   1.00
H785   H     0.59098   0.14185   0.85576   0.00000  Uiso   1.00
H786   H     0.57238   0.03891   0.75635   0.00000  Uiso   1.00
H787   H     0.58987   0.11861   0.91647   0.00000  Uiso   1.00
H788   H     0.33436   0.09684   0.88593   0.00000  Uiso   1.00
H789   H     0.65595   0.10298   0.82480   0.00000  Uiso   1.00
H790   H     0.35524   0.14261   0.84747   0.00000  Uiso   1.00
H791   H     0.39833   0.05212   0.52421   0.00000  Uiso   1.00
H792   H     0.43039   0.29317   0.73582   0.00000  Uiso   1.00
H793   H     0.61270   0.22091   0.79419   0.00000  Uiso   1.00
H794   H     0.36557   0.22081   0.79443   0.00000  Uiso   1.00
H795   H     0.38806   0.11379   0.70333   0.00000  Uiso   1.00
H796   H     0.63499   0.11383   0.70328   0.00000  Uiso   1.00
H797   H     0.63708   0.19285   0.99088   0.00000  Uiso   1.00
H798   H     0.46606   0.16599   0.59286   0.00000  Uiso   1.00
N799   N     0.38265   0.16666   0.74999   0.00000  Uiso   1.00
N800   N     0.61735   0.16669   0.75000   0.00000  Uiso   1.00
O801   O     0.46042   0.22678   0.75001   0.00000  Uiso   1.00
O802   O     0.61855   0.17935   0.90336   0.00000  Uiso   1.00
O803   O     0.66596   0.11016   0.56840   0.00000  Uiso   1.00
O804   O     0.64812   0.10541   0.98539   0.00000  Uiso   1.00
O805   O     0.37372   0.05311   0.50509   0.00000  Uiso   1.00
O806   O     0.53961   0.22679   0.75001   0.00000  Uiso   1.00
O807   O     0.44108   0.16665   0.82549   0.00000  Uiso   1.00
O808   O     0.52027   0.16666   0.82549   0.00000  Uiso   1.00
O809   O     0.46039   0.10654   0.75000   0.00000  Uiso   1.00
O810   O     0.53958   0.10655   0.75000   0.00000  Uiso   1.00
O811   O     0.47973   0.16667   0.67451   0.00000  Uiso   1.00
O812   O     0.55892   0.16668   0.67451   0.00000  Uiso   1.00
O813   O     0.41613   0.03797   0.74281   0.00000  Uiso   1.00
S814   S     0.35369   0.10145   0.51196   0.00000  Uiso   1.00
C815   C     0.83405   0.24583   0.74899   0.00000  Uiso   1.00
C816   C     0.79212   0.16674   0.90734   0.00000  Uiso   1.00
C817   C     0.87510   0.31288   0.75257   0.00000  Uiso   1.00
C818   C     0.80743   0.16796   0.85003   0.00000  Uiso   1.00
C819   C     0.87408   0.02203   0.75278   0.00000  Uiso   1.00
C820   C     0.83249   0.04245   0.74929   0.00000  Uiso   1.00
C821   C     0.79157   0.01942   0.74536   0.00000  Uiso   1.00
C822   C     0.79444   0.31035   0.74153   0.00000  Uiso   1.00
C823   C     0.83496   0.29028   0.74734   0.00000  Uiso   1.00
C824   C     0.96934   0.19686   0.77427   0.00000  Uiso   1.00
C825   C     0.68546   0.19688   0.77422   0.00000  Uiso   1.00
C826   C     0.81205   0.16796   0.98968   0.00000  Uiso   1.00
C827   C     0.69781   0.13738   0.72405   0.00000  Uiso   1.00
C828   C     0.98165   0.13738   0.72410   0.00000  Uiso   1.00
C829   C     0.83289   0.08731   0.74995   0.00000  Uiso   1.00
C830   C     0.85917   0.16777   0.65038   0.00000  Uiso   1.00
C831   C     0.93297   0.18600   0.51249   0.00000  Uiso   1.00
C832   C     0.87323   0.17186   0.59426   0.00000  Uiso   1.00
C833   C     0.74831   0.14593   0.93227   0.00000  Uiso   1.00
C834   C     0.73645   0.13535   0.98431   0.00000  Uiso   1.00
C835   C     0.76787   0.14648   0.51278   0.00000  Uiso   1.00
C836   C     0.71111   0.02781   0.78765   0.00000  Uiso   1.00
C837   C     0.82373   0.17904   0.93672   0.00000  Uiso   1.00
C838   C     0.99657   0.02631   0.77430   0.00000  Uiso   1.00
C839   C     0.94448   0.13958   0.88494   0.00000  Uiso   1.00
C840   C     0.99232   0.11942   0.85942   0.00000  Uiso   1.00
C841   C     0.84746   0.17493   0.51629   0.00000  Uiso   1.00
C842   C     0.89613   0.18453   0.98792   0.00000  Uiso   1.00
C843   C     0.90729   0.19136   0.93498   0.00000  Uiso   1.00
C844   C     0.86937   0.19796   0.91361   0.00000  Uiso   1.00
C845   C     0.83663   0.17005   0.56964   0.00000  Uiso   1.00
C846   C     0.92155   0.17963   0.56549   0.00000  Uiso   1.00
Cu847  Cu    0.78645   0.16666   0.75000   0.00000  Uiso   1.00
Cu848  Cu    0.88022   0.16667   0.75000   0.00000  Uiso   1.00
H849   H     0.95021   0.18182   0.58405   0.00000  Uiso   1.00
H850   H     0.72534   0.13452   0.91023   0.00000  Uiso   1.00
H851   H     0.75888   0.13471   0.55169   0.00000  Uiso   1.00
H852   H     0.87914   0.21102   0.87540   0.00000  Uiso   1.00
H853   H     0.90709   0.29783   0.75666   0.00000  Uiso   1.00
H854   H     0.71015   0.05143   0.81714   0.00000  Uiso   1.00
H855   H     0.71442   0.33098   0.80573   0.00000  Uiso   1.00
H856   H     0.99648   0.00054   0.74760   0.00000  Uiso   1.00
H857   H     0.96591   0.02162   0.80993   0.00000  Uiso   1.00
H858   H     0.99151   0.05534   0.75540   0.00000  Uiso   1.00
H859   H     0.92431   0.14185   0.85576   0.00000  Uiso   1.00
H860   H     0.90571   0.03891   0.75635   0.00000  Uiso   1.00
H861   H     0.92320   0.11861   0.91647   0.00000  Uiso   1.00
H862   H     0.66769   0.09684   0.88593   0.00000  Uiso   1.00
H863   H     0.98929   0.10298   0.82480   0.00000  Uiso   1.00
H864   H     0.68858   0.14261   0.84747   0.00000  Uiso   1.00
H865   H     0.73166   0.05212   0.52421   0.00000  Uiso   1.00
H866   H     0.76372   0.29317   0.73582   0.00000  Uiso   1.00
H867   H     0.94603   0.22091   0.79419   0.00000  Uiso   1.00
H868   H     0.69890   0.22081   0.79443   0.00000  Uiso   1.00
H869   H     0.72140   0.11379   0.70333   0.00000  Uiso   1.00
H870   H     0.96832   0.11383   0.70328   0.00000  Uiso   1.00
H871   H     0.97041   0.19285   0.99088   0.00000  Uiso   1.00
H872   H     0.79940   0.16599   0.59286   0.00000  Uiso   1.00
N873   N     0.71598   0.16666   0.74999   0.00000  Uiso   1.00
N874   N     0.95069   0.16669   0.75000   0.00000  Uiso   1.00
O875   O     0.79375   0.22678   0.75001   0.00000  Uiso   1.00
O876   O     0.95188   0.17935   0.90336   0.00000  Uiso   1.00
O877   O     0.99929   0.11016   0.56840   0.00000  Uiso   1.00
O878   O     0.98146   0.10541   0.98539   0.00000  Uiso   1.00
O879   O     0.70705   0.05311   0.50509   0.00000  Uiso   1.00
O880   O     0.87294   0.22679   0.75001   0.00000  Uiso   1.00
O881   O     0.77441   0.16665   0.82549   0.00000  Uiso   1.00
O882   O     0.85360   0.16666   0.82549   0.00000  Uiso   1.00
O883   O     0.79373   0.10654   0.75000   0.00000  Uiso   1.00
O884   O     0.87292   0.10655   0.75000   0.00000  Uiso   1.00
O885   O     0.81306   0.16667   0.67451   0.00000  Uiso   1.00
O886   O     0.89225   0.16668   0.67451   0.00000  Uiso   1.00
O887   O     0.74946   0.03797   0.74281   0.00000  Uiso   1.00
S888   S     0.68702   0.10145   0.51196   0.00000  Uiso   1.00
C889   C     0.16738   0.57916   0.74899   0.00000  Uiso   1.00
C890   C     0.12545   0.50007   0.90734   0.00000  Uiso   1.00
C891   C     0.20843   0.64621   0.75257   0.00000  Uiso   1.00
C892   C     0.14076   0.50129   0.85003   0.00000  Uiso   1.00
C893   C     0.20741   0.35537   0.75278   0.00000  Uiso   1.00
C894   C     0.16582   0.37578   0.74929   0.00000  Uiso   1.00
C895   C     0.12491   0.35276   0.74536   0.00000  Uiso   1.00
C896   C     0.12778   0.64368   0.74153   0.00000  Uiso   1.00
C897   C     0.16830   0.62361   0.74734   0.00000  Uiso   1.00
C898   C     0.30267   0.53019   0.77427   0.00000  Uiso   1.00
C899   C     0.01879   0.53021   0.77422   0.00000  Uiso   1.00
C900   C     0.14538   0.50129   0.98968   0.00000  Uiso   1.00
C901   C     0.03114   0.47072   0.72405   0.00000  Uiso   1.00
C902   C     0.31499   0.47072   0.72410   0.00000  Uiso   1.00
C903   C     0.16622   0.42064   0.74995   0.00000  Uiso   1.00
C904   C     0.19250   0.50110   0.65038   0.00000  Uiso   1.00
C905   C     0.26630   0.51933   0.51249   0.00000  Uiso   1.00
C906   C     0.20656   0.50519   0.59426   0.00000  Uiso   1.00
C907   C     0.08165   0.47927   0.93227   0.00000  Uiso   1.00
C908   C     0.06978   0.46868   0.98431   0.00000  Uiso   1.00
C909   C     0.10120   0.47981   0.51278   0.00000  Uiso   1.00
C910   C     0.04444   0.36114   0.78765   0.00000  Uiso   1.00
C911   C     0.15707   0.51237   0.93672   0.00000  Uiso   1.00
C912   C     0.32991   0.35964   0.77430   0.00000  Uiso   1.00
C913   C     0.27782   0.47291   0.88494   0.00000  Uiso   1.00
C914   C     0.32565   0.45275   0.85942   0.00000  Uiso   1.00
C915   C     0.18079   0.50826   0.51629   0.00000  Uiso   1.00
C916   C     0.22947   0.51786   0.98792   0.00000  Uiso   1.00
C917   C     0.24063   0.52470   0.93498   0.00000  Uiso   1.00
C918   C     0.20270   0.53129   0.91361   0.00000  Uiso   1.00
C919   C     0.16996   0.50338   0.56964   0.00000  Uiso   1.00
C920   C     0.25489   0.51296   0.56549   0.00000  Uiso   1.00
Cu921  Cu    0.11978   0.49999   0.75000   0.00000  Uiso   1.00
Cu922  Cu    0.21355   0.50001   0.75000   0.00000  Uiso   1.00
H923   H     0.28354   0.51516   0.58405   0.00000  Uiso   1.00
H924   H     0.05868   0.46785   0.91023   0.00000  Uiso   1.00
H925   H     0.09222   0.46805   0.55169   0.00000  Uiso   1.00
H926   H     0.21247   0.54436   0.87540   0.00000  Uiso   1.00
H927   H     0.24042   0.63117   0.75666   0.00000  Uiso   1.00
H928   H     0.04348   0.38477   0.81714   0.00000  Uiso   1.00
H929   H     0.04776   0.66431   0.80573   0.00000  Uiso   1.00
H930   H     0.32981   0.33387   0.74760   0.00000  Uiso   1.00
H931   H     0.29924   0.35495   0.80993   0.00000  Uiso   1.00
H932   H     0.32484   0.38867   0.75540   0.00000  Uiso   1.00
H933   H     0.25764   0.47519   0.85576   0.00000  Uiso   1.00
H934   H     0.23905   0.37224   0.75635   0.00000  Uiso   1.00
H935   H     0.25654   0.45194   0.91647   0.00000  Uiso   1.00
H936   H     0.00103   0.43018   0.88593   0.00000  Uiso   1.00
H937   H     0.32262   0.43631   0.82480   0.00000  Uiso   1.00
H938   H     0.02191   0.47594   0.84747   0.00000  Uiso   1.00
H939   H     0.06499   0.38545   0.52421   0.00000  Uiso   1.00
H940   H     0.09705   0.62651   0.73582   0.00000  Uiso   1.00
H941   H     0.27937   0.55424   0.79419   0.00000  Uiso   1.00
H942   H     0.03224   0.55414   0.79443   0.00000  Uiso   1.00
H943   H     0.05473   0.44712   0.70333   0.00000  Uiso   1.00
H944   H     0.30166   0.44716   0.70328   0.00000  Uiso   1.00
H945   H     0.30375   0.52619   0.99088   0.00000  Uiso   1.00
H946   H     0.13273   0.49933   0.59286   0.00000  Uiso   1.00
N947   N     0.04931   0.49999   0.74999   0.00000  Uiso   1.00
N948   N     0.28402   0.50002   0.75000   0.00000  Uiso   1.00
O949   O     0.12708   0.56011   0.75001   0.00000  Uiso   1.00
O950   O     0.28521   0.51268   0.90336   0.00000  Uiso   1.00
O951   O     0.33262   0.44350   0.56840   0.00000  Uiso   1.00
O952   O     0.31479   0.43874   0.98539   0.00000  Uiso   1.00
O953   O     0.04038   0.38645   0.50509   0.00000  Uiso   1.00
O954   O     0.20627   0.56012   0.75001   0.00000  Uiso   1.00
O955   O     0.10775   0.49998   0.82549   0.00000  Uiso   1.00
O956   O     0.18694   0.49999   0.82549   0.00000  Uiso   1.00
O957   O     0.12706   0.43988   0.75000   0.00000  Uiso   1.00
O958   O     0.20625   0.43989   0.75000   0.00000  Uiso   1.00
O959   O     0.14640   0.50001   0.67451   0.00000  Uiso   1.00
O960   O     0.22559   0.50002   0.67451   0.00000  Uiso   1.00
O961   O     0.08279   0.37130   0.74281   0.00000  Uiso   1.00
S962   S     0.02035   0.43479   0.51196   0.00000  Uiso   1.00
C963   C     0.50071   0.57916   0.74899   0.00000  Uiso   1.00
C964   C     0.45879   0.50007   0.90734   0.00000  Uiso   1.00
C965   C     0.54177   0.64621   0.75257   0.00000  Uiso   1.00
C966   C     0.47409   0.50129   0.85003   0.00000  Uiso   1.00
C967   C     0.54075   0.35537   0.75278   0.00000  Uiso   1.00
C968   C     0.49916   0.37578   0.74929   0.00000  Uiso   1.00
C969   C     0.45824   0.35276   0.74536   0.00000  Uiso   1.00
C970   C     0.46111   0.64368   0.74153   0.00000  Uiso   1.00
C971   C     0.50163   0.62361   0.74734   0.00000  Uiso   1.00
C972   C     0.63600   0.53019   0.77427   0.00000  Uiso   1.00
C973   C     0.35213   0.53021   0.77422   0.00000  Uiso   1.00
C974   C     0.47872   0.50129   0.98968   0.00000  Uiso   1.00
C975   C     0.36447   0.47072   0.72405   0.00000  Uiso   1.00
C976   C     0.64832   0.47072   0.72410   0.00000  Uiso   1.00
C977   C     0.49956   0.42064   0.74995   0.00000  Uiso   1.00
C978   C     0.52584   0.50110   0.65038   0.00000  Uiso   1.00
C979   C     0.59964   0.51933   0.51249   0.00000  Uiso   1.00
C980   C     0.53989   0.50519   0.59426   0.00000  Uiso   1.00
C981   C     0.41498   0.47927   0.93227   0.00000  Uiso   1.00
C982   C     0.40312   0.46868   0.98431   0.00000  Uiso   1.00
C983   C     0.43453   0.47981   0.51278   0.00000  Uiso   1.00
C984   C     0.37777   0.36114   0.78765   0.00000  Uiso   1.00
C985   C     0.49040   0.51237   0.93672   0.00000  Uiso   1.00
C986   C     0.66324   0.35964   0.77430   0.00000  Uiso   1.00
C987   C     0.61115   0.47291   0.88494   0.00000  Uiso   1.00
C988   C     0.65899   0.45275   0.85942   0.00000  Uiso   1.00
C989   C     0.51413   0.50826   0.51629   0.00000  Uiso   1.00
C990   C     0.56280   0.51786   0.98792   0.00000  Uiso   1.00
C991   C     0.57396   0.52470   0.93498   0.00000  Uiso   1.00
C992   C     0.53603   0.53129   0.91361   0.00000  Uiso   1.00
C993   C     0.50330   0.50338   0.56964   0.00000  Uiso   1.00
C994   C     0.58822   0.51296   0.56549   0.00000  Uiso   1.00
Cu995  Cu    0.45311   0.49999   0.75000   0.00000  Uiso   1.00
Cu996  Cu    0.54689   0.50001   0.75000   0.00000  Uiso   1.00
H997   H     0.61688   0.51516   0.58405   0.00000  Uiso   1.00
H998   H     0.39201   0.46785   0.91023   0.00000  Uiso   1.00
H999   H     0.42555   0.46805   0.55169   0.00000  Uiso   1.00
H1000  H     0.54581   0.54436   0.87540   0.00000  Uiso   1.00
H1001  H     0.57375   0.63117   0.75666   0.00000  Uiso   1.00
H1002  H     0.37681   0.38477   0.81714   0.00000  Uiso   1.00
H1003  H     0.38109   0.66431   0.80573   0.00000  Uiso   1.00
H1004  H     0.66314   0.33387   0.74760   0.00000  Uiso   1.00
H1005  H     0.63257   0.35495   0.80993   0.00000  Uiso   1.00
H1006  H     0.65817   0.38867   0.75540   0.00000  Uiso   1.00
H1007  H     0.59098   0.47519   0.85576   0.00000  Uiso   1.00
H1008  H     0.57238   0.37224   0.75635   0.00000  Uiso   1.00
H1009  H     0.58987   0.45194   0.91647   0.00000  Uiso   1.00
H1010  H     0.33436   0.43018   0.88593   0.00000  Uiso   1.00
H1011  H     0.65595   0.43631   0.82480   0.00000  Uiso   1.00
H1012  H     0.35524   0.47594   0.84747   0.00000  Uiso   1.00
H1013  H     0.39833   0.38545   0.52421   0.00000  Uiso   1.00
H1014  H     0.43039   0.62651   0.73582   0.00000  Uiso   1.00
H1015  H     0.61270   0.55424   0.79419   0.00000  Uiso   1.00
H1016  H     0.36557   0.55414   0.79443   0.00000  Uiso   1.00
H1017  H     0.38806   0.44712   0.70333   0.00000  Uiso   1.00
H1018  H     0.63499   0.44716   0.70328   0.00000  Uiso   1.00
H1019  H     0.63708   0.52619   0.99088   0.00000  Uiso   1.00
H1020  H     0.46606   0.49933   0.59286   0.00000  Uiso   1.00
N1021  N     0.38265   0.49999   0.74999   0.00000  Uiso   1.00
N1022  N     0.61735   0.50002   0.75000   0.00000  Uiso   1.00
O1023  O     0.46042   0.56011   0.75001   0.00000  Uiso   1.00
O1024  O     0.61855   0.51268   0.90336   0.00000  Uiso   1.00
O1025  O     0.66596   0.44350   0.56840   0.00000  Uiso   1.00
O1026  O     0.64812   0.43874   0.98539   0.00000  Uiso   1.00
O1027  O     0.37372   0.38645   0.50509   0.00000  Uiso   1.00
O1028  O     0.53961   0.56012   0.75001   0.00000  Uiso   1.00
O1029  O     0.44108   0.49998   0.82549   0.00000  Uiso   1.00
O1030  O     0.52027   0.49999   0.82549   0.00000  Uiso   1.00
O1031  O     0.46039   0.43988   0.75000   0.00000  Uiso   1.00
O1032  O     0.53958   0.43989   0.75000   0.00000  Uiso   1.00
O1033  O     0.47973   0.50001   0.67451   0.00000  Uiso   1.00
O1034  O     0.55892   0.50002   0.67451   0.00000  Uiso   1.00
O1035  O     0.41613   0.37130   0.74281   0.00000  Uiso   1.00
S1036  S     0.35369   0.43479   0.51196   0.00000  Uiso   1.00
C1037  C     0.83405   0.57916   0.74899   0.00000  Uiso   1.00
C1038  C     0.79212   0.50007   0.90734   0.00000  Uiso   1.00
C1039  C     0.87510   0.64621   0.75257   0.00000  Uiso   1.00
C1040  C     0.80743   0.50129   0.85003   0.00000  Uiso   1.00
C1041  C     0.87408   0.35537   0.75278   0.00000  Uiso   1.00
C1042  C     0.83249   0.37578   0.74929   0.00000  Uiso   1.00
C1043  C     0.79157   0.35276   0.74536   0.00000  Uiso   1.00
C1044  C     0.79444   0.64368   0.74153   0.00000  Uiso   1.00
C1045  C     0.83496   0.62361   0.74734   0.00000  Uiso   1.00
C1046  C     0.96934   0.53019   0.77427   0.00000  Uiso   1.00
C1047  C     0.68546   0.53021   0.77422   0.00000  Uiso   1.00
C1048  C     0.81205   0.50129   0.98968   0.00000  Uiso   1.00
C1049  C     0.69781   0.47072   0.72405   0.00000  Uiso   1.00
C1050  C     0.98165   0.47072   0.72410   0.00000  Uiso   1.00
C1051  C     0.83289   0.42064   0.74995   0.00000  Uiso   1.00
C1052  C     0.85917   0.50110   0.65038   0.00000  Uiso   1.00
C1053  C     0.93297   0.51933   0.51249   0.00000  Uiso   1.00
C1054  C     0.87323   0.50519   0.59426   0.00000  Uiso   1.00
C1055  C     0.74831   0.47927   0.93227   0.00000  Uiso   1.00
C1056  C     0.73645   0.46868   0.98431   0.00000  Uiso   1.00
C1057  C     0.76787   0.47981   0.51278   0.00000  Uiso   1.00
C1058  C     0.71111   0.36114   0.78765   0.00000  Uiso   1.00
C1059  C     0.82373   0.51237   0.93672   0.00000  Uiso   1.00
C1060  C     0.99657   0.35964   0.77430   0.00000  Uiso   1.00
C1061  C     0.94448   0.47291   0.88494   0.00000  Uiso   1.00
C1062  C     0.99232   0.45275   0.85942   0.00000  Uiso   1.00
C1063  C     0.84746   0.50826   0.51629   0.00000  Uiso   1.00
C1064  C     0.89613   0.51786   0.98792   0.00000  Uiso   1.00
C1065  C     0.90729   0.52470   0.93498   0.00000  Uiso   1.00
C1066  C     0.86937   0.53129   0.91361   0.00000  Uiso   1.00
C1067  C     0.83663   0.50338   0.56964   0.00000  Uiso   1.00
C1068  C     0.92155   0.51296   0.56549   0.00000  Uiso   1.00
Cu1069 Cu    0.78645   0.49999   0.75000   0.00000  Uiso   1.00
Cu1070 Cu    0.88022   0.50001   0.75000   0.00000  Uiso   1.00
H1071  H     0.95021   0.51516   0.58405   0.00000  Uiso   1.00
H1072  H     0.72534   0.46785   0.91023   0.00000  Uiso   1.00
H1073  H     0.75888   0.46805   0.55169   0.00000  Uiso   1.00
H1074  H     0.87914   0.54436   0.87540   0.00000  Uiso   1.00
H1075  H     0.90709   0.63117   0.75666   0.00000  Uiso   1.00
H1076  H     0.71015   0.38477   0.81714   0.00000  Uiso   1.00
H1077  H     0.71442   0.66431   0.80573   0.00000  Uiso   1.00
H1078  H     0.99648   0.33387   0.74760   0.00000  Uiso   1.00
H1079  H     0.96591   0.35495   0.80993   0.00000  Uiso   1.00
H1080  H     0.99151   0.38867   0.75540   0.00000  Uiso   1.00
H1081  H     0.92431   0.47519   0.85576   0.00000  Uiso   1.00
H1082  H     0.90571   0.37224   0.75635   0.00000  Uiso   1.00
H1083  H     0.92320   0.45194   0.91647   0.00000  Uiso   1.00
H1084  H     0.66769   0.43018   0.88593   0.00000  Uiso   1.00
H1085  H     0.98929   0.43631   0.82480   0.00000  Uiso   1.00
H1086  H     0.68858   0.47594   0.84747   0.00000  Uiso   1.00
H1087  H     0.73166   0.38545   0.52421   0.00000  Uiso   1.00
H1088  H     0.76372   0.62651   0.73582   0.00000  Uiso   1.00
H1089  H     0.94603   0.55424   0.79419   0.00000  Uiso   1.00
H1090  H     0.69890   0.55414   0.79443   0.00000  Uiso   1.00
H1091  H     0.72140   0.44712   0.70333   0.00000  Uiso   1.00
H1092  H     0.96832   0.44716   0.70328   0.00000  Uiso   1.00
H1093  H     0.97041   0.52619   0.99088   0.00000  Uiso   1.00
H1094  H     0.79940   0.49933   0.59286   0.00000  Uiso   1.00
N1095  N     0.71598   0.49999   0.74999   0.00000  Uiso   1.00
N1096  N     0.95069   0.50002   0.75000   0.00000  Uiso   1.00
O1097  O     0.79375   0.56011   0.75001   0.00000  Uiso   1.00
O1098  O     0.95188   0.51268   0.90336   0.00000  Uiso   1.00
O1099  O     0.99929   0.44350   0.56840   0.00000  Uiso   1.00
O1100  O     0.98146   0.43874   0.98539   0.00000  Uiso   1.00
O1101  O     0.70705   0.38645   0.50509   0.00000  Uiso   1.00
O1102  O     0.87294   0.56012   0.75001   0.00000  Uiso   1.00
O1103  O     0.77441   0.49998   0.82549   0.00000  Uiso   1.00
O1104  O     0.85360   0.49999   0.82549   0.00000  Uiso   1.00
O1105  O     0.79373   0.43988   0.75000   0.00000  Uiso   1.00
O1106  O     0.87292   0.43989   0.75000   0.00000  Uiso   1.00
O1107  O     0.81306   0.50001   0.67451   0.00000  Uiso   1.00
O1108  O     0.89225   0.50002   0.67451   0.00000  Uiso   1.00
O1109  O     0.74946   0.37130   0.74281   0.00000  Uiso   1.00
S1110  S     0.68702   0.43479   0.51196   0.00000  Uiso   1.00
C1111  C     0.16738   0.91250   0.74899   0.00000  Uiso   1.00
C1112  C     0.12545   0.83340   0.90734   0.00000  Uiso   1.00
C1113  C     0.20843   0.97954   0.75257   0.00000  Uiso   1.00
C1114  C     0.14076   0.83462   0.85003   0.00000  Uiso   1.00
C1115  C     0.20741   0.68870   0.75278   0.00000  Uiso   1.00
C1116  C     0.16582   0.70912   0.74929   0.00000  Uiso   1.00
C1117  C     0.12491   0.68609   0.74536   0.00000  Uiso   1.00
C1118  C     0.12778   0.97701   0.74153   0.00000  Uiso   1.00
C1119  C     0.16830   0.95695   0.74734   0.00000  Uiso   1.00
C1120  C     0.30267   0.86352   0.77427   0.00000  Uiso   1.00
C1121  C     0.01879   0.86355   0.77422   0.00000  Uiso   1.00
C1122  C     0.14538   0.83462   0.98968   0.00000  Uiso   1.00
C1123  C     0.03114   0.80405   0.72405   0.00000  Uiso   1.00
C1124  C     0.31499   0.80405   0.72410   0.00000  Uiso   1.00
C1125  C     0.16622   0.75397   0.74995   0.00000  Uiso   1.00
C1126  C     0.19250   0.83444   0.65038   0.00000  Uiso   1.00
C1127  C     0.26630   0.85266   0.51249   0.00000  Uiso   1.00
C1128  C     0.20656   0.83853   0.59426   0.00000  Uiso   1.00
C1129  C     0.08165   0.81260   0.93227   0.00000  Uiso   1.00
C1130  C     0.06978   0.80201   0.98431   0.00000  Uiso   1.00
C1131  C     0.10120   0.81315   0.51278   0.00000  Uiso   1.00
C1132  C     0.04444   0.69447   0.78765   0.00000  Uiso   1.00
C1133  C     0.15707   0.84571   0.93672   0.00000  Uiso   1.00
C1134  C     0.32991   0.69297   0.77430   0.00000  Uiso   1.00
C1135  C     0.27782   0.80624   0.88494   0.00000  Uiso   1.00
C1136  C     0.32565   0.78609   0.85942   0.00000  Uiso   1.00
C1137  C     0.18079   0.84159   0.51629   0.00000  Uiso   1.00
C1138  C     0.22947   0.85119   0.98792   0.00000  Uiso   1.00
C1139  C     0.24063   0.85803   0.93498   0.00000  Uiso   1.00
C1140  C     0.20270   0.86463   0.91361   0.00000  Uiso   1.00
C1141  C     0.16996   0.83672   0.56964   0.00000  Uiso   1.00
C1142  C     0.25489   0.84629   0.56549   0.00000  Uiso   1.00
Cu1143 Cu    0.11978   0.83333   0.75000   0.00000  Uiso   1.00
Cu1144 Cu    0.21355   0.83334   0.75000   0.00000  Uiso   1.00
H1145  H     0.28354   0.84849   0.58405   0.00000  Uiso   1.00
H1146  H     0.05868   0.80119   0.91023   0.00000  Uiso   1.00
H1147  H     0.09222   0.80138   0.55169   0.00000  Uiso   1.00
H1148  H     0.21247   0.87769   0.87540   0.00000  Uiso   1.00
H1149  H     0.24042   0.96450   0.75666   0.00000  Uiso   1.00
H1150  H     0.04348   0.71810   0.81714   0.00000  Uiso   1.00
H1151  H     0.04776   0.99764   0.80573   0.00000  Uiso   1.00
H1152  H     0.32981   0.66721   0.74760   0.00000  Uiso   1.00
H1153  H     0.29924   0.68829   0.80993   0.00000  Uiso   1.00
H1154  H     0.32484   0.72200   0.75540   0.00000  Uiso   1.00
H1155  H     0.25764   0.80852   0.85576   0.00000  Uiso   1.00
H1156  H     0.23905   0.70558   0.75635   0.00000  Uiso   1.00
H1157  H     0.25654   0.78528   0.91647   0.00000  Uiso   1.00
H1158  H     0.00103   0.76351   0.88593   0.00000  Uiso   1.00
H1159  H     0.32262   0.76965   0.82480   0.00000  Uiso   1.00
H1160  H     0.02191   0.80927   0.84747   0.00000  Uiso   1.00
H1161  H     0.06499   0.71879   0.52421   0.00000  Uiso   1.00
H1162  H     0.09705   0.95984   0.73582   0.00000  Uiso   1.00
H1163  H     0.27937   0.88757   0.79419   0.00000  Uiso   1.00
H1164  H     0.03224   0.88747   0.79443   0.00000  Uiso   1.00
H1165  H     0.05473   0.78046   0.70333   0.00000  Uiso   1.00
H1166  H     0.30166   0.78050   0.70328   0.00000  Uiso   1.00
H1167  H     0.30375   0.85952   0.99088   0.00000  Uiso   1.00
H1168  H     0.13273   0.83266   0.59286   0.00000  Uiso   1.00
N1169  N     0.04931   0.83332   0.74999   0.00000  Uiso   1.00
N1170  N     0.28402   0.83335   0.75000   0.00000  Uiso   1.00
O1171  O     0.12708   0.89345   0.75001   0.00000  Uiso   1.00
O1172  O     0.28521   0.84602   0.90336   0.00000  Uiso   1.00
O1173  O     0.33262   0.77683   0.56840   0.00000  Uiso   1.00
O1174  O     0.31479   0.77207   0.98539   0.00000  Uiso   1.00
O1175  O     0.04038   0.71978   0.50509   0.00000  Uiso   1.00
O1176  O     0.20627   0.89346   0.75001   0.00000  Uiso   1.00
O1177  O     0.10775   0.83332   0.82549   0.00000  Uiso   1.00
O1178  O     0.18694   0.83333   0.82549   0.00000  Uiso   1.00
O1179  O     0.12706   0.77321   0.75000   0.00000  Uiso   1.00
O1180  O     0.20625   0.77322   0.75000   0.00000  Uiso   1.00
O1181  O     0.14640   0.83334   0.67451   0.00000  Uiso   1.00
O1182  O     0.22559   0.83335   0.67451   0.00000  Uiso   1.00
O1183  O     0.08279   0.70464   0.74281   0.00000  Uiso   1.00
S1184  S     0.02035   0.76812   0.51196   0.00000  Uiso   1.00
C1185  C     0.50071   0.91250   0.74899   0.00000  Uiso   1.00
C1186  C     0.45879   0.83340   0.90734   0.00000  Uiso   1.00
C1187  C     0.54177   0.97954   0.75257   0.00000  Uiso   1.00
C1188  C     0.47409   0.83462   0.85003   0.00000  Uiso   1.00
C1189  C     0.54075   0.68870   0.75278   0.00000  Uiso   1.00
C1190  C     0.49916   0.70912   0.74929   0.00000  Uiso   1.00
C1191  C     0.45824   0.68609   0.74536   0.00000  Uiso   1.00
C1192  C     0.46111   0.97701   0.74153   0.00000  Uiso   1.00
C1193  C     0.50163   0.95695   0.74734   0.00000  Uiso   1.00
C1194  C     0.63600   0.86352   0.77427   0.00000  Uiso   1.00
C1195  C     0.35213   0.86355   0.77422   0.00000  Uiso   1.00
C1196  C     0.47872   0.83462   0.98968   0.00000  Uiso   1.00
C1197  C     0.36447   0.80405   0.72405   0.00000  Uiso   1.00
C1198  C     0.64832   0.80405   0.72410   0.00000  Uiso   1.00
C1199  C     0.49956   0.75397   0.74995   0.00000  Uiso   1.00
C1200  C     0.52584   0.83444   0.65038   0.00000  Uiso   1.00
C1201  C     0.59964   0.85266   0.51249   0.00000  Uiso   1.00
C1202  C     0.53989   0.83853   0.59426   0.00000  Uiso   1.00
C1203  C     0.41498   0.81260   0.93227   0.00000  Uiso   1.00
C1204  C     0.40312   0.80201   0.98431   0.00000  Uiso   1.00
C1205  C     0.43453   0.81315   0.51278   0.00000  Uiso   1.00
C1206  C     0.37777   0.69447   0.78765   0.00000  Uiso   1.00
C1207  C     0.49040   0.84571   0.93672   0.00000  Uiso   1.00
C1208  C     0.66324   0.69297   0.77430   0.00000  Uiso   1.00
C1209  C     0.61115   0.80624   0.88494   0.00000  Uiso   1.00
C1210  C     0.65899   0.78609   0.85942   0.00000  Uiso   1.00
C1211  C     0.51413   0.84159   0.51629   0.00000  Uiso   1.00
C1212  C     0.56280   0.85119   0.98792   0.00000  Uiso   1.00
C1213  C     0.57396   0.85803   0.93498   0.00000  Uiso   1.00
C1214  C     0.53603   0.86463   0.91361   0.00000  Uiso   1.00
C1215  C     0.50330   0.83672   0.56964   0.00000  Uiso   1.00
C1216  C     0.58822   0.84629   0.56549   0.00000  Uiso   1.00
Cu1217 Cu    0.45311   0.83333   0.75000   0.00000  Uiso   1.00
Cu1218 Cu    0.54689   0.83334   0.75000   0.00000  Uiso   1.00
H1219  H     0.61688   0.84849   0.58405   0.00000  Uiso   1.00
H1220  H     0.39201   0.80119   0.91023   0.00000  Uiso   1.00
H1221  H     0.42555   0.80138   0.55169   0.00000  Uiso   1.00
H1222  H     0.54581   0.87769   0.87540   0.00000  Uiso   1.00
H1223  H     0.57375   0.96450   0.75666   0.00000  Uiso   1.00
H1224  H     0.37681   0.71810   0.81714   0.00000  Uiso   1.00
H1225  H     0.38109   0.99764   0.80573   0.00000  Uiso   1.00
H1226  H     0.66314   0.66721   0.74760   0.00000  Uiso   1.00
H1227  H     0.63257   0.68829   0.80993   0.00000  Uiso   1.00
H1228  H     0.65817   0.72200   0.75540   0.00000  Uiso   1.00
H1229  H     0.59098   0.80852   0.85576   0.00000  Uiso   1.00
H1230  H     0.57238   0.70558   0.75635   0.00000  Uiso   1.00
H1231  H     0.58987   0.78528   0.91647   0.00000  Uiso   1.00
H1232  H     0.33436   0.76351   0.88593   0.00000  Uiso   1.00
H1233  H     0.65595   0.76965   0.82480   0.00000  Uiso   1.00
H1234  H     0.35524   0.80927   0.84747   0.00000  Uiso   1.00
H1235  H     0.39833   0.71879   0.52421   0.00000  Uiso   1.00
H1236  H     0.43039   0.95984   0.73582   0.00000  Uiso   1.00
H1237  H     0.61270   0.88757   0.79419   0.00000  Uiso   1.00
H1238  H     0.36557   0.88747   0.79443   0.00000  Uiso   1.00
H1239  H     0.38806   0.78046   0.70333   0.00000  Uiso   1.00
H1240  H     0.63499   0.78050   0.70328   0.00000  Uiso   1.00
H1241  H     0.63708   0.85952   0.99088   0.00000  Uiso   1.00
H1242  H     0.46606   0.83266   0.59286   0.00000  Uiso   1.00
N1243  N     0.38265   0.83332   0.74999   0.00000  Uiso   1.00
N1244  N     0.61735   0.83335   0.75000   0.00000  Uiso   1.00
O1245  O     0.46042   0.89345   0.75001   0.00000  Uiso   1.00
O1246  O     0.61855   0.84602   0.90336   0.00000  Uiso   1.00
O1247  O     0.66596   0.77683   0.56840   0.00000  Uiso   1.00
O1248  O     0.64812   0.77207   0.98539   0.00000  Uiso   1.00
O1249  O     0.37372   0.71978   0.50509   0.00000  Uiso   1.00
O1250  O     0.53961   0.89346   0.75001   0.00000  Uiso   1.00
O1251  O     0.44108   0.83332   0.82549   0.00000  Uiso   1.00
O1252  O     0.52027   0.83333   0.82549   0.00000  Uiso   1.00
O1253  O     0.46039   0.77321   0.75000   0.00000  Uiso   1.00
O1254  O     0.53958   0.77322   0.75000   0.00000  Uiso   1.00
O1255  O     0.47973   0.83334   0.67451   0.00000  Uiso   1.00
O1256  O     0.55892   0.83335   0.67451   0.00000  Uiso   1.00
O1257  O     0.41613   0.70464   0.74281   0.00000  Uiso   1.00
S1258  S     0.35369   0.76812   0.51196   0.00000  Uiso   1.00
C1259  C     0.83405   0.91250   0.74899   0.00000  Uiso   1.00
C1260  C     0.79212   0.83340   0.90734   0.00000  Uiso   1.00
C1261  C     0.87510   0.97954   0.75257   0.00000  Uiso   1.00
C1262  C     0.80743   0.83462   0.85003   0.00000  Uiso   1.00
C1263  C     0.87408   0.68870   0.75278   0.00000  Uiso   1.00
C1264  C     0.83249   0.70912   0.74929   0.00000  Uiso   1.00
C1265  C     0.79157   0.68609   0.74536   0.00000  Uiso   1.00
C1266  C     0.79444   0.97701   0.74153   0.00000  Uiso   1.00
C1267  C     0.83496   0.95695   0.74734   0.00000  Uiso   1.00
C1268  C     0.96934   0.86352   0.77427   0.00000  Uiso   1.00
C1269  C     0.68546   0.86355   0.77422   0.00000  Uiso   1.00
C1270  C     0.81205   0.83462   0.98968   0.00000  Uiso   1.00
C1271  C     0.69781   0.80405   0.72405   0.00000  Uiso   1.00
C1272  C     0.98165   0.80405   0.72410   0.00000  Uiso   1.00
C1273  C     0.83289   0.75397   0.74995   0.00000  Uiso   1.00
C1274  C     0.85917   0.83444   0.65038   0.00000  Uiso   1.00
C1275  C     0.93297   0.85266   0.51249   0.00000  Uiso   1.00
C1276  C     0.87323   0.83853   0.59426   0.00000  Uiso   1.00
C1277  C     0.74831   0.81260   0.93227   0.00000  Uiso   1.00
C1278  C     0.73645   0.80201   0.98431   0.00000  Uiso   1.00
C1279  C     0.76787   0.81315   0.51278   0.00000  Uiso   1.00
C1280  C     0.71111   0.69447   0.78765   0.00000  Uiso   1.00
C1281  C     0.82373   0.84571   0.93672   0.00000  Uiso   1.00
C1282  C     0.99657   0.69297   0.77430   0.00000  Uiso   1.00
C1283  C     0.94448   0.80624   0.88494   0.00000  Uiso   1.00
C1284  C     0.99232   0.78609   0.85942   0.00000  Uiso   1.00
C1285  C     0.84746   0.84159   0.51629   0.00000  Uiso   1.00
C1286  C     0.89613   0.85119   0.98792   0.00000  Uiso   1.00
C1287  C     0.90729   0.85803   0.93498   0.00000  Uiso   1.00
C1288  C     0.86937   0.86463   0.91361   0.00000  Uiso   1.00
C1289  C     0.83663   0.83672   0.56964   0.00000  Uiso   1.00
C1290  C     0.92155   0.84629   0.56549   0.00000  Uiso   1.00
Cu1291 Cu    0.78645   0.83333   0.75000   0.00000  Uiso   1.00
Cu1292 Cu    0.88022   0.83334   0.75000   0.00000  Uiso   1.00
H1293  H     0.95021   0.84849   0.58405   0.00000  Uiso   1.00
H1294  H     0.72534   0.80119   0.91023   0.00000  Uiso   1.00
H1295  H     0.75888   0.80138   0.55169   0.00000  Uiso   1.00
H1296  H     0.87914   0.87769   0.87540   0.00000  Uiso   1.00
H1297  H     0.90709   0.96450   0.75666   0.00000  Uiso   1.00
H1298  H     0.71015   0.71810   0.81714   0.00000  Uiso   1.00
H1299  H     0.71442   0.99764   0.80573   0.00000  Uiso   1.00
H1300  H     0.99648   0.66721   0.74760   0.00000  Uiso   1.00
H1301  H     0.96591   0.68829   0.80993   0.00000  Uiso   1.00
H1302  H     0.99151   0.72200   0.75540   0.00000  Uiso   1.00
H1303  H     0.92431   0.80852   0.85576   0.00000  Uiso   1.00
H1304  H     0.90571   0.70558   0.75635   0.00000  Uiso   1.00
H1305  H     0.92320   0.78528   0.91647   0.00000  Uiso   1.00
H1306  H     0.66769   0.76351   0.88593   0.00000  Uiso   1.00
H1307  H     0.98929   0.76965   0.82480   0.00000  Uiso   1.00
H1308  H     0.68858   0.80927   0.84747   0.00000  Uiso   1.00
H1309  H     0.73166   0.71879   0.52421   0.00000  Uiso   1.00
H1310  H     0.76372   0.95984   0.73582   0.00000  Uiso   1.00
H1311  H     0.94603   0.88757   0.79419   0.00000  Uiso   1.00
H1312  H     0.69890   0.88747   0.79443   0.00000  Uiso   1.00
H1313  H     0.72140   0.78046   0.70333   0.00000  Uiso   1.00
H1314  H     0.96832   0.78050   0.70328   0.00000  Uiso   1.00
H1315  H     0.97041   0.85952   0.99088   0.00000  Uiso   1.00
H1316  H     0.79940   0.83266   0.59286   0.00000  Uiso   1.00
N1317  N     0.71598   0.83332   0.74999   0.00000  Uiso   1.00
N1318  N     0.95069   0.83335   0.75000   0.00000  Uiso   1.00
O1319  O     0.79375   0.89345   0.75001   0.00000  Uiso   1.00
O1320  O     0.95188   0.84602   0.90336   0.00000  Uiso   1.00
O1321  O     0.99929   0.77683   0.56840   0.00000  Uiso   1.00
O1322  O     0.98146   0.77207   0.98539   0.00000  Uiso   1.00
O1323  O     0.70705   0.71978   0.50509   0.00000  Uiso   1.00
O1324  O     0.87294   0.89346   0.75001   0.00000  Uiso   1.00
O1325  O     0.77441   0.83332   0.82549   0.00000  Uiso   1.00
O1326  O     0.85360   0.83333   0.82549   0.00000  Uiso   1.00
O1327  O     0.79373   0.77321   0.75000   0.00000  Uiso   1.00
O1328  O     0.87292   0.77322   0.75000   0.00000  Uiso   1.00
O1329  O     0.81306   0.83334   0.67451   0.00000  Uiso   1.00
O1330  O     0.89225   0.83335   0.67451   0.00000  Uiso   1.00
O1331  O     0.74946   0.70464   0.74281   0.00000  Uiso   1.00
S1332  S     0.68702   0.76812   0.51196   0.00000  Uiso   1.00
loop_
_geom_bond_atom_site_label_1
_geom_bond_atom_site_label_2
_geom_bond_distance
_geom_bond_site_symmetry_2
_ccdc_geom_bond_type
C1     O66     1.296   .     A
C1     C9      1.449   .     S
C1     O61     1.295   .     A
C2     C4      1.487   .     S
C2     C23     1.423   .     A
C2     C19     1.404   .     A
C3     C9      1.397   .     A
C3     H39     1.083   .     S
C3     C227    1.386   .     S
C4     O67     1.306   .     A
C4     O68     1.302   .     A
C5     H46     1.081   .     S
C5     C6      1.406   .     A
C5     C447    1.386   1_545 S
C6     C7      1.412   .     A
C6     C15     1.462   .     S
C7     O73     1.382   .     S
C7     C452    1.389   1_545 S
C8     H52     1.084   .     S
C8     C9      1.394   .     A
C8     C229    1.389   .     S
C10    N60     1.368   .     A
C10    H53     1.081   .     S
C10    C85     1.420   .     S
C11    H54     1.081   .     S
C11    N59     1.370   .     A
C11    C158    1.420   1_455 S
C12    C23     1.420   .     A
C12    C687    1.412   .     S
C12    C693    1.422   .     S
C13    N59     1.368   .     A
C13    H55     1.081   .     S
C13    C162    1.421   1_455 S
C14    H56     1.081   .     S
C14    N60     1.369   .     A
C14    C87     1.421   .     S
C15    O69     1.298   .     A
C15    O70     1.299   .     A
C16    O72     1.301   .     A
C16    C18     1.461   .     S
C16    O71     1.296   .     A
C17    C32     1.392   .     A
C17    C694    1.403   1_554 S
C17    H723    1.084   1_554 S
C18    C32     1.399   .     A
C18    C31     1.399   .     A
C19    C20     1.392   .     A
C19    H36     1.072   .     S
C20    C687    1.390   .     S
C20    S740    1.765   .     S
C21    H37     1.078   .     S
C21    C686    1.390   1_554 S
C21    C678    1.412   1_554 S
C22    H40     1.106   .     S
C22    O73     1.417   .     S
C22    C172    1.519   1_455 S
C22    H485    1.116   1_545 S
C23    C30     1.407   .     A
C24    H42     1.111   .     S
C24    H44     1.107   .     S
C24    H43     1.111   .     S
C24    C96     1.519   .     S
C25    H47     1.118   .     S
C25    C26     1.512   .     S
C25    H45     1.110   .     S
C25    O62     1.424   .     S
C26    H49     1.106   .     S
C26    H122    1.109   .     S
C26    H124    1.101   .     S
C27    C31     1.396   .     A
C27    C678    1.422   1_554 S
C27    C694    1.415   1_554 S
C28    C29     1.393   .     A
C28    C683    1.403   .     S
C28    C693    1.415   .     S
C29    C30     1.393   .     A
C29    O62     1.384   .     S
C30    H38     1.076   .     S
C31    H58     1.078   .     S
C32    H35     1.083   .     S
Cu33   O69     1.975   .     S
Cu33   N59     2.024   .     S
Cu33   O61     1.967   .     S
Cu33   Cu34    2.693   .     S
Cu33   O71     1.966   .     S
Cu33   O67     1.974   .     S
Cu34   O66     1.975   .     S
Cu34   N60     2.024   .     S
Cu34   O72     1.974   .     S
Cu34   O68     1.966   .     S
Cu34   O70     1.967   .     S
H41    C244    1.116   .     S
H48    C174    1.109   1_455 S
H50    C174    1.101   1_455 S
H51    O65     0.991   .     S
H57    C683    1.084   .     S
O63    S148    1.503   .     S
O64    S814    1.501   .     S
O65    S74     1.681   .     S
S74    C686    1.765   1_554 S
S74    O211    1.503   1_455 S
S74    O878    1.501   1_454 S
C75    O140    1.296   .     A
C75    C83     1.449   .     S
C75    O135    1.295   .     A
C76    C78     1.487   .     S
C76    C97     1.423   .     A
C76    C93     1.404   .     A
C77    C83     1.397   .     A
C77    H113    1.083   .     S
C77    C301    1.386   .     S
C78    O141    1.306   .     A
C78    O142    1.302   .     A
C79    H120    1.081   .     S
C79    C80     1.406   .     A
C79    C521    1.386   1_545 S
C80    C81     1.412   .     A
C80    C89     1.462   .     S
C81    O147    1.382   .     S
C81    C526    1.389   1_545 S
C82    H126    1.084   .     S
C82    C83     1.394   .     A
C82    C303    1.389   .     S
C84    N134    1.368   .     A
C84    H127    1.081   .     S
C84    C159    1.420   .     S
C85    H128    1.081   .     S
C85    N133    1.370   .     A
C86    C97     1.420   .     A
C86    C761    1.412   .     S
C86    C767    1.422   .     S
C87    N133    1.368   .     A
C87    H129    1.081   .     S
C88    H130    1.081   .     S
C88    N134    1.369   .     A
C88    C161    1.421   .     S
C89    O143    1.298   .     A
C89    O144    1.299   .     A
C90    O146    1.301   .     A
C90    C92     1.461   .     S
C90    O145    1.296   .     A
C91    C106    1.392   .     A
C91    C768    1.403   1_554 S
C91    H797    1.084   1_554 S
C92    C106    1.399   .     A
C92    C105    1.399   .     A
C93    C94     1.392   .     A
C93    H110    1.072   .     S
C94    C761    1.390   .     S
C94    S814    1.765   .     S
C95    H111    1.078   .     S
C95    C760    1.390   1_554 S
C95    C752    1.412   1_554 S
C96    H114    1.106   .     S
C96    O147    1.417   .     S
C96    H559    1.116   1_545 S
C97    C104    1.407   .     A
C98    H116    1.111   .     S
C98    H118    1.107   .     S
C98    H117    1.111   .     S
C98    C170    1.519   .     S
C99    H121    1.118   .     S
C99    C100    1.512   .     S
C99    H119    1.110   .     S
C99    O136    1.424   .     S
C100   H123    1.106   .     S
C100   H196    1.109   .     S
C100   H198    1.101   .     S
C101   C105    1.396   .     A
C101   C752    1.422   1_554 S
C101   C768    1.415   1_554 S
C102   C103    1.393   .     A
C102   C757    1.403   .     S
C102   C767    1.415   .     S
C103   C104    1.393   .     A
C103   O136    1.384   .     S
C104   H112    1.076   .     S
C105   H132    1.078   .     S
C106   H109    1.083   .     S
Cu107  O143    1.975   .     S
Cu107  N133    2.024   .     S
Cu107  O135    1.967   .     S
Cu107  Cu108   2.693   .     S
Cu107  O145    1.966   .     S
Cu107  O141    1.974   .     S
Cu108  O140    1.975   .     S
Cu108  N134    2.024   .     S
Cu108  O146    1.974   .     S
Cu108  O142    1.966   .     S
Cu108  O144    1.967   .     S
H115   C318    1.116   .     S
H125   O139    0.991   .     S
H131   C757    1.084   .     S
O137   S222    1.503   .     S
O138   S888    1.501   .     S
O139   S148    1.681   .     S
S148   C760    1.765   1_554 S
S148   O730    1.501   1_554 S
C149   O214    1.296   .     A
C149   C157    1.449   .     S
C149   O209    1.295   .     A
C150   C152    1.487   .     S
C150   C171    1.423   .     A
C150   C167    1.404   .     A
C151   C157    1.397   .     A
C151   H187    1.083   .     S
C151   C375    1.386   .     S
C152   O215    1.306   .     A
C152   O216    1.302   .     A
C153   H194    1.081   .     S
C153   C154    1.406   .     A
C153   C595    1.386   1_545 S
C154   C155    1.412   .     A
C154   C163    1.462   .     S
C155   O221    1.382   .     S
C155   C600    1.389   1_545 S
C156   H200    1.084   .     S
C156   C157    1.394   .     A
C156   C377    1.389   .     S
C158   N208    1.368   .     A
C158   H201    1.081   .     S
C158   C11     1.420   1_655 S
C159   H202    1.081   .     S
C159   N207    1.370   .     A
C160   C171    1.420   .     A
C160   C835    1.412   .     S
C160   C841    1.422   .     S
C161   N207    1.368   .     A
C161   H203    1.081   .     S
C162   H204    1.081   .     S
C162   N208    1.369   .     A
C162   C13     1.421   1_655 S
C163   O217    1.298   .     A
C163   O218    1.299   .     A
C164   O220    1.301   .     A
C164   C166    1.461   .     S
C164   O219    1.296   .     A
C165   C180    1.392   .     A
C165   C842    1.403   1_554 S
C165   H871    1.084   1_554 S
C166   C180    1.399   .     A
C166   C179    1.399   .     A
C167   C168    1.392   .     A
C167   H184    1.072   .     S
C168   C835    1.390   .     S
C168   S888    1.765   .     S
C169   H185    1.078   .     S
C169   C834    1.390   1_554 S
C169   C826    1.412   1_554 S
C170   H188    1.106   .     S
C170   O221    1.417   .     S
C170   H633    1.116   1_545 S
C171   C178    1.407   .     A
C172   H190    1.111   .     S
C172   H192    1.107   .     S
C172   H191    1.111   .     S
C172   C22     1.519   1_655 S
C173   H195    1.118   .     S
C173   C174    1.512   .     S
C173   H193    1.110   .     S
C173   O210    1.424   .     S
C174   H197    1.106   .     S
C174   H48     1.109   1_655 S
C174   H50     1.101   1_655 S
C175   C179    1.396   .     A
C175   C826    1.422   1_554 S
C175   C842    1.415   1_554 S
C176   C177    1.393   .     A
C176   C831    1.403   .     S
C176   C841    1.415   .     S
C177   C178    1.393   .     A
C177   O210    1.384   .     S
C178   H186    1.076   .     S
C179   H206    1.078   .     S
C180   H183    1.083   .     S
Cu181  O217    1.975   .     S
Cu181  N207    2.024   .     S
Cu181  O209    1.967   .     S
Cu181  Cu182   2.693   .     S
Cu181  O219    1.966   .     S
Cu181  O215    1.974   .     S
Cu182  O214    1.975   .     S
Cu182  N208    2.024   .     S
Cu182  O220    1.974   .     S
Cu182  O216    1.966   .     S
Cu182  O218    1.967   .     S
H189   C392    1.116   .     S
H199   O213    0.991   .     S
H205   C831    1.084   .     S
O211   S74     1.503   1_655 S
O212   S740    1.501   1_655 S
O213   S222    1.681   .     S
S222   C834    1.765   1_554 S
S222   O804    1.501   1_554 S
C223   O288    1.296   .     A
C223   C231    1.449   .     S
C223   O283    1.295   .     A
C224   C226    1.487   .     S
C224   C245    1.423   .     A
C224   C241    1.404   .     A
C225   C231    1.397   .     A
C225   H261    1.083   .     S
C225   C449    1.386   .     S
C226   O289    1.306   .     A
C226   O290    1.302   .     A
C227   H268    1.081   .     S
C227   C228    1.406   .     A
C228   C229    1.412   .     A
C228   C237    1.462   .     S
C229   O295    1.382   .     S
C230   H274    1.084   .     S
C230   C231    1.394   .     A
C230   C451    1.389   .     S
C232   N282    1.368   .     A
C232   H275    1.081   .     S
C232   C307    1.420   .     S
C233   H276    1.081   .     S
C233   N281    1.370   .     A
C233   C380    1.420   1_455 S
C234   C245    1.420   .     A
C234   C909    1.412   .     S
C234   C915    1.422   .     S
C235   N281    1.368   .     A
C235   H277    1.081   .     S
C235   C384    1.421   1_455 S
C236   H278    1.081   .     S
C236   N282    1.369   .     A
C236   C309    1.421   .     S
C237   O291    1.298   .     A
C237   O292    1.299   .     A
C238   O294    1.301   .     A
C238   C240    1.461   .     S
C238   O293    1.296   .     A
C239   C254    1.392   .     A
C239   C916    1.403   1_554 S
C239   H945    1.084   1_554 S
C240   C254    1.399   .     A
C240   C253    1.399   .     A
C241   C242    1.392   .     A
C241   H258    1.072   .     S
C242   C909    1.390   .     S
C242   S962    1.765   .     S
C243   H259    1.078   .     S
C243   C908    1.390   1_554 S
C243   C900    1.412   1_554 S
C244   H262    1.106   .     S
C244   O295    1.417   .     S
C244   C394    1.519   1_455 S
C245   C252    1.407   .     A
C246   H264    1.111   .     S
C246   H266    1.107   .     S
C246   H265    1.111   .     S
C246   C318    1.519   .     S
C247   H269    1.118   .     S
C247   C248    1.512   .     S
C247   H267    1.110   .     S
C247   O284    1.424   .     S
C248   H271    1.106   .     S
C248   H344    1.109   .     S
C248   H346    1.101   .     S
C249   C253    1.396   .     A
C249   C900    1.422   1_554 S
C249   C916    1.415   1_554 S
C250   C251    1.393   .     A
C250   C905    1.403   .     S
C250   C915    1.415   .     S
C251   C252    1.393   .     A
C251   O284    1.384   .     S
C252   H260    1.076   .     S
C253   H280    1.078   .     S
C254   H257    1.083   .     S
Cu255  O291    1.975   .     S
Cu255  N281    2.024   .     S
Cu255  O283    1.967   .     S
Cu255  Cu256   2.693   .     S
Cu255  O293    1.966   .     S
Cu255  O289    1.974   .     S
Cu256  O288    1.975   .     S
Cu256  N282    2.024   .     S
Cu256  O294    1.974   .     S
Cu256  O290    1.966   .     S
Cu256  O292    1.967   .     S
H263   C466    1.116   .     S
H270   C396    1.109   1_455 S
H272   C396    1.101   1_455 S
H273   O287    0.991   .     S
H279   C905    1.084   .     S
O285   S370    1.503   .     S
O286   S1036   1.501   .     S
O287   S296    1.681   .     S
S296   C908    1.765   1_554 S
S296   O433    1.503   1_455 S
S296   O1100   1.501   1_454 S
C297   O362    1.296   .     A
C297   C305    1.449   .     S
C297   O357    1.295   .     A
C298   C300    1.487   .     S
C298   C319    1.423   .     A
C298   C315    1.404   .     A
C299   C305    1.397   .     A
C299   H335    1.083   .     S
C299   C523    1.386   .     S
C300   O363    1.306   .     A
C300   O364    1.302   .     A
C301   H342    1.081   .     S
C301   C302    1.406   .     A
C302   C303    1.412   .     A
C302   C311    1.462   .     S
C303   O369    1.382   .     S
C304   H348    1.084   .     S
C304   C305    1.394   .     A
C304   C525    1.389   .     S
C306   N356    1.368   .     A
C306   H349    1.081   .     S
C306   C381    1.420   .     S
C307   H350    1.081   .     S
C307   N355    1.370   .     A
C308   C319    1.420   .     A
C308   C983    1.412   .     S
C308   C989    1.422   .     S
C309   N355    1.368   .     A
C309   H351    1.081   .     S
C310   H352    1.081   .     S
C310   N356    1.369   .     A
C310   C383    1.421   .     S
C311   O365    1.298   .     A
C311   O366    1.299   .     A
C312   O368    1.301   .     A
C312   C314    1.461   .     S
C312   O367    1.296   .     A
C313   C328    1.392   .     A
C313   C990    1.403   1_554 S
C313   H1019   1.084   1_554 S
C314   C328    1.399   .     A
C314   C327    1.399   .     A
C315   C316    1.392   .     A
C315   H332    1.072   .     S
C316   C983    1.390   .     S
C316   S1036   1.765   .     S
C317   H333    1.078   .     S
C317   C982    1.390   1_554 S
C317   C974    1.412   1_554 S
C318   H336    1.106   .     S
C318   O369    1.417   .     S
C319   C326    1.407   .     A
C320   H338    1.111   .     S
C320   H340    1.107   .     S
C320   H339    1.111   .     S
C320   C392    1.519   .     S
C321   H343    1.118   .     S
C321   C322    1.512   .     S
C321   H341    1.110   .     S
C321   O358    1.424   .     S
C322   H345    1.106   .     S
C322   H418    1.109   .     S
C322   H420    1.101   .     S
C323   C327    1.396   .     A
C323   C974    1.422   1_554 S
C323   C990    1.415   1_554 S
C324   C325    1.393   .     A
C324   C979    1.403   .     S
C324   C989    1.415   .     S
C325   C326    1.393   .     A
C325   O358    1.384   .     S
C326   H334    1.076   .     S
C327   H354    1.078   .     S
C328   H331    1.083   .     S
Cu329  O365    1.975   .     S
Cu329  N355    2.024   .     S
Cu329  O357    1.967   .     S
Cu329  Cu330   2.693   .     S
Cu329  O367    1.966   .     S
Cu329  O363    1.974   .     S
Cu330  O362    1.975   .     S
Cu330  N356    2.024   .     S
Cu330  O368    1.974   .     S
Cu330  O364    1.966   .     S
Cu330  O366    1.967   .     S
H337   C540    1.116   .     S
H347   O361    0.991   .     S
H353   C979    1.084   .     S
O359   S444    1.503   .     S
O360   S1110   1.501   .     S
O361   S370    1.681   .     S
S370   C982    1.765   1_554 S
S370   O952    1.501   1_554 S
C371   O436    1.296   .     A
C371   C379    1.449   .     S
C371   O431    1.295   .     A
C372   C374    1.487   .     S
C372   C393    1.423   .     A
C372   C389    1.404   .     A
C373   C379    1.397   .     A
C373   H409    1.083   .     S
C373   C597    1.386   .     S
C374   O437    1.306   .     A
C374   O438    1.302   .     A
C375   H416    1.081   .     S
C375   C376    1.406   .     A
C376   C377    1.412   .     A
C376   C385    1.462   .     S
C377   O443    1.382   .     S
C378   H422    1.084   .     S
C378   C379    1.394   .     A
C378   C599    1.389   .     S
C380   N430    1.368   .     A
C380   H423    1.081   .     S
C380   C233    1.420   1_655 S
C381   H424    1.081   .     S
C381   N429    1.370   .     A
C382   C393    1.420   .     A
C382   C1057   1.412   .     S
C382   C1063   1.422   .     S
C383   N429    1.368   .     A
C383   H425    1.081   .     S
C384   H426    1.081   .     S
C384   N430    1.369   .     A
C384   C235    1.421   1_655 S
C385   O439    1.298   .     A
C385   O440    1.299   .     A
C386   O442    1.301   .     A
C386   C388    1.461   .     S
C386   O441    1.296   .     A
C387   C402    1.392   .     A
C387   C1064   1.403   1_554 S
C387   H1093   1.084   1_554 S
C388   C402    1.399   .     A
C388   C401    1.399   .     A
C389   C390    1.392   .     A
C389   H406    1.072   .     S
C390   C1057   1.390   .     S
C390   S1110   1.765   .     S
C391   H407    1.078   .     S
C391   C1056   1.390   1_554 S
C391   C1048   1.412   1_554 S
C392   H410    1.106   .     S
C392   O443    1.417   .     S
C393   C400    1.407   .     A
C394   H412    1.111   .     S
C394   H414    1.107   .     S
C394   H413    1.111   .     S
C394   C244    1.519   1_655 S
C395   H417    1.118   .     S
C395   C396    1.512   .     S
C395   H415    1.110   .     S
C395   O432    1.424   .     S
C396   H419    1.106   .     S
C396   H270    1.109   1_655 S
C396   H272    1.101   1_655 S
C397   C401    1.396   .     A
C397   C1048   1.422   1_554 S
C397   C1064   1.415   1_554 S
C398   C399    1.393   .     A
C398   C1053   1.403   .     S
C398   C1063   1.415   .     S
C399   C400    1.393   .     A
C399   O432    1.384   .     S
C400   H408    1.076   .     S
C401   H428    1.078   .     S
C402   H405    1.083   .     S
Cu403  O439    1.975   .     S
Cu403  N429    2.024   .     S
Cu403  O431    1.967   .     S
Cu403  Cu404   2.693   .     S
Cu403  O441    1.966   .     S
Cu403  O437    1.974   .     S
Cu404  O436    1.975   .     S
Cu404  N430    2.024   .     S
Cu404  O442    1.974   .     S
Cu404  O438    1.966   .     S
Cu404  O440    1.967   .     S
H411   C614    1.116   .     S
H421   O435    0.991   .     S
H427   C1053   1.084   .     S
O433   S296    1.503   1_655 S
O434   S962    1.501   1_655 S
O435   S444    1.681   .     S
S444   C1056   1.765   1_554 S
S444   O1026   1.501   1_554 S
C445   O510    1.296   .     A
C445   C453    1.449   .     S
C445   O505    1.295   .     A
C446   C448    1.487   .     S
C446   C467    1.423   .     A
C446   C463    1.404   .     A
C447   C453    1.397   .     A
C447   H483    1.083   .     S
C447   C5      1.386   1_565 S
C448   O511    1.306   .     A
C448   O512    1.302   .     A
C449   H490    1.081   .     S
C449   C450    1.406   .     A
C450   C451    1.412   .     A
C450   C459    1.462   .     S
C451   O517    1.382   .     S
C452   H496    1.084   .     S
C452   C453    1.394   .     A
C452   C7      1.389   1_565 S
C454   N504    1.368   .     A
C454   H497    1.081   .     S
C454   C529    1.420   .     S
C455   H498    1.081   .     S
C455   N503    1.370   .     A
C455   C602    1.420   1_455 S
C456   C467    1.420   .     A
C456   C1131   1.412   .     S
C456   C1137   1.422   .     S
C457   N503    1.368   .     A
C457   H499    1.081   .     S
C457   C606    1.421   1_455 S
C458   H500    1.081   .     S
C458   N504    1.369   .     A
C458   C531    1.421   .     S
C459   O513    1.298   .     A
C459   O514    1.299   .     A
C460   O516    1.301   .     A
C460   C462    1.461   .     S
C460   O515    1.296   .     A
C461   C476    1.392   .     A
C461   C1138   1.403   1_554 S
C461   H1167   1.084   1_554 S
C462   C476    1.399   .     A
C462   C475    1.399   .     A
C463   C464    1.392   .     A
C463   H480    1.072   .     S
C464   C1131   1.390   .     S
C464   S1184   1.765   .     S
C465   H481    1.078   .     S
C465   C1130   1.390   1_554 S
C465   C1122   1.412   1_554 S
C466   H484    1.106   .     S
C466   O517    1.417   .     S
C466   C616    1.519   1_455 S
C467   C474    1.407   .     A
C468   H486    1.111   .     S
C468   H488    1.107   .     S
C468   H487    1.111   .     S
C468   C540    1.519   .     S
C469   H491    1.118   .     S
C469   C470    1.512   .     S
C469   H489    1.110   .     S
C469   O506    1.424   .     S
C470   H493    1.106   .     S
C470   H566    1.109   .     S
C470   H568    1.101   .     S
C471   C475    1.396   .     A
C471   C1122   1.422   1_554 S
C471   C1138   1.415   1_554 S
C472   C473    1.393   .     A
C472   C1127   1.403   .     S
C472   C1137   1.415   .     S
C473   C474    1.393   .     A
C473   O506    1.384   .     S
C474   H482    1.076   .     S
C475   H502    1.078   .     S
C476   H479    1.083   .     S
Cu477  O513    1.975   .     S
Cu477  N503    2.024   .     S
Cu477  O505    1.967   .     S
Cu477  Cu478   2.693   .     S
Cu477  O515    1.966   .     S
Cu477  O511    1.974   .     S
Cu478  O510    1.975   .     S
Cu478  N504    2.024   .     S
Cu478  O516    1.974   .     S
Cu478  O512    1.966   .     S
Cu478  O514    1.967   .     S
H485   C22     1.116   1_565 S
H492   C618    1.109   1_455 S
H494   C618    1.101   1_455 S
H495   O509    0.991   .     S
H501   C1127   1.084   .     S
O507   S592    1.503   .     S
O508   S1258   1.501   .     S
O509   S518    1.681   .     S
S518   C1130   1.765   1_554 S
S518   O655    1.503   1_455 S
S518   O1322   1.501   1_454 S
C519   O584    1.296   .     A
C519   C527    1.449   .     S
C519   O579    1.295   .     A
C520   C522    1.487   .     S
C520   C541    1.423   .     A
C520   C537    1.404   .     A
C521   C527    1.397   .     A
C521   H557    1.083   .     S
C521   C79     1.386   1_565 S
C522   O585    1.306   .     A
C522   O586    1.302   .     A
C523   H564    1.081   .     S
C523   C524    1.406   .     A
C524   C525    1.412   .     A
C524   C533    1.462   .     S
C525   O591    1.382   .     S
C526   H570    1.084   .     S
C526   C527    1.394   .     A
C526   C81     1.389   1_565 S
C528   N578    1.368   .     A
C528   H571    1.081   .     S
C528   C603    1.420   .     S
C529   H572    1.081   .     S
C529   N577    1.370   .     A
C530   C541    1.420   .     A
C530   C1205   1.412   .     S
C530   C1211   1.422   .     S
C531   N577    1.368   .     A
C531   H573    1.081   .     S
C532   H574    1.081   .     S
C532   N578    1.369   .     A
C532   C605    1.421   .     S
C533   O587    1.298   .     A
C533   O588    1.299   .     A
C534   O590    1.301   .     A
C534   C536    1.461   .     S
C534   O589    1.296   .     A
C535   C550    1.392   .     A
C535   C1212   1.403   1_554 S
C535   H1241   1.084   1_554 S
C536   C550    1.399   .     A
C536   C549    1.399   .     A
C537   C538    1.392   .     A
C537   H554    1.072   .     S
C538   C1205   1.390   .     S
C538   S1258   1.765   .     S
C539   H555    1.078   .     S
C539   C1204   1.390   1_554 S
C539   C1196   1.412   1_554 S
C540   H558    1.106   .     S
C540   O591    1.417   .     S
C541   C548    1.407   .     A
C542   H560    1.111   .     S
C542   H562    1.107   .     S
C542   H561    1.111   .     S
C542   C614    1.519   .     S
C543   H565    1.118   .     S
C543   C544    1.512   .     S
C543   H563    1.110   .     S
C543   O580    1.424   .     S
C544   H567    1.106   .     S
C544   H640    1.109   .     S
C544   H642    1.101   .     S
C545   C549    1.396   .     A
C545   C1196   1.422   1_554 S
C545   C1212   1.415   1_554 S
C546   C547    1.393   .     A
C546   C1201   1.403   .     S
C546   C1211   1.415   .     S
C547   C548    1.393   .     A
C547   O580    1.384   .     S
C548   H556    1.076   .     S
C549   H576    1.078   .     S
C550   H553    1.083   .     S
Cu551  O587    1.975   .     S
Cu551  N577    2.024   .     S
Cu551  O579    1.967   .     S
Cu551  Cu552   2.693   .     S
Cu551  O589    1.966   .     S
Cu551  O585    1.974   .     S
Cu552  O584    1.975   .     S
Cu552  N578    2.024   .     S
Cu552  O590    1.974   .     S
Cu552  O586    1.966   .     S
Cu552  O588    1.967   .     S
H559   C96     1.116   1_565 S
H569   O583    0.991   .     S
H575   C1201   1.084   .     S
O581   S666    1.503   .     S
O582   S1332   1.501   .     S
O583   S592    1.681   .     S
S592   C1204   1.765   1_554 S
S592   O1174   1.501   1_554 S
C593   O658    1.296   .     A
C593   C601    1.449   .     S
C593   O653    1.295   .     A
C594   C596    1.487   .     S
C594   C615    1.423   .     A
C594   C611    1.404   .     A
C595   C601    1.397   .     A
C595   H631    1.083   .     S
C595   C153    1.386   1_565 S
C596   O659    1.306   .     A
C596   O660    1.302   .     A
C597   H638    1.081   .     S
C597   C598    1.406   .     A
C598   C599    1.412   .     A
C598   C607    1.462   .     S
C599   O665    1.382   .     S
C600   H644    1.084   .     S
C600   C601    1.394   .     A
C600   C155    1.389   1_565 S
C602   N652    1.368   .     A
C602   H645    1.081   .     S
C602   C455    1.420   1_655 S
C603   H646    1.081   .     S
C603   N651    1.370   .     A
C604   C615    1.420   .     A
C604   C1279   1.412   .     S
C604   C1285   1.422   .     S
C605   N651    1.368   .     A
C605   H647    1.081   .     S
C606   H648    1.081   .     S
C606   N652    1.369   .     A
C606   C457    1.421   1_655 S
C607   O661    1.298   .     A
C607   O662    1.299   .     A
C608   O664    1.301   .     A
C608   C610    1.461   .     S
C608   O663    1.296   .     A
C609   C624    1.392   .     A
C609   C1286   1.403   1_554 S
C609   H1315   1.084   1_554 S
C610   C624    1.399   .     A
C610   C623    1.399   .     A
C611   C612    1.392   .     A
C611   H628    1.072   .     S
C612   C1279   1.390   .     S
C612   S1332   1.765   .     S
C613   H629    1.078   .     S
C613   C1278   1.390   1_554 S
C613   C1270   1.412   1_554 S
C614   H632    1.106   .     S
C614   O665    1.417   .     S
C615   C622    1.407   .     A
C616   H634    1.111   .     S
C616   H636    1.107   .     S
C616   H635    1.111   .     S
C616   C466    1.519   1_655 S
C617   H639    1.118   .     S
C617   C618    1.512   .     S
C617   H637    1.110   .     S
C617   O654    1.424   .     S
C618   H641    1.106   .     S
C618   H492    1.109   1_655 S
C618   H494    1.101   1_655 S
C619   C623    1.396   .     A
C619   C1270   1.422   1_554 S
C619   C1286   1.415   1_554 S
C620   C621    1.393   .     A
C620   C1275   1.403   .     S
C620   C1285   1.415   .     S
C621   C622    1.393   .     A
C621   O654    1.384   .     S
C622   H630    1.076   .     S
C623   H650    1.078   .     S
C624   H627    1.083   .     S
Cu625  O661    1.975   .     S
Cu625  N651    2.024   .     S
Cu625  O653    1.967   .     S
Cu625  Cu626   2.693   .     S
Cu625  O663    1.966   .     S
Cu625  O659    1.974   .     S
Cu626  O658    1.975   .     S
Cu626  N652    2.024   .     S
Cu626  O664    1.974   .     S
Cu626  O660    1.966   .     S
Cu626  O662    1.967   .     S
H633   C170    1.116   1_565 S
H643   O657    0.991   .     S
H649   C1275   1.084   .     S
O655   S518    1.503   1_655 S
O656   S1184   1.501   1_655 S
O657   S666    1.681   .     S
S666   C1278   1.765   1_554 S
S666   O1248   1.501   1_554 S
C667   O732    1.296   .     A
C667   C675    1.449   .     S
C667   O727    1.295   .     A
C668   C670    1.487   .     S
C668   C689    1.423   .     A
C668   C685    1.404   .     A
C669   C675    1.397   .     A
C669   H705    1.083   .     S
C669   C893    1.386   .     S
C670   O733    1.306   .     A
C670   O734    1.302   .     A
C671   H712    1.081   .     S
C671   C672    1.406   .     A
C671   C1113   1.386   1_545 S
C672   C673    1.412   .     A
C672   C681    1.462   .     S
C673   O739    1.382   .     S
C673   C1118   1.389   1_545 S
C674   H718    1.084   .     S
C674   C675    1.394   .     A
C674   C895    1.389   .     S
C676   N726    1.368   .     A
C676   H719    1.081   .     S
C676   C751    1.420   .     S
C677   H720    1.081   .     S
C677   N725    1.370   .     A
C677   C824    1.420   1_455 S
C678   C689    1.420   .     A
C678   C21     1.412   1_556 S
C678   C27     1.422   1_556 S
C679   N725    1.368   .     A
C679   H721    1.081   .     S
C679   C828    1.421   1_455 S
C680   H722    1.081   .     S
C680   N726    1.369   .     A
C680   C753    1.421   .     S
C681   O735    1.298   .     A
C681   O736    1.299   .     A
C682   O738    1.301   .     A
C682   C684    1.461   .     S
C682   O737    1.296   .     A
C683   C698    1.392   .     A
C684   C698    1.399   .     A
C684   C697    1.399   .     A
C685   C686    1.392   .     A
C685   H702    1.072   .     S
C686   C21     1.390   1_556 S
C686   S74     1.765   1_556 S
C687   H703    1.078   .     S
C688   H706    1.106   .     S
C688   O739    1.417   .     S
C688   C838    1.519   1_455 S
C688   H1151   1.116   1_545 S
C689   C696    1.407   .     A
C690   H708    1.111   .     S
C690   H710    1.107   .     S
C690   H709    1.111   .     S
C690   C762    1.519   .     S
C691   H713    1.118   .     S
C691   C692    1.512   .     S
C691   H711    1.110   .     S
C691   O728    1.424   .     S
C692   H715    1.106   .     S
C692   H788    1.109   .     S
C692   H790    1.101   .     S
C693   C697    1.396   .     A
C694   C695    1.393   .     A
C694   C17     1.403   1_556 S
C694   C27     1.415   1_556 S
C695   C696    1.393   .     A
C695   O728    1.384   .     S
C696   H704    1.076   .     S
C697   H724    1.078   .     S
C698   H701    1.083   .     S
Cu699  O735    1.975   .     S
Cu699  N725    2.024   .     S
Cu699  O727    1.967   .     S
Cu699  Cu700   2.693   .     S
Cu699  O737    1.966   .     S
Cu699  O733    1.974   .     S
Cu700  O732    1.975   .     S
Cu700  N726    2.024   .     S
Cu700  O738    1.974   .     S
Cu700  O734    1.966   .     S
Cu700  O736    1.967   .     S
H707   C910    1.116   .     S
H714   C840    1.109   1_455 S
H716   C840    1.101   1_455 S
H717   O731    0.991   .     S
H723   C17     1.084   1_556 S
O729   S814    1.503   .     S
O730   S148    1.501   1_556 S
O731   S740    1.681   .     S
S740   O877    1.503   1_455 S
S740   O212    1.501   1_455 S
C741   O806    1.296   .     A
C741   C749    1.449   .     S
C741   O801    1.295   .     A
C742   C744    1.487   .     S
C742   C763    1.423   .     A
C742   C759    1.404   .     A
C743   C749    1.397   .     A
C743   H779    1.083   .     S
C743   C967    1.386   .     S
C744   O807    1.306   .     A
C744   O808    1.302   .     A
C745   H786    1.081   .     S
C745   C746    1.406   .     A
C745   C1187   1.386   1_545 S
C746   C747    1.412   .     A
C746   C755    1.462   .     S
C747   O813    1.382   .     S
C747   C1192   1.389   1_545 S
C748   H792    1.084   .     S
C748   C749    1.394   .     A
C748   C969    1.389   .     S
C750   N800    1.368   .     A
C750   H793    1.081   .     S
C750   C825    1.420   .     S
C751   H794    1.081   .     S
C751   N799    1.370   .     A
C752   C763    1.420   .     A
C752   C95     1.412   1_556 S
C752   C101    1.422   1_556 S
C753   N799    1.368   .     A
C753   H795    1.081   .     S
C754   H796    1.081   .     S
C754   N800    1.369   .     A
C754   C827    1.421   .     S
C755   O809    1.298   .     A
C755   O810    1.299   .     A
C756   O812    1.301   .     A
C756   C758    1.461   .     S
C756   O811    1.296   .     A
C757   C772    1.392   .     A
C758   C772    1.399   .     A
C758   C771    1.399   .     A
C759   C760    1.392   .     A
C759   H776    1.072   .     S
C760   C95     1.390   1_556 S
C760   S148    1.765   1_556 S
C761   H777    1.078   .     S
C762   H780    1.106   .     S
C762   O813    1.417   .     S
C762   H1225   1.116   1_545 S
C763   C770    1.407   .     A
C764   H782    1.111   .     S
C764   H784    1.107   .     S
C764   H783    1.111   .     S
C764   C836    1.519   .     S
C765   H787    1.118   .     S
C765   C766    1.512   .     S
C765   H785    1.110   .     S
C765   O802    1.424   .     S
C766   H789    1.106   .     S
C766   H862    1.109   .     S
C766   H864    1.101   .     S
C767   C771    1.396   .     A
C768   C769    1.393   .     A
C768   C91     1.403   1_556 S
C768   C101    1.415   1_556 S
C769   C770    1.393   .     A
C769   O802    1.384   .     S
C770   H778    1.076   .     S
C771   H798    1.078   .     S
C772   H775    1.083   .     S
Cu773  O809    1.975   .     S
Cu773  N799    2.024   .     S
Cu773  O801    1.967   .     S
Cu773  Cu774   2.693   .     S
Cu773  O811    1.966   .     S
Cu773  O807    1.974   .     S
Cu774  O806    1.975   .     S
Cu774  N800    2.024   .     S
Cu774  O812    1.974   .     S
Cu774  O808    1.966   .     S
Cu774  O810    1.967   .     S
H781   C984    1.116   .     S
H791   O805    0.991   .     S
H797   C91     1.084   1_556 S
O803   S888    1.503   .     S
O804   S222    1.501   1_556 S
O805   S814    1.681   .     S
C815   O880    1.296   .     A
C815   C823    1.449   .     S
C815   O875    1.295   .     A
C816   C818    1.487   .     S
C816   C837    1.423   .     A
C816   C833    1.404   .     A
C817   C823    1.397   .     A
C817   H853    1.083   .     S
C817   C1041   1.386   .     S
C818   O881    1.306   .     A
C818   O882    1.302   .     A
C819   H860    1.081   .     S
C819   C820    1.406   .     A
C819   C1261   1.386   1_545 S
C820   C821    1.412   .     A
C820   C829    1.462   .     S
C821   O887    1.382   .     S
C821   C1266   1.389   1_545 S
C822   H866    1.084   .     S
C822   C823    1.394   .     A
C822   C1043   1.389   .     S
C824   N874    1.368   .     A
C824   H867    1.081   .     S
C824   C677    1.420   1_655 S
C825   H868    1.081   .     S
C825   N873    1.370   .     A
C826   C837    1.420   .     A
C826   C169    1.412   1_556 S
C826   C175    1.422   1_556 S
C827   N873    1.368   .     A
C827   H869    1.081   .     S
C828   H870    1.081   .     S
C828   N874    1.369   .     A
C828   C679    1.421   1_655 S
C829   O883    1.298   .     A
C829   O884    1.299   .     A
C830   O886    1.301   .     A
C830   C832    1.461   .     S
C830   O885    1.296   .     A
C831   C846    1.392   .     A
C832   C846    1.399   .     A
C832   C845    1.399   .     A
C833   C834    1.392   .     A
C833   H850    1.072   .     S
C834   C169    1.390   1_556 S
C834   S222    1.765   1_556 S
C835   H851    1.078   .     S
C836   H854    1.106   .     S
C836   O887    1.417   .     S
C836   H1299   1.116   1_545 S
C837   C844    1.407   .     A
C838   H856    1.111   .     S
C838   H858    1.107   .     S
C838   H857    1.111   .     S
C838   C688    1.519   1_655 S
C839   H861    1.118   .     S
C839   C840    1.512   .     S
C839   H859    1.110   .     S
C839   O876    1.424   .     S
C840   H863    1.106   .     S
C840   H714    1.109   1_655 S
C840   H716    1.101   1_655 S
C841   C845    1.396   .     A
C842   C843    1.393   .     A
C842   C165    1.403   1_556 S
C842   C175    1.415   1_556 S
C843   C844    1.393   .     A
C843   O876    1.384   .     S
C844   H852    1.076   .     S
C845   H872    1.078   .     S
C846   H849    1.083   .     S
Cu847  O883    1.975   .     S
Cu847  N873    2.024   .     S
Cu847  O875    1.967   .     S
Cu847  Cu848   2.693   .     S
Cu847  O885    1.966   .     S
Cu847  O881    1.974   .     S
Cu848  O880    1.975   .     S
Cu848  N874    2.024   .     S
Cu848  O886    1.974   .     S
Cu848  O882    1.966   .     S
Cu848  O884    1.967   .     S
H855   C1058   1.116   .     S
H865   O879    0.991   .     S
H871   C165    1.084   1_556 S
O877   S740    1.503   1_655 S
O878   S74     1.501   1_656 S
O879   S888    1.681   .     S
C889   O954    1.296   .     A
C889   C897    1.449   .     S
C889   O949    1.295   .     A
C890   C892    1.487   .     S
C890   C911    1.423   .     A
C890   C907    1.404   .     A
C891   C897    1.397   .     A
C891   H927    1.083   .     S
C891   C1115   1.386   .     S
C892   O955    1.306   .     A
C892   O956    1.302   .     A
C893   H934    1.081   .     S
C893   C894    1.406   .     A
C894   C895    1.412   .     A
C894   C903    1.462   .     S
C895   O961    1.382   .     S
C896   H940    1.084   .     S
C896   C897    1.394   .     A
C896   C1117   1.389   .     S
C898   N948    1.368   .     A
C898   H941    1.081   .     S
C898   C973    1.420   .     S
C899   H942    1.081   .     S
C899   N947    1.370   .     A
C899   C1046   1.420   1_455 S
C900   C911    1.420   .     A
C900   C243    1.412   1_556 S
C900   C249    1.422   1_556 S
C901   N947    1.368   .     A
C901   H943    1.081   .     S
C901   C1050   1.421   1_455 S
C902   H944    1.081   .     S
C902   N948    1.369   .     A
C902   C975    1.421   .     S
C903   O957    1.298   .     A
C903   O958    1.299   .     A
C904   O960    1.301   .     A
C904   C906    1.461   .     S
C904   O959    1.296   .     A
C905   C920    1.392   .     A
C906   C920    1.399   .     A
C906   C919    1.399   .     A
C907   C908    1.392   .     A
C907   H924    1.072   .     S
C908   C243    1.390   1_556 S
C908   S296    1.765   1_556 S
C909   H925    1.078   .     S
C910   H928    1.106   .     S
C910   O961    1.417   .     S
C910   C1060   1.519   1_455 S
C911   C918    1.407   .     A
C912   H930    1.111   .     S
C912   H932    1.107   .     S
C912   H931    1.111   .     S
C912   C984    1.519   .     S
C913   H935    1.118   .     S
C913   C914    1.512   .     S
C913   H933    1.110   .     S
C913   O950    1.424   .     S
C914   H937    1.106   .     S
C914   H1010   1.109   .     S
C914   H1012   1.101   .     S
C915   C919    1.396   .     A
C916   C917    1.393   .     A
C916   C239    1.403   1_556 S
C916   C249    1.415   1_556 S
C917   C918    1.393   .     A
C917   O950    1.384   .     S
C918   H926    1.076   .     S
C919   H946    1.078   .     S
C920   H923    1.083   .     S
Cu921  O957    1.975   .     S
Cu921  N947    2.024   .     S
Cu921  O949    1.967   .     S
Cu921  Cu922   2.693   .     S
Cu921  O959    1.966   .     S
Cu921  O955    1.974   .     S
Cu922  O954    1.975   .     S
Cu922  N948    2.024   .     S
Cu922  O960    1.974   .     S
Cu922  O956    1.966   .     S
Cu922  O958    1.967   .     S
H929   C1132   1.116   .     S
H936   C1062   1.109   1_455 S
H938   C1062   1.101   1_455 S
H939   O953    0.991   .     S
H945   C239    1.084   1_556 S
O951   S1036   1.503   .     S
O952   S370    1.501   1_556 S
O953   S962    1.681   .     S
S962   O1099   1.503   1_455 S
S962   O434    1.501   1_455 S
C963   O1028   1.296   .     A
C963   C971    1.449   .     S
C963   O1023   1.295   .     A
C964   C966    1.487   .     S
C964   C985    1.423   .     A
C964   C981    1.404   .     A
C965   C971    1.397   .     A
C965   H1001   1.083   .     S
C965   C1189   1.386   .     S
C966   O1029   1.306   .     A
C966   O1030   1.302   .     A
C967   H1008   1.081   .     S
C967   C968    1.406   .     A
C968   C969    1.412   .     A
C968   C977    1.462   .     S
C969   O1035   1.382   .     S
C970   H1014   1.084   .     S
C970   C971    1.394   .     A
C970   C1191   1.389   .     S
C972   N1022   1.368   .     A
C972   H1015   1.081   .     S
C972   C1047   1.420   .     S
C973   H1016   1.081   .     S
C973   N1021   1.370   .     A
C974   C985    1.420   .     A
C974   C317    1.412   1_556 S
C974   C323    1.422   1_556 S
C975   N1021   1.368   .     A
C975   H1017   1.081   .     S
C976   H1018   1.081   .     S
C976   N1022   1.369   .     A
C976   C1049   1.421   .     S
C977   O1031   1.298   .     A
C977   O1032   1.299   .     A
C978   O1034   1.301   .     A
C978   C980    1.461   .     S
C978   O1033   1.296   .     A
C979   C994    1.392   .     A
C980   C994    1.399   .     A
C980   C993    1.399   .     A
C981   C982    1.392   .     A
C981   H998    1.072   .     S
C982   C317    1.390   1_556 S
C982   S370    1.765   1_556 S
C983   H999    1.078   .     S
C984   H1002   1.106   .     S
C984   O1035   1.417   .     S
C985   C992    1.407   .     A
C986   H1004   1.111   .     S
C986   H1006   1.107   .     S
C986   H1005   1.111   .     S
C986   C1058   1.519   .     S
C987   H1009   1.118   .     S
C987   C988    1.512   .     S
C987   H1007   1.110   .     S
C987   O1024   1.424   .     S
C988   H1011   1.106   .     S
C988   H1084   1.109   .     S
C988   H1086   1.101   .     S
C989   C993    1.396   .     A
C990   C991    1.393   .     A
C990   C313    1.403   1_556 S
C990   C323    1.415   1_556 S
C991   C992    1.393   .     A
C991   O1024   1.384   .     S
C992   H1000   1.076   .     S
C993   H1020   1.078   .     S
C994   H997    1.083   .     S
Cu995  O1031   1.975   .     S
Cu995  N1021   2.024   .     S
Cu995  O1023   1.967   .     S
Cu995  Cu996   2.693   .     S
Cu995  O1033   1.966   .     S
Cu995  O1029   1.974   .     S
Cu996  O1028   1.975   .     S
Cu996  N1022   2.024   .     S
Cu996  O1034   1.974   .     S
Cu996  O1030   1.966   .     S
Cu996  O1032   1.967   .     S
H1003  C1206   1.116   .     S
H1013  O1027   0.991   .     S
H1019  C313    1.084   1_556 S
O1025  S1110   1.503   .     S
O1026  S444    1.501   1_556 S
O1027  S1036   1.681   .     S
C1037  O1102   1.296   .     A
C1037  C1045   1.449   .     S
C1037  O1097   1.295   .     A
C1038  C1040   1.487   .     S
C1038  C1059   1.423   .     A
C1038  C1055   1.404   .     A
C1039  C1045   1.397   .     A
C1039  H1075   1.083   .     S
C1039  C1263   1.386   .     S
C1040  O1103   1.306   .     A
C1040  O1104   1.302   .     A
C1041  H1082   1.081   .     S
C1041  C1042   1.406   .     A
C1042  C1043   1.412   .     A
C1042  C1051   1.462   .     S
C1043  O1109   1.382   .     S
C1044  H1088   1.084   .     S
C1044  C1045   1.394   .     A
C1044  C1265   1.389   .     S
C1046  N1096   1.368   .     A
C1046  H1089   1.081   .     S
C1046  C899    1.420   1_655 S
C1047  H1090   1.081   .     S
C1047  N1095   1.370   .     A
C1048  C1059   1.420   .     A
C1048  C391    1.412   1_556 S
C1048  C397    1.422   1_556 S
C1049  N1095   1.368   .     A
C1049  H1091   1.081   .     S
C1050  H1092   1.081   .     S
C1050  N1096   1.369   .     A
C1050  C901    1.421   1_655 S
C1051  O1105   1.298   .     A
C1051  O1106   1.299   .     A
C1052  O1108   1.301   .     A
C1052  C1054   1.461   .     S
C1052  O1107   1.296   .     A
C1053  C1068   1.392   .     A
C1054  C1068   1.399   .     A
C1054  C1067   1.399   .     A
C1055  C1056   1.392   .     A
C1055  H1072   1.072   .     S
C1056  C391    1.390   1_556 S
C1056  S444    1.765   1_556 S
C1057  H1073   1.078   .     S
C1058  H1076   1.106   .     S
C1058  O1109   1.417   .     S
C1059  C1066   1.407   .     A
C1060  H1078   1.111   .     S
C1060  H1080   1.107   .     S
C1060  H1079   1.111   .     S
C1060  C910    1.519   1_655 S
C1061  H1083   1.118   .     S
C1061  C1062   1.512   .     S
C1061  H1081   1.110   .     S
C1061  O1098   1.424   .     S
C1062  H1085   1.106   .     S
C1062  H936    1.109   1_655 S
C1062  H938    1.101   1_655 S
C1063  C1067   1.396   .     A
C1064  C1065   1.393   .     A
C1064  C387    1.403   1_556 S
C1064  C397    1.415   1_556 S
C1065  C1066   1.393   .     A
C1065  O1098   1.384   .     S
C1066  H1074   1.076   .     S
C1067  H1094   1.078   .     S
C1068  H1071   1.083   .     S
Cu1069 O1105   1.975   .     S
Cu1069 N1095   2.024   .     S
Cu1069 O1097   1.967   .     S
Cu1069 Cu1070  2.693   .     S
Cu1069 O1107   1.966   .     S
Cu1069 O1103   1.974   .     S
Cu1070 O1102   1.975   .     S
Cu1070 N1096   2.024   .     S
Cu1070 O1108   1.974   .     S
Cu1070 O1104   1.966   .     S
Cu1070 O1106   1.967   .     S
H1077  C1280   1.116   .     S
H1087  O1101   0.991   .     S
H1093  C387    1.084   1_556 S
O1099  S962    1.503   1_655 S
O1100  S296    1.501   1_656 S
O1101  S1110   1.681   .     S
C1111  O1176   1.296   .     A
C1111  C1119   1.449   .     S
C1111  O1171   1.295   .     A
C1112  C1114   1.487   .     S
C1112  C1133   1.423   .     A
C1112  C1129   1.404   .     A
C1113  C1119   1.397   .     A
C1113  H1149   1.083   .     S
C1113  C671    1.386   1_565 S
C1114  O1177   1.306   .     A
C1114  O1178   1.302   .     A
C1115  H1156   1.081   .     S
C1115  C1116   1.406   .     A
C1116  C1117   1.412   .     A
C1116  C1125   1.462   .     S
C1117  O1183   1.382   .     S
C1118  H1162   1.084   .     S
C1118  C1119   1.394   .     A
C1118  C673    1.389   1_565 S
C1120  N1170   1.368   .     A
C1120  H1163   1.081   .     S
C1120  C1195   1.420   .     S
C1121  H1164   1.081   .     S
C1121  N1169   1.370   .     A
C1121  C1268   1.420   1_455 S
C1122  C1133   1.420   .     A
C1122  C465    1.412   1_556 S
C1122  C471    1.422   1_556 S
C1123  N1169   1.368   .     A
C1123  H1165   1.081   .     S
C1123  C1272   1.421   1_455 S
C1124  H1166   1.081   .     S
C1124  N1170   1.369   .     A
C1124  C1197   1.421   .     S
C1125  O1179   1.298   .     A
C1125  O1180   1.299   .     A
C1126  O1182   1.301   .     A
C1126  C1128   1.461   .     S
C1126  O1181   1.296   .     A
C1127  C1142   1.392   .     A
C1128  C1142   1.399   .     A
C1128  C1141   1.399   .     A
C1129  C1130   1.392   .     A
C1129  H1146   1.072   .     S
C1130  C465    1.390   1_556 S
C1130  S518    1.765   1_556 S
C1131  H1147   1.078   .     S
C1132  H1150   1.106   .     S
C1132  O1183   1.417   .     S
C1132  C1282   1.519   1_455 S
C1133  C1140   1.407   .     A
C1134  H1152   1.111   .     S
C1134  H1154   1.107   .     S
C1134  H1153   1.111   .     S
C1134  C1206   1.519   .     S
C1135  H1157   1.118   .     S
C1135  C1136   1.512   .     S
C1135  H1155   1.110   .     S
C1135  O1172   1.424   .     S
C1136  H1159   1.106   .     S
C1136  H1232   1.109   .     S
C1136  H1234   1.101   .     S
C1137  C1141   1.396   .     A
C1138  C1139   1.393   .     A
C1138  C461    1.403   1_556 S
C1138  C471    1.415   1_556 S
C1139  C1140   1.393   .     A
C1139  O1172   1.384   .     S
C1140  H1148   1.076   .     S
C1141  H1168   1.078   .     S
C1142  H1145   1.083   .     S
Cu1143 O1179   1.975   .     S
Cu1143 N1169   2.024   .     S
Cu1143 O1171   1.967   .     S
Cu1143 Cu1144  2.693   .     S
Cu1143 O1181   1.966   .     S
Cu1143 O1177   1.974   .     S
Cu1144 O1176   1.975   .     S
Cu1144 N1170   2.024   .     S
Cu1144 O1182   1.974   .     S
Cu1144 O1178   1.966   .     S
Cu1144 O1180   1.967   .     S
H1151  C688    1.116   1_565 S
H1158  C1284   1.109   1_455 S
H1160  C1284   1.101   1_455 S
H1161  O1175   0.991   .     S
H1167  C461    1.084   1_556 S
O1173  S1258   1.503   .     S
O1174  S592    1.501   1_556 S
O1175  S1184   1.681   .     S
S1184  O1321   1.503   1_455 S
S1184  O656    1.501   1_455 S
C1185  O1250   1.296   .     A
C1185  C1193   1.449   .     S
C1185  O1245   1.295   .     A
C1186  C1188   1.487   .     S
C1186  C1207   1.423   .     A
C1186  C1203   1.404   .     A
C1187  C1193   1.397   .     A
C1187  H1223   1.083   .     S
C1187  C745    1.386   1_565 S
C1188  O1251   1.306   .     A
C1188  O1252   1.302   .     A
C1189  H1230   1.081   .     S
C1189  C1190   1.406   .     A
C1190  C1191   1.412   .     A
C1190  C1199   1.462   .     S
C1191  O1257   1.382   .     S
C1192  H1236   1.084   .     S
C1192  C1193   1.394   .     A
C1192  C747    1.389   1_565 S
C1194  N1244   1.368   .     A
C1194  H1237   1.081   .     S
C1194  C1269   1.420   .     S
C1195  H1238   1.081   .     S
C1195  N1243   1.370   .     A
C1196  C1207   1.420   .     A
C1196  C539    1.412   1_556 S
C1196  C545    1.422   1_556 S
C1197  N1243   1.368   .     A
C1197  H1239   1.081   .     S
C1198  H1240   1.081   .     S
C1198  N1244   1.369   .     A
C1198  C1271   1.421   .     S
C1199  O1253   1.298   .     A
C1199  O1254   1.299   .     A
C1200  O1256   1.301   .     A
C1200  C1202   1.461   .     S
C1200  O1255   1.296   .     A
C1201  C1216   1.392   .     A
C1202  C1216   1.399   .     A
C1202  C1215   1.399   .     A
C1203  C1204   1.392   .     A
C1203  H1220   1.072   .     S
C1204  C539    1.390   1_556 S
C1204  S592    1.765   1_556 S
C1205  H1221   1.078   .     S
C1206  H1224   1.106   .     S
C1206  O1257   1.417   .     S
C1207  C1214   1.407   .     A
C1208  H1226   1.111   .     S
C1208  H1228   1.107   .     S
C1208  H1227   1.111   .     S
C1208  C1280   1.519   .     S
C1209  H1231   1.118   .     S
C1209  C1210   1.512   .     S
C1209  H1229   1.110   .     S
C1209  O1246   1.424   .     S
C1210  H1233   1.106   .     S
C1210  H1306   1.109   .     S
C1210  H1308   1.101   .     S
C1211  C1215   1.396   .     A
C1212  C1213   1.393   .     A
C1212  C535    1.403   1_556 S
C1212  C545    1.415   1_556 S
C1213  C1214   1.393   .     A
C1213  O1246   1.384   .     S
C1214  H1222   1.076   .     S
C1215  H1242   1.078   .     S
C1216  H1219   1.083   .     S
Cu1217 O1253   1.975   .     S
Cu1217 N1243   2.024   .     S
Cu1217 O1245   1.967   .     S
Cu1217 Cu1218  2.693   .     S
Cu1217 O1255   1.966   .     S
Cu1217 O1251   1.974   .     S
Cu1218 O1250   1.975   .     S
Cu1218 N1244   2.024   .     S
Cu1218 O1256   1.974   .     S
Cu1218 O1252   1.966   .     S
Cu1218 O1254   1.967   .     S
H1225  C762    1.116   1_565 S
H1235  O1249   0.991   .     S
H1241  C535    1.084   1_556 S
O1247  S1332   1.503   .     S
O1248  S666    1.501   1_556 S
O1249  S1258   1.681   .     S
C1259  O1324   1.296   .     A
C1259  C1267   1.449   .     S
C1259  O1319   1.295   .     A
C1260  C1262   1.487   .     S
C1260  C1281   1.423   .     A
C1260  C1277   1.404   .     A
C1261  C1267   1.397   .     A
C1261  H1297   1.083   .     S
C1261  C819    1.386   1_565 S
C1262  O1325   1.306   .     A
C1262  O1326   1.302   .     A
C1263  H1304   1.081   .     S
C1263  C1264   1.406   .     A
C1264  C1265   1.412   .     A
C1264  C1273   1.462   .     S
C1265  O1331   1.382   .     S
C1266  H1310   1.084   .     S
C1266  C1267   1.394   .     A
C1266  C821    1.389   1_565 S
C1268  N1318   1.368   .     A
C1268  H1311   1.081   .     S
C1268  C1121   1.420   1_655 S
C1269  H1312   1.081   .     S
C1269  N1317   1.370   .     A
C1270  C1281   1.420   .     A
C1270  C613    1.412   1_556 S
C1270  C619    1.422   1_556 S
C1271  N1317   1.368   .     A
C1271  H1313   1.081   .     S
C1272  H1314   1.081   .     S
C1272  N1318   1.369   .     A
C1272  C1123   1.421   1_655 S
C1273  O1327   1.298   .     A
C1273  O1328   1.299   .     A
C1274  O1330   1.301   .     A
C1274  C1276   1.461   .     S
C1274  O1329   1.296   .     A
C1275  C1290   1.392   .     A
C1276  C1290   1.399   .     A
C1276  C1289   1.399   .     A
C1277  C1278   1.392   .     A
C1277  H1294   1.072   .     S
C1278  C613    1.390   1_556 S
C1278  S666    1.765   1_556 S
C1279  H1295   1.078   .     S
C1280  H1298   1.106   .     S
C1280  O1331   1.417   .     S
C1281  C1288   1.407   .     A
C1282  H1300   1.111   .     S
C1282  H1302   1.107   .     S
C1282  H1301   1.111   .     S
C1282  C1132   1.519   1_655 S
C1283  H1305   1.118   .     S
C1283  C1284   1.512   .     S
C1283  H1303   1.110   .     S
C1283  O1320   1.424   .     S
C1284  H1307   1.106   .     S
C1284  H1158   1.109   1_655 S
C1284  H1160   1.101   1_655 S
C1285  C1289   1.396   .     A
C1286  C1287   1.393   .     A
C1286  C609    1.403   1_556 S
C1286  C619    1.415   1_556 S
C1287  C1288   1.393   .     A
C1287  O1320   1.384   .     S
C1288  H1296   1.076   .     S
C1289  H1316   1.078   .     S
C1290  H1293   1.083   .     S
Cu1291 O1327   1.975   .     S
Cu1291 N1317   2.024   .     S
Cu1291 O1319   1.967   .     S
Cu1291 Cu1292  2.693   .     S
Cu1291 O1329   1.966   .     S
Cu1291 O1325   1.974   .     S
Cu1292 O1324   1.975   .     S
Cu1292 N1318   2.024   .     S
Cu1292 O1330   1.974   .     S
Cu1292 O1326   1.966   .     S
Cu1292 O1328   1.967   .     S
H1299  C836    1.116   1_565 S
H1309  O1323   0.991   .     S
H1315  C609    1.084   1_556 S
O1321  S1184   1.503   1_655 S
O1322  S518    1.501   1_656 S
O1323  S1332   1.681   .     S
