data_str_m2_o10_o18_pcu_sym.135
_audit_creation_date              2020-01-03
_audit_creation_method            'Materials Studio'
_symmetry_space_group_name_H-M    'P1'
_symmetry_Int_Tables_number       1
_symmetry_cell_setting            triclinic
loop_
_symmetry_equiv_pos_as_xyz
  x,y,z
_cell_length_a                    22.5248
_cell_length_b                    26.2503
_cell_length_c                    31.5589
_cell_angle_alpha                 92.6228
_cell_angle_beta                  74.1904
_cell_angle_gamma                 102.9402
loop_
_atom_site_label
_atom_site_type_symbol
_atom_site_fract_x
_atom_site_fract_y
_atom_site_fract_z
_atom_site_U_iso_or_equiv
_atom_site_adp_type
_atom_site_occupancy
C1     C     0.18293   0.26686   0.24842   0.00000  Uiso   1.00
C2     C     0.15290   0.06686   0.24655   0.00000  Uiso   1.00
C3     C     0.10192   0.10514   0.03634   0.00000  Uiso   1.00
C4     C     0.23857   0.18849   0.45695   0.00000  Uiso   1.00
C5     C     0.05816   0.09240   0.01178   0.00000  Uiso   1.00
C6     C     0.28297   0.19856   0.48079   0.00000  Uiso   1.00
C7     C     0.19574   0.32308   0.23939   0.00000  Uiso   1.00
C8     C     0.14880   0.01170   0.23703   0.00000  Uiso   1.00
C9     C     0.12701   0.15990   0.33322   0.00000  Uiso   1.00
C10    C     0.20594   0.16821   0.16629   0.00000  Uiso   1.00
C11    C     0.10141   0.14771   0.38120   0.00000  Uiso   1.00
C12    C     0.23112   0.16720   0.11695   0.00000  Uiso   1.00
C13    C     0.02772   0.09818   0.44474   0.00000  Uiso   1.00
C14    C     0.31152   0.19514   0.04816   0.00000  Uiso   1.00
C15    C     0.04213   0.11369   0.40049   0.00000  Uiso   1.00
C16    C     0.29586   0.18457   0.09330   0.00000  Uiso   1.00
C17    C     0.14286   0.16573   0.40742   0.00000  Uiso   1.00
C18    C     0.18726   0.14974   0.09206   0.00000  Uiso   1.00
C19    C     0.13097   0.14672   0.45066   0.00000  Uiso   1.00
C20    C     0.20412   0.15650   0.04570   0.00000  Uiso   1.00
C21    C     0.07191   0.11294   0.46930   0.00000  Uiso   1.00
C22    C     0.26612   0.18356   0.02490   0.00000  Uiso   1.00
C23    C     0.17661   0.15919   0.47542   0.00000  Uiso   1.00
C24    C     0.16052   0.14019   0.01971   0.00000  Uiso   1.00
Cu25   Cu    0.10737   0.16108   0.24517   0.00000  Uiso   1.00
Cu26   Cu    0.22596   0.17225   0.25484   0.00000  Uiso   1.00
H27    H     0.01346   0.06558   0.02597   0.00000  Uiso   1.00
H28    H     0.33063   0.21959   0.46478   0.00000  Uiso   1.00
H29    H     0.13930   0.13283   0.10970   0.00000  Uiso   1.00
H30    H     0.18538   0.19391   0.39246   0.00000  Uiso   1.00
H31    H     0.31605   0.07232   0.45981   0.00000  Uiso   1.00
H32    H     0.02669   0.21187   0.03043   0.00000  Uiso   1.00
H33    H     0.08947   0.08598   0.06806   0.00000  Uiso   1.00
H34    H     0.25536   0.20324   0.42366   0.00000  Uiso   1.00
H35    H     0.00001   0.20270   0.28531   0.00000  Uiso   1.00
H36    H     0.00049   0.13195   0.21411   0.00000  Uiso   1.00
N37    N     0.31506   0.18068   0.26212   0.00000  Uiso   1.00
N38    N     0.01827   0.15265   0.23788   0.00000  Uiso   1.00
O39    O     0.12815   0.23809   0.24686   0.00000  Uiso   1.00
O40    O     0.20518   0.09524   0.25314   0.00000  Uiso   1.00
O41    O     0.22829   0.24753   0.25503   0.00000  Uiso   1.00
O42    O     0.10504   0.08580   0.24498   0.00000  Uiso   1.00
O43    O     0.08851   0.15930   0.30855   0.00000  Uiso   1.00
O44    O     0.24482   0.17403   0.19146   0.00000  Uiso   1.00
O45    O     0.18866   0.16874   0.31671   0.00000  Uiso   1.00
O46    O     0.14468   0.16460   0.18329   0.00000  Uiso   1.00
S47    S     0.02703   0.18797   0.11546   0.00000  Uiso   1.00
O48    O     0.02525   0.13500   0.13205   0.00000  Uiso   1.00
O49    O     0.08848   0.20645   0.08111   0.00000  Uiso   1.00
O50    O     0.02477   0.22990   0.15636   0.00000  Uiso   1.00
H51    H     0.04541   0.26350   0.14040   0.00000  Uiso   1.00
S52    S     0.31978   0.08598   0.37062   0.00000  Uiso   1.00
O53    O     0.01779   0.05700   0.33189   0.00000  Uiso   1.00
O54    O     0.26469   0.04830   0.39936   0.00000  Uiso   1.00
O55    O     0.29198   0.13269   0.35248   0.00000  Uiso   1.00
H56    H     0.31332   0.16606   0.36293   0.00000  Uiso   1.00
S57    S     0.27070   0.01733   0.20475   0.00000  Uiso   1.00
O58    O     0.26754   0.06104   0.17696   0.00000  Uiso   1.00
O59    O     0.31493   0.03725   0.23268   0.00000  Uiso   1.00
O60    O     0.29584   0.30477   0.17074   0.00000  Uiso   1.00
H61    H     0.26776   0.29770   0.15087   0.00000  Uiso   1.00
S62    S     0.10490   0.31893   0.19946   0.00000  Uiso   1.00
O63    O     0.09615   0.02820   0.17301   0.00000  Uiso   1.00
O64    O     0.13962   0.28359   0.16826   0.00000  Uiso   1.00
O65    O     0.03424   0.28464   0.22844   0.00000  Uiso   1.00
H66    H     0.02813   0.29804   0.25882   0.00000  Uiso   1.00
C67    C     0.51627   0.26686   0.24842   0.00000  Uiso   1.00
C68    C     0.48624   0.06686   0.24655   0.00000  Uiso   1.00
C69    C     0.43525   0.10514   0.03634   0.00000  Uiso   1.00
C70    C     0.57190   0.18849   0.45695   0.00000  Uiso   1.00
C71    C     0.39149   0.09240   0.01178   0.00000  Uiso   1.00
C72    C     0.61630   0.19856   0.48079   0.00000  Uiso   1.00
C73    C     0.52908   0.32308   0.23939   0.00000  Uiso   1.00
C74    C     0.48213   0.01170   0.23703   0.00000  Uiso   1.00
C75    C     0.46034   0.15990   0.33322   0.00000  Uiso   1.00
C76    C     0.53927   0.16821   0.16629   0.00000  Uiso   1.00
C77    C     0.43474   0.14771   0.38120   0.00000  Uiso   1.00
C78    C     0.56445   0.16720   0.11695   0.00000  Uiso   1.00
C79    C     0.36106   0.09818   0.44474   0.00000  Uiso   1.00
C80    C     0.64485   0.19514   0.04816   0.00000  Uiso   1.00
C81    C     0.37546   0.11369   0.40049   0.00000  Uiso   1.00
C82    C     0.62919   0.18457   0.09330   0.00000  Uiso   1.00
C83    C     0.47619   0.16573   0.40742   0.00000  Uiso   1.00
C84    C     0.52059   0.14974   0.09206   0.00000  Uiso   1.00
C85    C     0.46430   0.14672   0.45066   0.00000  Uiso   1.00
C86    C     0.53745   0.15650   0.04570   0.00000  Uiso   1.00
C87    C     0.40524   0.11294   0.46930   0.00000  Uiso   1.00
C88    C     0.59945   0.18356   0.02490   0.00000  Uiso   1.00
C89    C     0.50994   0.15919   0.47542   0.00000  Uiso   1.00
C90    C     0.49385   0.14019   0.01971   0.00000  Uiso   1.00
Cu91   Cu    0.44071   0.16108   0.24517   0.00000  Uiso   1.00
Cu92   Cu    0.55929   0.17225   0.25484   0.00000  Uiso   1.00
H93    H     0.34680   0.06558   0.02597   0.00000  Uiso   1.00
H94    H     0.66396   0.21959   0.46478   0.00000  Uiso   1.00
H95    H     0.47263   0.13283   0.10970   0.00000  Uiso   1.00
H96    H     0.51871   0.19391   0.39246   0.00000  Uiso   1.00
H97    H     0.64938   0.07232   0.45981   0.00000  Uiso   1.00
H98    H     0.36002   0.21187   0.03043   0.00000  Uiso   1.00
H99    H     0.42281   0.08598   0.06806   0.00000  Uiso   1.00
H100   H     0.58870   0.20324   0.42366   0.00000  Uiso   1.00
H101   H     0.33334   0.20270   0.28531   0.00000  Uiso   1.00
H102   H     0.33382   0.13195   0.21411   0.00000  Uiso   1.00
N103   N     0.64839   0.18068   0.26212   0.00000  Uiso   1.00
N104   N     0.35161   0.15265   0.23788   0.00000  Uiso   1.00
O105   O     0.46148   0.23809   0.24686   0.00000  Uiso   1.00
O106   O     0.53852   0.09524   0.25314   0.00000  Uiso   1.00
O107   O     0.56163   0.24753   0.25503   0.00000  Uiso   1.00
O108   O     0.43837   0.08580   0.24498   0.00000  Uiso   1.00
O109   O     0.42185   0.15930   0.30855   0.00000  Uiso   1.00
O110   O     0.57815   0.17403   0.19146   0.00000  Uiso   1.00
O111   O     0.52199   0.16874   0.31671   0.00000  Uiso   1.00
O112   O     0.47801   0.16460   0.18329   0.00000  Uiso   1.00
S113   S     0.36036   0.18797   0.11546   0.00000  Uiso   1.00
O114   O     0.35859   0.13500   0.13205   0.00000  Uiso   1.00
O115   O     0.42182   0.20645   0.08111   0.00000  Uiso   1.00
O116   O     0.35810   0.22990   0.15636   0.00000  Uiso   1.00
H117   H     0.37874   0.26350   0.14040   0.00000  Uiso   1.00
S118   S     0.65312   0.08598   0.37062   0.00000  Uiso   1.00
O119   O     0.35112   0.05700   0.33189   0.00000  Uiso   1.00
O120   O     0.59802   0.04830   0.39936   0.00000  Uiso   1.00
O121   O     0.62532   0.13269   0.35248   0.00000  Uiso   1.00
H122   H     0.64665   0.16606   0.36293   0.00000  Uiso   1.00
S123   S     0.60403   0.01733   0.20475   0.00000  Uiso   1.00
O124   O     0.60087   0.06104   0.17696   0.00000  Uiso   1.00
O125   O     0.64826   0.03725   0.23268   0.00000  Uiso   1.00
O126   O     0.62917   0.30477   0.17074   0.00000  Uiso   1.00
H127   H     0.60109   0.29770   0.15087   0.00000  Uiso   1.00
S128   S     0.43823   0.31893   0.19946   0.00000  Uiso   1.00
O129   O     0.42949   0.02820   0.17301   0.00000  Uiso   1.00
O130   O     0.47295   0.28359   0.16826   0.00000  Uiso   1.00
O131   O     0.36757   0.28464   0.22844   0.00000  Uiso   1.00
H132   H     0.36146   0.29804   0.25882   0.00000  Uiso   1.00
C133   C     0.84960   0.26686   0.24842   0.00000  Uiso   1.00
C134   C     0.81957   0.06686   0.24655   0.00000  Uiso   1.00
C135   C     0.76859   0.10514   0.03634   0.00000  Uiso   1.00
C136   C     0.90523   0.18849   0.45695   0.00000  Uiso   1.00
C137   C     0.72482   0.09240   0.01178   0.00000  Uiso   1.00
C138   C     0.94964   0.19856   0.48079   0.00000  Uiso   1.00
C139   C     0.86241   0.32308   0.23939   0.00000  Uiso   1.00
C140   C     0.81547   0.01170   0.23703   0.00000  Uiso   1.00
C141   C     0.79368   0.15990   0.33322   0.00000  Uiso   1.00
C142   C     0.87261   0.16821   0.16629   0.00000  Uiso   1.00
C143   C     0.76807   0.14771   0.38120   0.00000  Uiso   1.00
C144   C     0.89779   0.16720   0.11695   0.00000  Uiso   1.00
C145   C     0.69439   0.09818   0.44474   0.00000  Uiso   1.00
C146   C     0.97819   0.19514   0.04816   0.00000  Uiso   1.00
C147   C     0.70879   0.11369   0.40049   0.00000  Uiso   1.00
C148   C     0.96253   0.18457   0.09330   0.00000  Uiso   1.00
C149   C     0.80952   0.16573   0.40742   0.00000  Uiso   1.00
C150   C     0.85392   0.14974   0.09206   0.00000  Uiso   1.00
C151   C     0.79763   0.14672   0.45066   0.00000  Uiso   1.00
C152   C     0.87079   0.15650   0.04570   0.00000  Uiso   1.00
C153   C     0.73857   0.11294   0.46930   0.00000  Uiso   1.00
C154   C     0.93279   0.18356   0.02490   0.00000  Uiso   1.00
C155   C     0.84327   0.15919   0.47542   0.00000  Uiso   1.00
C156   C     0.82719   0.14019   0.01971   0.00000  Uiso   1.00
Cu157  Cu    0.77404   0.16108   0.24517   0.00000  Uiso   1.00
Cu158  Cu    0.89263   0.17225   0.25484   0.00000  Uiso   1.00
H159   H     0.68013   0.06558   0.02597   0.00000  Uiso   1.00
H160   H     0.99729   0.21959   0.46478   0.00000  Uiso   1.00
H161   H     0.80597   0.13283   0.10970   0.00000  Uiso   1.00
H162   H     0.85205   0.19391   0.39246   0.00000  Uiso   1.00
H163   H     0.98271   0.07232   0.45981   0.00000  Uiso   1.00
H164   H     0.69336   0.21187   0.03043   0.00000  Uiso   1.00
H165   H     0.75614   0.08598   0.06806   0.00000  Uiso   1.00
H166   H     0.92203   0.20324   0.42366   0.00000  Uiso   1.00
H167   H     0.66667   0.20270   0.28531   0.00000  Uiso   1.00
H168   H     0.66716   0.13195   0.21411   0.00000  Uiso   1.00
N169   N     0.98173   0.18068   0.26212   0.00000  Uiso   1.00
N170   N     0.68494   0.15265   0.23788   0.00000  Uiso   1.00
O171   O     0.79482   0.23809   0.24686   0.00000  Uiso   1.00
O172   O     0.87185   0.09524   0.25314   0.00000  Uiso   1.00
O173   O     0.89496   0.24753   0.25503   0.00000  Uiso   1.00
O174   O     0.77171   0.08580   0.24498   0.00000  Uiso   1.00
O175   O     0.75518   0.15930   0.30855   0.00000  Uiso   1.00
O176   O     0.91149   0.17403   0.19146   0.00000  Uiso   1.00
O177   O     0.85532   0.16874   0.31671   0.00000  Uiso   1.00
O178   O     0.81134   0.16460   0.18329   0.00000  Uiso   1.00
S179   S     0.69369   0.18797   0.11546   0.00000  Uiso   1.00
O180   O     0.69192   0.13500   0.13205   0.00000  Uiso   1.00
O181   O     0.75515   0.20645   0.08111   0.00000  Uiso   1.00
O182   O     0.69143   0.22990   0.15636   0.00000  Uiso   1.00
H183   H     0.71207   0.26350   0.14040   0.00000  Uiso   1.00
S184   S     0.98645   0.08598   0.37062   0.00000  Uiso   1.00
O185   O     0.68445   0.05700   0.33189   0.00000  Uiso   1.00
O186   O     0.93136   0.04830   0.39936   0.00000  Uiso   1.00
O187   O     0.95865   0.13269   0.35248   0.00000  Uiso   1.00
H188   H     0.97998   0.16606   0.36293   0.00000  Uiso   1.00
S189   S     0.93737   0.01733   0.20475   0.00000  Uiso   1.00
O190   O     0.93420   0.06104   0.17696   0.00000  Uiso   1.00
O191   O     0.98159   0.03725   0.23268   0.00000  Uiso   1.00
O192   O     0.96250   0.30477   0.17074   0.00000  Uiso   1.00
H193   H     0.93443   0.29770   0.15087   0.00000  Uiso   1.00
S194   S     0.77157   0.31893   0.19946   0.00000  Uiso   1.00
O195   O     0.76282   0.02820   0.17301   0.00000  Uiso   1.00
O196   O     0.80629   0.28359   0.16826   0.00000  Uiso   1.00
O197   O     0.70090   0.28464   0.22844   0.00000  Uiso   1.00
H198   H     0.69479   0.29804   0.25882   0.00000  Uiso   1.00
C199   C     0.18293   0.60019   0.24842   0.00000  Uiso   1.00
C200   C     0.15290   0.40019   0.24655   0.00000  Uiso   1.00
C201   C     0.10192   0.43847   0.03634   0.00000  Uiso   1.00
C202   C     0.23857   0.52183   0.45695   0.00000  Uiso   1.00
C203   C     0.05816   0.42573   0.01178   0.00000  Uiso   1.00
C204   C     0.28297   0.53190   0.48079   0.00000  Uiso   1.00
C205   C     0.19574   0.65641   0.23939   0.00000  Uiso   1.00
C206   C     0.14880   0.34504   0.23703   0.00000  Uiso   1.00
C207   C     0.12701   0.49323   0.33322   0.00000  Uiso   1.00
C208   C     0.20594   0.50155   0.16629   0.00000  Uiso   1.00
C209   C     0.10141   0.48104   0.38120   0.00000  Uiso   1.00
C210   C     0.23112   0.50054   0.11695   0.00000  Uiso   1.00
C211   C     0.02772   0.43151   0.44474   0.00000  Uiso   1.00
C212   C     0.31152   0.52847   0.04816   0.00000  Uiso   1.00
C213   C     0.04213   0.44702   0.40049   0.00000  Uiso   1.00
C214   C     0.29586   0.51791   0.09330   0.00000  Uiso   1.00
C215   C     0.14286   0.49906   0.40742   0.00000  Uiso   1.00
C216   C     0.18726   0.48307   0.09206   0.00000  Uiso   1.00
C217   C     0.13097   0.48005   0.45066   0.00000  Uiso   1.00
C218   C     0.20412   0.48983   0.04570   0.00000  Uiso   1.00
C219   C     0.07191   0.44627   0.46930   0.00000  Uiso   1.00
C220   C     0.26612   0.51689   0.02490   0.00000  Uiso   1.00
C221   C     0.17661   0.49252   0.47542   0.00000  Uiso   1.00
C222   C     0.16052   0.47353   0.01971   0.00000  Uiso   1.00
Cu223  Cu    0.10737   0.49441   0.24517   0.00000  Uiso   1.00
Cu224  Cu    0.22596   0.50559   0.25484   0.00000  Uiso   1.00
H225   H     0.01346   0.39891   0.02597   0.00000  Uiso   1.00
H226   H     0.33063   0.55293   0.46478   0.00000  Uiso   1.00
H227   H     0.13930   0.46616   0.10970   0.00000  Uiso   1.00
H228   H     0.18538   0.52724   0.39246   0.00000  Uiso   1.00
H229   H     0.31605   0.40565   0.45981   0.00000  Uiso   1.00
H230   H     0.02669   0.54520   0.03043   0.00000  Uiso   1.00
H231   H     0.08947   0.41932   0.06806   0.00000  Uiso   1.00
H232   H     0.25536   0.53658   0.42366   0.00000  Uiso   1.00
H233   H     0.00001   0.53603   0.28531   0.00000  Uiso   1.00
H234   H     0.00049   0.46528   0.21411   0.00000  Uiso   1.00
N235   N     0.31506   0.51401   0.26212   0.00000  Uiso   1.00
N236   N     0.01827   0.48599   0.23788   0.00000  Uiso   1.00
O237   O     0.12815   0.57142   0.24686   0.00000  Uiso   1.00
O238   O     0.20518   0.42858   0.25314   0.00000  Uiso   1.00
O239   O     0.22829   0.58086   0.25503   0.00000  Uiso   1.00
O240   O     0.10504   0.41914   0.24498   0.00000  Uiso   1.00
O241   O     0.08851   0.49263   0.30855   0.00000  Uiso   1.00
O242   O     0.24482   0.50737   0.19146   0.00000  Uiso   1.00
O243   O     0.18866   0.50207   0.31671   0.00000  Uiso   1.00
O244   O     0.14468   0.49793   0.18329   0.00000  Uiso   1.00
S245   S     0.02703   0.52131   0.11546   0.00000  Uiso   1.00
O246   O     0.02525   0.46834   0.13205   0.00000  Uiso   1.00
O247   O     0.08848   0.53978   0.08111   0.00000  Uiso   1.00
O248   O     0.02477   0.56324   0.15636   0.00000  Uiso   1.00
H249   H     0.04541   0.59683   0.14040   0.00000  Uiso   1.00
S250   S     0.31978   0.41931   0.37062   0.00000  Uiso   1.00
O251   O     0.01779   0.39034   0.33189   0.00000  Uiso   1.00
O252   O     0.26469   0.38163   0.39936   0.00000  Uiso   1.00
O253   O     0.29198   0.46602   0.35248   0.00000  Uiso   1.00
H254   H     0.31332   0.49939   0.36293   0.00000  Uiso   1.00
S255   S     0.27070   0.35066   0.20475   0.00000  Uiso   1.00
O256   O     0.26754   0.39438   0.17696   0.00000  Uiso   1.00
O257   O     0.31493   0.37058   0.23268   0.00000  Uiso   1.00
O258   O     0.29584   0.63810   0.17074   0.00000  Uiso   1.00
H259   H     0.26776   0.63104   0.15087   0.00000  Uiso   1.00
S260   S     0.10490   0.65226   0.19946   0.00000  Uiso   1.00
O261   O     0.09615   0.36153   0.17301   0.00000  Uiso   1.00
O262   O     0.13962   0.61692   0.16826   0.00000  Uiso   1.00
O263   O     0.03424   0.61798   0.22844   0.00000  Uiso   1.00
H264   H     0.02813   0.63137   0.25882   0.00000  Uiso   1.00
C265   C     0.51627   0.60019   0.24842   0.00000  Uiso   1.00
C266   C     0.48624   0.40019   0.24655   0.00000  Uiso   1.00
C267   C     0.43525   0.43847   0.03634   0.00000  Uiso   1.00
C268   C     0.57190   0.52183   0.45695   0.00000  Uiso   1.00
C269   C     0.39149   0.42573   0.01178   0.00000  Uiso   1.00
C270   C     0.61630   0.53190   0.48079   0.00000  Uiso   1.00
C271   C     0.52908   0.65641   0.23939   0.00000  Uiso   1.00
C272   C     0.48213   0.34504   0.23703   0.00000  Uiso   1.00
C273   C     0.46034   0.49323   0.33322   0.00000  Uiso   1.00
C274   C     0.53927   0.50155   0.16629   0.00000  Uiso   1.00
C275   C     0.43474   0.48104   0.38120   0.00000  Uiso   1.00
C276   C     0.56445   0.50054   0.11695   0.00000  Uiso   1.00
C277   C     0.36106   0.43151   0.44474   0.00000  Uiso   1.00
C278   C     0.64485   0.52847   0.04816   0.00000  Uiso   1.00
C279   C     0.37546   0.44702   0.40049   0.00000  Uiso   1.00
C280   C     0.62919   0.51791   0.09330   0.00000  Uiso   1.00
C281   C     0.47619   0.49906   0.40742   0.00000  Uiso   1.00
C282   C     0.52059   0.48307   0.09206   0.00000  Uiso   1.00
C283   C     0.46430   0.48005   0.45066   0.00000  Uiso   1.00
C284   C     0.53745   0.48983   0.04570   0.00000  Uiso   1.00
C285   C     0.40524   0.44627   0.46930   0.00000  Uiso   1.00
C286   C     0.59945   0.51689   0.02490   0.00000  Uiso   1.00
C287   C     0.50994   0.49252   0.47542   0.00000  Uiso   1.00
C288   C     0.49385   0.47353   0.01971   0.00000  Uiso   1.00
Cu289  Cu    0.44071   0.49441   0.24517   0.00000  Uiso   1.00
Cu290  Cu    0.55929   0.50559   0.25484   0.00000  Uiso   1.00
H291   H     0.34680   0.39891   0.02597   0.00000  Uiso   1.00
H292   H     0.66396   0.55293   0.46478   0.00000  Uiso   1.00
H293   H     0.47263   0.46616   0.10970   0.00000  Uiso   1.00
H294   H     0.51871   0.52724   0.39246   0.00000  Uiso   1.00
H295   H     0.64938   0.40565   0.45981   0.00000  Uiso   1.00
H296   H     0.36002   0.54520   0.03043   0.00000  Uiso   1.00
H297   H     0.42281   0.41932   0.06806   0.00000  Uiso   1.00
H298   H     0.58870   0.53658   0.42366   0.00000  Uiso   1.00
H299   H     0.33334   0.53603   0.28531   0.00000  Uiso   1.00
H300   H     0.33382   0.46528   0.21411   0.00000  Uiso   1.00
N301   N     0.64839   0.51401   0.26212   0.00000  Uiso   1.00
N302   N     0.35161   0.48599   0.23788   0.00000  Uiso   1.00
O303   O     0.46148   0.57142   0.24686   0.00000  Uiso   1.00
O304   O     0.53852   0.42858   0.25314   0.00000  Uiso   1.00
O305   O     0.56163   0.58086   0.25503   0.00000  Uiso   1.00
O306   O     0.43837   0.41914   0.24498   0.00000  Uiso   1.00
O307   O     0.42185   0.49263   0.30855   0.00000  Uiso   1.00
O308   O     0.57815   0.50737   0.19146   0.00000  Uiso   1.00
O309   O     0.52199   0.50207   0.31671   0.00000  Uiso   1.00
O310   O     0.47801   0.49793   0.18329   0.00000  Uiso   1.00
S311   S     0.36036   0.52131   0.11546   0.00000  Uiso   1.00
O312   O     0.35859   0.46834   0.13205   0.00000  Uiso   1.00
O313   O     0.42182   0.53978   0.08111   0.00000  Uiso   1.00
O314   O     0.35810   0.56324   0.15636   0.00000  Uiso   1.00
H315   H     0.37874   0.59683   0.14040   0.00000  Uiso   1.00
S316   S     0.65312   0.41931   0.37062   0.00000  Uiso   1.00
O317   O     0.35112   0.39034   0.33189   0.00000  Uiso   1.00
O318   O     0.59802   0.38163   0.39936   0.00000  Uiso   1.00
O319   O     0.62532   0.46602   0.35248   0.00000  Uiso   1.00
H320   H     0.64665   0.49939   0.36293   0.00000  Uiso   1.00
S321   S     0.60403   0.35066   0.20475   0.00000  Uiso   1.00
O322   O     0.60087   0.39438   0.17696   0.00000  Uiso   1.00
O323   O     0.64826   0.37058   0.23268   0.00000  Uiso   1.00
O324   O     0.62917   0.63810   0.17074   0.00000  Uiso   1.00
H325   H     0.60109   0.63104   0.15087   0.00000  Uiso   1.00
S326   S     0.43823   0.65226   0.19946   0.00000  Uiso   1.00
O327   O     0.42949   0.36153   0.17301   0.00000  Uiso   1.00
O328   O     0.47295   0.61692   0.16826   0.00000  Uiso   1.00
O329   O     0.36757   0.61798   0.22844   0.00000  Uiso   1.00
H330   H     0.36146   0.63137   0.25882   0.00000  Uiso   1.00
C331   C     0.84960   0.60019   0.24842   0.00000  Uiso   1.00
C332   C     0.81957   0.40019   0.24655   0.00000  Uiso   1.00
C333   C     0.76859   0.43847   0.03634   0.00000  Uiso   1.00
C334   C     0.90523   0.52183   0.45695   0.00000  Uiso   1.00
C335   C     0.72482   0.42573   0.01178   0.00000  Uiso   1.00
C336   C     0.94964   0.53190   0.48079   0.00000  Uiso   1.00
C337   C     0.86241   0.65641   0.23939   0.00000  Uiso   1.00
C338   C     0.81547   0.34504   0.23703   0.00000  Uiso   1.00
C339   C     0.79368   0.49323   0.33322   0.00000  Uiso   1.00
C340   C     0.87261   0.50155   0.16629   0.00000  Uiso   1.00
C341   C     0.76807   0.48104   0.38120   0.00000  Uiso   1.00
C342   C     0.89779   0.50054   0.11695   0.00000  Uiso   1.00
C343   C     0.69439   0.43151   0.44474   0.00000  Uiso   1.00
C344   C     0.97819   0.52847   0.04816   0.00000  Uiso   1.00
C345   C     0.70879   0.44702   0.40049   0.00000  Uiso   1.00
C346   C     0.96253   0.51791   0.09330   0.00000  Uiso   1.00
C347   C     0.80952   0.49906   0.40742   0.00000  Uiso   1.00
C348   C     0.85392   0.48307   0.09206   0.00000  Uiso   1.00
C349   C     0.79763   0.48005   0.45066   0.00000  Uiso   1.00
C350   C     0.87079   0.48983   0.04570   0.00000  Uiso   1.00
C351   C     0.73857   0.44627   0.46930   0.00000  Uiso   1.00
C352   C     0.93279   0.51689   0.02490   0.00000  Uiso   1.00
C353   C     0.84327   0.49252   0.47542   0.00000  Uiso   1.00
C354   C     0.82719   0.47353   0.01971   0.00000  Uiso   1.00
Cu355  Cu    0.77404   0.49441   0.24517   0.00000  Uiso   1.00
Cu356  Cu    0.89263   0.50559   0.25484   0.00000  Uiso   1.00
H357   H     0.68013   0.39891   0.02597   0.00000  Uiso   1.00
H358   H     0.99729   0.55293   0.46478   0.00000  Uiso   1.00
H359   H     0.80597   0.46616   0.10970   0.00000  Uiso   1.00
H360   H     0.85205   0.52724   0.39246   0.00000  Uiso   1.00
H361   H     0.98271   0.40565   0.45981   0.00000  Uiso   1.00
H362   H     0.69336   0.54520   0.03043   0.00000  Uiso   1.00
H363   H     0.75614   0.41932   0.06806   0.00000  Uiso   1.00
H364   H     0.92203   0.53658   0.42366   0.00000  Uiso   1.00
H365   H     0.66667   0.53603   0.28531   0.00000  Uiso   1.00
H366   H     0.66716   0.46528   0.21411   0.00000  Uiso   1.00
N367   N     0.98173   0.51401   0.26212   0.00000  Uiso   1.00
N368   N     0.68494   0.48599   0.23788   0.00000  Uiso   1.00
O369   O     0.79482   0.57142   0.24686   0.00000  Uiso   1.00
O370   O     0.87185   0.42858   0.25314   0.00000  Uiso   1.00
O371   O     0.89496   0.58086   0.25503   0.00000  Uiso   1.00
O372   O     0.77171   0.41914   0.24498   0.00000  Uiso   1.00
O373   O     0.75518   0.49263   0.30855   0.00000  Uiso   1.00
O374   O     0.91149   0.50737   0.19146   0.00000  Uiso   1.00
O375   O     0.85532   0.50207   0.31671   0.00000  Uiso   1.00
O376   O     0.81134   0.49793   0.18329   0.00000  Uiso   1.00
S377   S     0.69369   0.52131   0.11546   0.00000  Uiso   1.00
O378   O     0.69192   0.46834   0.13205   0.00000  Uiso   1.00
O379   O     0.75515   0.53978   0.08111   0.00000  Uiso   1.00
O380   O     0.69143   0.56324   0.15636   0.00000  Uiso   1.00
H381   H     0.71207   0.59683   0.14040   0.00000  Uiso   1.00
S382   S     0.98645   0.41931   0.37062   0.00000  Uiso   1.00
O383   O     0.68445   0.39034   0.33189   0.00000  Uiso   1.00
O384   O     0.93136   0.38163   0.39936   0.00000  Uiso   1.00
O385   O     0.95865   0.46602   0.35248   0.00000  Uiso   1.00
H386   H     0.97998   0.49939   0.36293   0.00000  Uiso   1.00
S387   S     0.93737   0.35066   0.20475   0.00000  Uiso   1.00
O388   O     0.93420   0.39438   0.17696   0.00000  Uiso   1.00
O389   O     0.98159   0.37058   0.23268   0.00000  Uiso   1.00
O390   O     0.96250   0.63810   0.17074   0.00000  Uiso   1.00
H391   H     0.93443   0.63104   0.15087   0.00000  Uiso   1.00
S392   S     0.77157   0.65226   0.19946   0.00000  Uiso   1.00
O393   O     0.76282   0.36153   0.17301   0.00000  Uiso   1.00
O394   O     0.80629   0.61692   0.16826   0.00000  Uiso   1.00
O395   O     0.70090   0.61798   0.22844   0.00000  Uiso   1.00
H396   H     0.69479   0.63137   0.25882   0.00000  Uiso   1.00
C397   C     0.18293   0.93353   0.24842   0.00000  Uiso   1.00
C398   C     0.15290   0.73353   0.24655   0.00000  Uiso   1.00
C399   C     0.10192   0.77180   0.03634   0.00000  Uiso   1.00
C400   C     0.23857   0.85516   0.45695   0.00000  Uiso   1.00
C401   C     0.05816   0.75906   0.01178   0.00000  Uiso   1.00
C402   C     0.28297   0.86523   0.48079   0.00000  Uiso   1.00
C403   C     0.19574   0.98974   0.23939   0.00000  Uiso   1.00
C404   C     0.14880   0.67837   0.23703   0.00000  Uiso   1.00
C405   C     0.12701   0.82657   0.33322   0.00000  Uiso   1.00
C406   C     0.20594   0.83488   0.16629   0.00000  Uiso   1.00
C407   C     0.10141   0.81438   0.38120   0.00000  Uiso   1.00
C408   C     0.23112   0.83387   0.11695   0.00000  Uiso   1.00
C409   C     0.02772   0.76485   0.44474   0.00000  Uiso   1.00
C410   C     0.31152   0.86181   0.04816   0.00000  Uiso   1.00
C411   C     0.04213   0.78035   0.40049   0.00000  Uiso   1.00
C412   C     0.29586   0.85124   0.09330   0.00000  Uiso   1.00
C413   C     0.14286   0.83239   0.40742   0.00000  Uiso   1.00
C414   C     0.18726   0.81640   0.09206   0.00000  Uiso   1.00
C415   C     0.13097   0.81339   0.45066   0.00000  Uiso   1.00
C416   C     0.20412   0.82317   0.04570   0.00000  Uiso   1.00
C417   C     0.07191   0.77961   0.46930   0.00000  Uiso   1.00
C418   C     0.26612   0.85023   0.02490   0.00000  Uiso   1.00
C419   C     0.17661   0.82586   0.47542   0.00000  Uiso   1.00
C420   C     0.16052   0.80686   0.01971   0.00000  Uiso   1.00
Cu421  Cu    0.10737   0.82775   0.24517   0.00000  Uiso   1.00
Cu422  Cu    0.22596   0.83892   0.25484   0.00000  Uiso   1.00
H423   H     0.01346   0.73225   0.02597   0.00000  Uiso   1.00
H424   H     0.33063   0.88626   0.46478   0.00000  Uiso   1.00
H425   H     0.13930   0.79950   0.10970   0.00000  Uiso   1.00
H426   H     0.18538   0.86057   0.39246   0.00000  Uiso   1.00
H427   H     0.31605   0.73898   0.45981   0.00000  Uiso   1.00
H428   H     0.02669   0.87853   0.03043   0.00000  Uiso   1.00
H429   H     0.08947   0.75265   0.06806   0.00000  Uiso   1.00
H430   H     0.25536   0.86991   0.42366   0.00000  Uiso   1.00
H431   H     0.00001   0.86936   0.28531   0.00000  Uiso   1.00
H432   H     0.00049   0.79861   0.21411   0.00000  Uiso   1.00
N433   N     0.31506   0.84735   0.26212   0.00000  Uiso   1.00
N434   N     0.01827   0.81932   0.23788   0.00000  Uiso   1.00
O435   O     0.12815   0.90476   0.24686   0.00000  Uiso   1.00
O436   O     0.20518   0.76191   0.25314   0.00000  Uiso   1.00
O437   O     0.22829   0.91420   0.25503   0.00000  Uiso   1.00
O438   O     0.10504   0.75247   0.24498   0.00000  Uiso   1.00
O439   O     0.08851   0.82597   0.30855   0.00000  Uiso   1.00
O440   O     0.24482   0.84070   0.19146   0.00000  Uiso   1.00
O441   O     0.18866   0.83540   0.31671   0.00000  Uiso   1.00
O442   O     0.14468   0.83126   0.18329   0.00000  Uiso   1.00
S443   S     0.02703   0.85464   0.11546   0.00000  Uiso   1.00
O444   O     0.02525   0.80167   0.13205   0.00000  Uiso   1.00
O445   O     0.08848   0.87312   0.08111   0.00000  Uiso   1.00
O446   O     0.02477   0.89657   0.15636   0.00000  Uiso   1.00
H447   H     0.04541   0.93016   0.14040   0.00000  Uiso   1.00
S448   S     0.31978   0.75265   0.37062   0.00000  Uiso   1.00
O449   O     0.01779   0.72367   0.33189   0.00000  Uiso   1.00
O450   O     0.26469   0.71497   0.39936   0.00000  Uiso   1.00
O451   O     0.29198   0.79935   0.35248   0.00000  Uiso   1.00
H452   H     0.31332   0.83272   0.36293   0.00000  Uiso   1.00
S453   S     0.27070   0.68400   0.20475   0.00000  Uiso   1.00
O454   O     0.26754   0.72771   0.17696   0.00000  Uiso   1.00
O455   O     0.31493   0.70391   0.23268   0.00000  Uiso   1.00
O456   O     0.29584   0.97144   0.17074   0.00000  Uiso   1.00
H457   H     0.26776   0.96437   0.15087   0.00000  Uiso   1.00
S458   S     0.10490   0.98559   0.19946   0.00000  Uiso   1.00
O459   O     0.09615   0.69487   0.17301   0.00000  Uiso   1.00
O460   O     0.13962   0.95025   0.16826   0.00000  Uiso   1.00
O461   O     0.03424   0.95131   0.22844   0.00000  Uiso   1.00
H462   H     0.02813   0.96471   0.25882   0.00000  Uiso   1.00
C463   C     0.51627   0.93353   0.24842   0.00000  Uiso   1.00
C464   C     0.48624   0.73353   0.24655   0.00000  Uiso   1.00
C465   C     0.43525   0.77180   0.03634   0.00000  Uiso   1.00
C466   C     0.57190   0.85516   0.45695   0.00000  Uiso   1.00
C467   C     0.39149   0.75906   0.01178   0.00000  Uiso   1.00
C468   C     0.61630   0.86523   0.48079   0.00000  Uiso   1.00
C469   C     0.52908   0.98974   0.23939   0.00000  Uiso   1.00
C470   C     0.48213   0.67837   0.23703   0.00000  Uiso   1.00
C471   C     0.46034   0.82657   0.33322   0.00000  Uiso   1.00
C472   C     0.53927   0.83488   0.16629   0.00000  Uiso   1.00
C473   C     0.43474   0.81438   0.38120   0.00000  Uiso   1.00
C474   C     0.56445   0.83387   0.11695   0.00000  Uiso   1.00
C475   C     0.36106   0.76485   0.44474   0.00000  Uiso   1.00
C476   C     0.64485   0.86181   0.04816   0.00000  Uiso   1.00
C477   C     0.37546   0.78035   0.40049   0.00000  Uiso   1.00
C478   C     0.62919   0.85124   0.09330   0.00000  Uiso   1.00
C479   C     0.47619   0.83239   0.40742   0.00000  Uiso   1.00
C480   C     0.52059   0.81640   0.09206   0.00000  Uiso   1.00
C481   C     0.46430   0.81339   0.45066   0.00000  Uiso   1.00
C482   C     0.53745   0.82317   0.04570   0.00000  Uiso   1.00
C483   C     0.40524   0.77961   0.46930   0.00000  Uiso   1.00
C484   C     0.59945   0.85023   0.02490   0.00000  Uiso   1.00
C485   C     0.50994   0.82586   0.47542   0.00000  Uiso   1.00
C486   C     0.49385   0.80686   0.01971   0.00000  Uiso   1.00
Cu487  Cu    0.44071   0.82775   0.24517   0.00000  Uiso   1.00
Cu488  Cu    0.55929   0.83892   0.25484   0.00000  Uiso   1.00
H489   H     0.34680   0.73225   0.02597   0.00000  Uiso   1.00
H490   H     0.66396   0.88626   0.46478   0.00000  Uiso   1.00
H491   H     0.47263   0.79950   0.10970   0.00000  Uiso   1.00
H492   H     0.51871   0.86057   0.39246   0.00000  Uiso   1.00
H493   H     0.64938   0.73898   0.45981   0.00000  Uiso   1.00
H494   H     0.36002   0.87853   0.03043   0.00000  Uiso   1.00
H495   H     0.42281   0.75265   0.06806   0.00000  Uiso   1.00
H496   H     0.58870   0.86991   0.42366   0.00000  Uiso   1.00
H497   H     0.33334   0.86936   0.28531   0.00000  Uiso   1.00
H498   H     0.33382   0.79861   0.21411   0.00000  Uiso   1.00
N499   N     0.64839   0.84735   0.26212   0.00000  Uiso   1.00
N500   N     0.35161   0.81932   0.23788   0.00000  Uiso   1.00
O501   O     0.46148   0.90476   0.24686   0.00000  Uiso   1.00
O502   O     0.53852   0.76191   0.25314   0.00000  Uiso   1.00
O503   O     0.56163   0.91420   0.25503   0.00000  Uiso   1.00
O504   O     0.43837   0.75247   0.24498   0.00000  Uiso   1.00
O505   O     0.42185   0.82597   0.30855   0.00000  Uiso   1.00
O506   O     0.57815   0.84070   0.19146   0.00000  Uiso   1.00
O507   O     0.52199   0.83540   0.31671   0.00000  Uiso   1.00
O508   O     0.47801   0.83126   0.18329   0.00000  Uiso   1.00
S509   S     0.36036   0.85464   0.11546   0.00000  Uiso   1.00
O510   O     0.35859   0.80167   0.13205   0.00000  Uiso   1.00
O511   O     0.42182   0.87312   0.08111   0.00000  Uiso   1.00
O512   O     0.35810   0.89657   0.15636   0.00000  Uiso   1.00
H513   H     0.37874   0.93016   0.14040   0.00000  Uiso   1.00
S514   S     0.65312   0.75265   0.37062   0.00000  Uiso   1.00
O515   O     0.35112   0.72367   0.33189   0.00000  Uiso   1.00
O516   O     0.59802   0.71497   0.39936   0.00000  Uiso   1.00
O517   O     0.62532   0.79935   0.35248   0.00000  Uiso   1.00
H518   H     0.64665   0.83272   0.36293   0.00000  Uiso   1.00
S519   S     0.60403   0.68400   0.20475   0.00000  Uiso   1.00
O520   O     0.60087   0.72771   0.17696   0.00000  Uiso   1.00
O521   O     0.64826   0.70391   0.23268   0.00000  Uiso   1.00
O522   O     0.62917   0.97144   0.17074   0.00000  Uiso   1.00
H523   H     0.60109   0.96437   0.15087   0.00000  Uiso   1.00
S524   S     0.43823   0.98559   0.19946   0.00000  Uiso   1.00
O525   O     0.42949   0.69487   0.17301   0.00000  Uiso   1.00
O526   O     0.47295   0.95025   0.16826   0.00000  Uiso   1.00
O527   O     0.36757   0.95131   0.22844   0.00000  Uiso   1.00
H528   H     0.36146   0.96471   0.25882   0.00000  Uiso   1.00
C529   C     0.84960   0.93353   0.24842   0.00000  Uiso   1.00
C530   C     0.81957   0.73353   0.24655   0.00000  Uiso   1.00
C531   C     0.76859   0.77180   0.03634   0.00000  Uiso   1.00
C532   C     0.90523   0.85516   0.45695   0.00000  Uiso   1.00
C533   C     0.72482   0.75906   0.01178   0.00000  Uiso   1.00
C534   C     0.94964   0.86523   0.48079   0.00000  Uiso   1.00
C535   C     0.86241   0.98974   0.23939   0.00000  Uiso   1.00
C536   C     0.81547   0.67837   0.23703   0.00000  Uiso   1.00
C537   C     0.79368   0.82657   0.33322   0.00000  Uiso   1.00
C538   C     0.87261   0.83488   0.16629   0.00000  Uiso   1.00
C539   C     0.76807   0.81438   0.38120   0.00000  Uiso   1.00
C540   C     0.89779   0.83387   0.11695   0.00000  Uiso   1.00
C541   C     0.69439   0.76485   0.44474   0.00000  Uiso   1.00
C542   C     0.97819   0.86181   0.04816   0.00000  Uiso   1.00
C543   C     0.70879   0.78035   0.40049   0.00000  Uiso   1.00
C544   C     0.96253   0.85124   0.09330   0.00000  Uiso   1.00
C545   C     0.80952   0.83239   0.40742   0.00000  Uiso   1.00
C546   C     0.85392   0.81640   0.09206   0.00000  Uiso   1.00
C547   C     0.79763   0.81339   0.45066   0.00000  Uiso   1.00
C548   C     0.87079   0.82317   0.04570   0.00000  Uiso   1.00
C549   C     0.73857   0.77961   0.46930   0.00000  Uiso   1.00
C550   C     0.93279   0.85023   0.02490   0.00000  Uiso   1.00
C551   C     0.84327   0.82586   0.47542   0.00000  Uiso   1.00
C552   C     0.82719   0.80686   0.01971   0.00000  Uiso   1.00
Cu553  Cu    0.77404   0.82775   0.24517   0.00000  Uiso   1.00
Cu554  Cu    0.89263   0.83892   0.25484   0.00000  Uiso   1.00
H555   H     0.68013   0.73225   0.02597   0.00000  Uiso   1.00
H556   H     0.99729   0.88626   0.46478   0.00000  Uiso   1.00
H557   H     0.80597   0.79950   0.10970   0.00000  Uiso   1.00
H558   H     0.85205   0.86057   0.39246   0.00000  Uiso   1.00
H559   H     0.98271   0.73898   0.45981   0.00000  Uiso   1.00
H560   H     0.69336   0.87853   0.03043   0.00000  Uiso   1.00
H561   H     0.75614   0.75265   0.06806   0.00000  Uiso   1.00
H562   H     0.92203   0.86991   0.42366   0.00000  Uiso   1.00
H563   H     0.66667   0.86936   0.28531   0.00000  Uiso   1.00
H564   H     0.66716   0.79861   0.21411   0.00000  Uiso   1.00
N565   N     0.98173   0.84735   0.26212   0.00000  Uiso   1.00
N566   N     0.68494   0.81932   0.23788   0.00000  Uiso   1.00
O567   O     0.79482   0.90476   0.24686   0.00000  Uiso   1.00
O568   O     0.87185   0.76191   0.25314   0.00000  Uiso   1.00
O569   O     0.89496   0.91420   0.25503   0.00000  Uiso   1.00
O570   O     0.77171   0.75247   0.24498   0.00000  Uiso   1.00
O571   O     0.75518   0.82597   0.30855   0.00000  Uiso   1.00
O572   O     0.91149   0.84070   0.19146   0.00000  Uiso   1.00
O573   O     0.85532   0.83540   0.31671   0.00000  Uiso   1.00
O574   O     0.81134   0.83126   0.18329   0.00000  Uiso   1.00
S575   S     0.69369   0.85464   0.11546   0.00000  Uiso   1.00
O576   O     0.69192   0.80167   0.13205   0.00000  Uiso   1.00
O577   O     0.75515   0.87312   0.08111   0.00000  Uiso   1.00
O578   O     0.69143   0.89657   0.15636   0.00000  Uiso   1.00
H579   H     0.71207   0.93016   0.14040   0.00000  Uiso   1.00
S580   S     0.98645   0.75265   0.37062   0.00000  Uiso   1.00
O581   O     0.68445   0.72367   0.33189   0.00000  Uiso   1.00
O582   O     0.93136   0.71497   0.39936   0.00000  Uiso   1.00
O583   O     0.95865   0.79935   0.35248   0.00000  Uiso   1.00
H584   H     0.97998   0.83272   0.36293   0.00000  Uiso   1.00
S585   S     0.93737   0.68400   0.20475   0.00000  Uiso   1.00
O586   O     0.93420   0.72771   0.17696   0.00000  Uiso   1.00
O587   O     0.98159   0.70391   0.23268   0.00000  Uiso   1.00
O588   O     0.96250   0.97144   0.17074   0.00000  Uiso   1.00
H589   H     0.93443   0.96437   0.15087   0.00000  Uiso   1.00
S590   S     0.77157   0.98559   0.19946   0.00000  Uiso   1.00
O591   O     0.76282   0.69487   0.17301   0.00000  Uiso   1.00
O592   O     0.80629   0.95025   0.16826   0.00000  Uiso   1.00
O593   O     0.70090   0.95131   0.22844   0.00000  Uiso   1.00
H594   H     0.69479   0.96471   0.25882   0.00000  Uiso   1.00
C595   C     0.18293   0.26686   0.74842   0.00000  Uiso   1.00
C596   C     0.15290   0.06686   0.74655   0.00000  Uiso   1.00
C597   C     0.10192   0.10514   0.53634   0.00000  Uiso   1.00
C598   C     0.23857   0.18849   0.95695   0.00000  Uiso   1.00
C599   C     0.05816   0.09240   0.51178   0.00000  Uiso   1.00
C600   C     0.28297   0.19856   0.98079   0.00000  Uiso   1.00
C601   C     0.19574   0.32308   0.73939   0.00000  Uiso   1.00
C602   C     0.14880   0.01170   0.73703   0.00000  Uiso   1.00
C603   C     0.12701   0.15990   0.83322   0.00000  Uiso   1.00
C604   C     0.20594   0.16821   0.66629   0.00000  Uiso   1.00
C605   C     0.10141   0.14771   0.88120   0.00000  Uiso   1.00
C606   C     0.23112   0.16720   0.61695   0.00000  Uiso   1.00
C607   C     0.02772   0.09818   0.94474   0.00000  Uiso   1.00
C608   C     0.31152   0.19514   0.54816   0.00000  Uiso   1.00
C609   C     0.04213   0.11369   0.90049   0.00000  Uiso   1.00
C610   C     0.29586   0.18457   0.59330   0.00000  Uiso   1.00
C611   C     0.14286   0.16573   0.90742   0.00000  Uiso   1.00
C612   C     0.18726   0.14974   0.59206   0.00000  Uiso   1.00
C613   C     0.13097   0.14672   0.95066   0.00000  Uiso   1.00
C614   C     0.20412   0.15650   0.54570   0.00000  Uiso   1.00
C615   C     0.07191   0.11294   0.96930   0.00000  Uiso   1.00
C616   C     0.26612   0.18356   0.52490   0.00000  Uiso   1.00
C617   C     0.17661   0.15919   0.97542   0.00000  Uiso   1.00
C618   C     0.16052   0.14019   0.51971   0.00000  Uiso   1.00
Cu619  Cu    0.10737   0.16108   0.74517   0.00000  Uiso   1.00
Cu620  Cu    0.22596   0.17225   0.75484   0.00000  Uiso   1.00
H621   H     0.01346   0.06558   0.52597   0.00000  Uiso   1.00
H622   H     0.33063   0.21959   0.96478   0.00000  Uiso   1.00
H623   H     0.13930   0.13283   0.60970   0.00000  Uiso   1.00
H624   H     0.18538   0.19391   0.89246   0.00000  Uiso   1.00
H625   H     0.31605   0.07232   0.95981   0.00000  Uiso   1.00
H626   H     0.02669   0.21187   0.53043   0.00000  Uiso   1.00
H627   H     0.08947   0.08598   0.56806   0.00000  Uiso   1.00
H628   H     0.25536   0.20324   0.92366   0.00000  Uiso   1.00
H629   H     0.00001   0.20270   0.78531   0.00000  Uiso   1.00
H630   H     0.00049   0.13195   0.71411   0.00000  Uiso   1.00
N631   N     0.31506   0.18068   0.76212   0.00000  Uiso   1.00
N632   N     0.01827   0.15265   0.73788   0.00000  Uiso   1.00
O633   O     0.12815   0.23809   0.74686   0.00000  Uiso   1.00
O634   O     0.20518   0.09524   0.75314   0.00000  Uiso   1.00
O635   O     0.22829   0.24753   0.75503   0.00000  Uiso   1.00
O636   O     0.10504   0.08580   0.74498   0.00000  Uiso   1.00
O637   O     0.08851   0.15930   0.80855   0.00000  Uiso   1.00
O638   O     0.24482   0.17403   0.69146   0.00000  Uiso   1.00
O639   O     0.18866   0.16874   0.81671   0.00000  Uiso   1.00
O640   O     0.14468   0.16460   0.68329   0.00000  Uiso   1.00
S641   S     0.02703   0.18797   0.61546   0.00000  Uiso   1.00
O642   O     0.02525   0.13500   0.63205   0.00000  Uiso   1.00
O643   O     0.08848   0.20645   0.58111   0.00000  Uiso   1.00
O644   O     0.02477   0.22990   0.65636   0.00000  Uiso   1.00
H645   H     0.04541   0.26350   0.64040   0.00000  Uiso   1.00
S646   S     0.31978   0.08598   0.87062   0.00000  Uiso   1.00
O647   O     0.01779   0.05700   0.83189   0.00000  Uiso   1.00
O648   O     0.26469   0.04830   0.89936   0.00000  Uiso   1.00
O649   O     0.29198   0.13269   0.85248   0.00000  Uiso   1.00
H650   H     0.31332   0.16606   0.86293   0.00000  Uiso   1.00
S651   S     0.27070   0.01733   0.70475   0.00000  Uiso   1.00
O652   O     0.26754   0.06104   0.67696   0.00000  Uiso   1.00
O653   O     0.31493   0.03725   0.73268   0.00000  Uiso   1.00
O654   O     0.29584   0.30477   0.67074   0.00000  Uiso   1.00
H655   H     0.26776   0.29770   0.65087   0.00000  Uiso   1.00
S656   S     0.10490   0.31893   0.69946   0.00000  Uiso   1.00
O657   O     0.09615   0.02820   0.67301   0.00000  Uiso   1.00
O658   O     0.13962   0.28359   0.66826   0.00000  Uiso   1.00
O659   O     0.03424   0.28464   0.72844   0.00000  Uiso   1.00
H660   H     0.02813   0.29804   0.75882   0.00000  Uiso   1.00
C661   C     0.51627   0.26686   0.74842   0.00000  Uiso   1.00
C662   C     0.48624   0.06686   0.74655   0.00000  Uiso   1.00
C663   C     0.43525   0.10514   0.53634   0.00000  Uiso   1.00
C664   C     0.57190   0.18849   0.95695   0.00000  Uiso   1.00
C665   C     0.39149   0.09240   0.51178   0.00000  Uiso   1.00
C666   C     0.61630   0.19856   0.98079   0.00000  Uiso   1.00
C667   C     0.52908   0.32308   0.73939   0.00000  Uiso   1.00
C668   C     0.48213   0.01170   0.73703   0.00000  Uiso   1.00
C669   C     0.46034   0.15990   0.83322   0.00000  Uiso   1.00
C670   C     0.53927   0.16821   0.66629   0.00000  Uiso   1.00
C671   C     0.43474   0.14771   0.88120   0.00000  Uiso   1.00
C672   C     0.56445   0.16720   0.61695   0.00000  Uiso   1.00
C673   C     0.36106   0.09818   0.94474   0.00000  Uiso   1.00
C674   C     0.64485   0.19514   0.54816   0.00000  Uiso   1.00
C675   C     0.37546   0.11369   0.90049   0.00000  Uiso   1.00
C676   C     0.62919   0.18457   0.59330   0.00000  Uiso   1.00
C677   C     0.47619   0.16573   0.90742   0.00000  Uiso   1.00
C678   C     0.52059   0.14974   0.59206   0.00000  Uiso   1.00
C679   C     0.46430   0.14672   0.95066   0.00000  Uiso   1.00
C680   C     0.53745   0.15650   0.54570   0.00000  Uiso   1.00
C681   C     0.40524   0.11294   0.96930   0.00000  Uiso   1.00
C682   C     0.59945   0.18356   0.52490   0.00000  Uiso   1.00
C683   C     0.50994   0.15919   0.97542   0.00000  Uiso   1.00
C684   C     0.49385   0.14019   0.51971   0.00000  Uiso   1.00
Cu685  Cu    0.44071   0.16108   0.74517   0.00000  Uiso   1.00
Cu686  Cu    0.55929   0.17225   0.75484   0.00000  Uiso   1.00
H687   H     0.34680   0.06558   0.52597   0.00000  Uiso   1.00
H688   H     0.66396   0.21959   0.96478   0.00000  Uiso   1.00
H689   H     0.47263   0.13283   0.60970   0.00000  Uiso   1.00
H690   H     0.51871   0.19391   0.89246   0.00000  Uiso   1.00
H691   H     0.64938   0.07232   0.95981   0.00000  Uiso   1.00
H692   H     0.36002   0.21187   0.53043   0.00000  Uiso   1.00
H693   H     0.42281   0.08598   0.56806   0.00000  Uiso   1.00
H694   H     0.58870   0.20324   0.92366   0.00000  Uiso   1.00
H695   H     0.33334   0.20270   0.78531   0.00000  Uiso   1.00
H696   H     0.33382   0.13195   0.71411   0.00000  Uiso   1.00
N697   N     0.64839   0.18068   0.76212   0.00000  Uiso   1.00
N698   N     0.35161   0.15265   0.73788   0.00000  Uiso   1.00
O699   O     0.46148   0.23809   0.74686   0.00000  Uiso   1.00
O700   O     0.53852   0.09524   0.75314   0.00000  Uiso   1.00
O701   O     0.56163   0.24753   0.75503   0.00000  Uiso   1.00
O702   O     0.43837   0.08580   0.74498   0.00000  Uiso   1.00
O703   O     0.42185   0.15930   0.80855   0.00000  Uiso   1.00
O704   O     0.57815   0.17403   0.69146   0.00000  Uiso   1.00
O705   O     0.52199   0.16874   0.81671   0.00000  Uiso   1.00
O706   O     0.47801   0.16460   0.68329   0.00000  Uiso   1.00
S707   S     0.36036   0.18797   0.61546   0.00000  Uiso   1.00
O708   O     0.35859   0.13500   0.63205   0.00000  Uiso   1.00
O709   O     0.42182   0.20645   0.58111   0.00000  Uiso   1.00
O710   O     0.35810   0.22990   0.65636   0.00000  Uiso   1.00
H711   H     0.37874   0.26350   0.64040   0.00000  Uiso   1.00
S712   S     0.65312   0.08598   0.87062   0.00000  Uiso   1.00
O713   O     0.35112   0.05700   0.83189   0.00000  Uiso   1.00
O714   O     0.59802   0.04830   0.89936   0.00000  Uiso   1.00
O715   O     0.62532   0.13269   0.85248   0.00000  Uiso   1.00
H716   H     0.64665   0.16606   0.86293   0.00000  Uiso   1.00
S717   S     0.60403   0.01733   0.70475   0.00000  Uiso   1.00
O718   O     0.60087   0.06104   0.67696   0.00000  Uiso   1.00
O719   O     0.64826   0.03725   0.73268   0.00000  Uiso   1.00
O720   O     0.62917   0.30477   0.67074   0.00000  Uiso   1.00
H721   H     0.60109   0.29770   0.65087   0.00000  Uiso   1.00
S722   S     0.43823   0.31893   0.69946   0.00000  Uiso   1.00
O723   O     0.42949   0.02820   0.67301   0.00000  Uiso   1.00
O724   O     0.47295   0.28359   0.66826   0.00000  Uiso   1.00
O725   O     0.36757   0.28464   0.72844   0.00000  Uiso   1.00
H726   H     0.36146   0.29804   0.75882   0.00000  Uiso   1.00
C727   C     0.84960   0.26686   0.74842   0.00000  Uiso   1.00
C728   C     0.81957   0.06686   0.74655   0.00000  Uiso   1.00
C729   C     0.76859   0.10514   0.53634   0.00000  Uiso   1.00
C730   C     0.90523   0.18849   0.95695   0.00000  Uiso   1.00
C731   C     0.72482   0.09240   0.51178   0.00000  Uiso   1.00
C732   C     0.94964   0.19856   0.98079   0.00000  Uiso   1.00
C733   C     0.86241   0.32308   0.73939   0.00000  Uiso   1.00
C734   C     0.81547   0.01170   0.73703   0.00000  Uiso   1.00
C735   C     0.79368   0.15990   0.83322   0.00000  Uiso   1.00
C736   C     0.87261   0.16821   0.66629   0.00000  Uiso   1.00
C737   C     0.76807   0.14771   0.88120   0.00000  Uiso   1.00
C738   C     0.89779   0.16720   0.61695   0.00000  Uiso   1.00
C739   C     0.69439   0.09818   0.94474   0.00000  Uiso   1.00
C740   C     0.97819   0.19514   0.54816   0.00000  Uiso   1.00
C741   C     0.70879   0.11369   0.90049   0.00000  Uiso   1.00
C742   C     0.96253   0.18457   0.59330   0.00000  Uiso   1.00
C743   C     0.80952   0.16573   0.90742   0.00000  Uiso   1.00
C744   C     0.85392   0.14974   0.59206   0.00000  Uiso   1.00
C745   C     0.79763   0.14672   0.95066   0.00000  Uiso   1.00
C746   C     0.87079   0.15650   0.54570   0.00000  Uiso   1.00
C747   C     0.73857   0.11294   0.96930   0.00000  Uiso   1.00
C748   C     0.93279   0.18356   0.52490   0.00000  Uiso   1.00
C749   C     0.84327   0.15919   0.97542   0.00000  Uiso   1.00
C750   C     0.82719   0.14019   0.51971   0.00000  Uiso   1.00
Cu751  Cu    0.77404   0.16108   0.74517   0.00000  Uiso   1.00
Cu752  Cu    0.89263   0.17225   0.75484   0.00000  Uiso   1.00
H753   H     0.68013   0.06558   0.52597   0.00000  Uiso   1.00
H754   H     0.99729   0.21959   0.96478   0.00000  Uiso   1.00
H755   H     0.80597   0.13283   0.60970   0.00000  Uiso   1.00
H756   H     0.85205   0.19391   0.89246   0.00000  Uiso   1.00
H757   H     0.98271   0.07232   0.95981   0.00000  Uiso   1.00
H758   H     0.69336   0.21187   0.53043   0.00000  Uiso   1.00
H759   H     0.75614   0.08598   0.56806   0.00000  Uiso   1.00
H760   H     0.92203   0.20324   0.92366   0.00000  Uiso   1.00
H761   H     0.66667   0.20270   0.78531   0.00000  Uiso   1.00
H762   H     0.66716   0.13195   0.71411   0.00000  Uiso   1.00
N763   N     0.98173   0.18068   0.76212   0.00000  Uiso   1.00
N764   N     0.68494   0.15265   0.73788   0.00000  Uiso   1.00
O765   O     0.79482   0.23809   0.74686   0.00000  Uiso   1.00
O766   O     0.87185   0.09524   0.75314   0.00000  Uiso   1.00
O767   O     0.89496   0.24753   0.75503   0.00000  Uiso   1.00
O768   O     0.77171   0.08580   0.74498   0.00000  Uiso   1.00
O769   O     0.75518   0.15930   0.80855   0.00000  Uiso   1.00
O770   O     0.91149   0.17403   0.69146   0.00000  Uiso   1.00
O771   O     0.85532   0.16874   0.81671   0.00000  Uiso   1.00
O772   O     0.81134   0.16460   0.68329   0.00000  Uiso   1.00
S773   S     0.69369   0.18797   0.61546   0.00000  Uiso   1.00
O774   O     0.69192   0.13500   0.63205   0.00000  Uiso   1.00
O775   O     0.75515   0.20645   0.58111   0.00000  Uiso   1.00
O776   O     0.69143   0.22990   0.65636   0.00000  Uiso   1.00
H777   H     0.71207   0.26350   0.64040   0.00000  Uiso   1.00
S778   S     0.98645   0.08598   0.87062   0.00000  Uiso   1.00
O779   O     0.68445   0.05700   0.83189   0.00000  Uiso   1.00
O780   O     0.93136   0.04830   0.89936   0.00000  Uiso   1.00
O781   O     0.95865   0.13269   0.85248   0.00000  Uiso   1.00
H782   H     0.97998   0.16606   0.86293   0.00000  Uiso   1.00
S783   S     0.93737   0.01733   0.70475   0.00000  Uiso   1.00
O784   O     0.93420   0.06104   0.67696   0.00000  Uiso   1.00
O785   O     0.98159   0.03725   0.73268   0.00000  Uiso   1.00
O786   O     0.96250   0.30477   0.67074   0.00000  Uiso   1.00
H787   H     0.93443   0.29770   0.65087   0.00000  Uiso   1.00
S788   S     0.77157   0.31893   0.69946   0.00000  Uiso   1.00
O789   O     0.76282   0.02820   0.67301   0.00000  Uiso   1.00
O790   O     0.80629   0.28359   0.66826   0.00000  Uiso   1.00
O791   O     0.70090   0.28464   0.72844   0.00000  Uiso   1.00
H792   H     0.69479   0.29804   0.75882   0.00000  Uiso   1.00
C793   C     0.18293   0.60019   0.74842   0.00000  Uiso   1.00
C794   C     0.15290   0.40019   0.74655   0.00000  Uiso   1.00
C795   C     0.10192   0.43847   0.53634   0.00000  Uiso   1.00
C796   C     0.23857   0.52183   0.95695   0.00000  Uiso   1.00
C797   C     0.05816   0.42573   0.51178   0.00000  Uiso   1.00
C798   C     0.28297   0.53190   0.98079   0.00000  Uiso   1.00
C799   C     0.19574   0.65641   0.73939   0.00000  Uiso   1.00
C800   C     0.14880   0.34504   0.73703   0.00000  Uiso   1.00
C801   C     0.12701   0.49323   0.83322   0.00000  Uiso   1.00
C802   C     0.20594   0.50155   0.66629   0.00000  Uiso   1.00
C803   C     0.10141   0.48104   0.88120   0.00000  Uiso   1.00
C804   C     0.23112   0.50054   0.61695   0.00000  Uiso   1.00
C805   C     0.02772   0.43151   0.94474   0.00000  Uiso   1.00
C806   C     0.31152   0.52847   0.54816   0.00000  Uiso   1.00
C807   C     0.04213   0.44702   0.90049   0.00000  Uiso   1.00
C808   C     0.29586   0.51791   0.59330   0.00000  Uiso   1.00
C809   C     0.14286   0.49906   0.90742   0.00000  Uiso   1.00
C810   C     0.18726   0.48307   0.59206   0.00000  Uiso   1.00
C811   C     0.13097   0.48005   0.95066   0.00000  Uiso   1.00
C812   C     0.20412   0.48983   0.54570   0.00000  Uiso   1.00
C813   C     0.07191   0.44627   0.96930   0.00000  Uiso   1.00
C814   C     0.26612   0.51689   0.52490   0.00000  Uiso   1.00
C815   C     0.17661   0.49252   0.97542   0.00000  Uiso   1.00
C816   C     0.16052   0.47353   0.51971   0.00000  Uiso   1.00
Cu817  Cu    0.10737   0.49441   0.74517   0.00000  Uiso   1.00
Cu818  Cu    0.22596   0.50559   0.75484   0.00000  Uiso   1.00
H819   H     0.01346   0.39891   0.52597   0.00000  Uiso   1.00
H820   H     0.33063   0.55293   0.96478   0.00000  Uiso   1.00
H821   H     0.13930   0.46616   0.60970   0.00000  Uiso   1.00
H822   H     0.18538   0.52724   0.89246   0.00000  Uiso   1.00
H823   H     0.31605   0.40565   0.95981   0.00000  Uiso   1.00
H824   H     0.02669   0.54520   0.53043   0.00000  Uiso   1.00
H825   H     0.08947   0.41932   0.56806   0.00000  Uiso   1.00
H826   H     0.25536   0.53658   0.92366   0.00000  Uiso   1.00
H827   H     0.00001   0.53603   0.78531   0.00000  Uiso   1.00
H828   H     0.00049   0.46528   0.71411   0.00000  Uiso   1.00
N829   N     0.31506   0.51401   0.76212   0.00000  Uiso   1.00
N830   N     0.01827   0.48599   0.73788   0.00000  Uiso   1.00
O831   O     0.12815   0.57142   0.74686   0.00000  Uiso   1.00
O832   O     0.20518   0.42858   0.75314   0.00000  Uiso   1.00
O833   O     0.22829   0.58086   0.75503   0.00000  Uiso   1.00
O834   O     0.10504   0.41914   0.74498   0.00000  Uiso   1.00
O835   O     0.08851   0.49263   0.80855   0.00000  Uiso   1.00
O836   O     0.24482   0.50737   0.69146   0.00000  Uiso   1.00
O837   O     0.18866   0.50207   0.81671   0.00000  Uiso   1.00
O838   O     0.14468   0.49793   0.68329   0.00000  Uiso   1.00
S839   S     0.02703   0.52131   0.61546   0.00000  Uiso   1.00
O840   O     0.02525   0.46834   0.63205   0.00000  Uiso   1.00
O841   O     0.08848   0.53978   0.58111   0.00000  Uiso   1.00
O842   O     0.02477   0.56324   0.65636   0.00000  Uiso   1.00
H843   H     0.04541   0.59683   0.64040   0.00000  Uiso   1.00
S844   S     0.31978   0.41931   0.87062   0.00000  Uiso   1.00
O845   O     0.01779   0.39034   0.83189   0.00000  Uiso   1.00
O846   O     0.26469   0.38163   0.89936   0.00000  Uiso   1.00
O847   O     0.29198   0.46602   0.85248   0.00000  Uiso   1.00
H848   H     0.31332   0.49939   0.86293   0.00000  Uiso   1.00
S849   S     0.27070   0.35066   0.70475   0.00000  Uiso   1.00
O850   O     0.26754   0.39438   0.67696   0.00000  Uiso   1.00
O851   O     0.31493   0.37058   0.73268   0.00000  Uiso   1.00
O852   O     0.29584   0.63810   0.67074   0.00000  Uiso   1.00
H853   H     0.26776   0.63104   0.65087   0.00000  Uiso   1.00
S854   S     0.10490   0.65226   0.69946   0.00000  Uiso   1.00
O855   O     0.09615   0.36153   0.67301   0.00000  Uiso   1.00
O856   O     0.13962   0.61692   0.66826   0.00000  Uiso   1.00
O857   O     0.03424   0.61798   0.72844   0.00000  Uiso   1.00
H858   H     0.02813   0.63137   0.75882   0.00000  Uiso   1.00
C859   C     0.51627   0.60019   0.74842   0.00000  Uiso   1.00
C860   C     0.48624   0.40019   0.74655   0.00000  Uiso   1.00
C861   C     0.43525   0.43847   0.53634   0.00000  Uiso   1.00
C862   C     0.57190   0.52183   0.95695   0.00000  Uiso   1.00
C863   C     0.39149   0.42573   0.51178   0.00000  Uiso   1.00
C864   C     0.61630   0.53190   0.98079   0.00000  Uiso   1.00
C865   C     0.52908   0.65641   0.73939   0.00000  Uiso   1.00
C866   C     0.48213   0.34504   0.73703   0.00000  Uiso   1.00
C867   C     0.46034   0.49323   0.83322   0.00000  Uiso   1.00
C868   C     0.53927   0.50155   0.66629   0.00000  Uiso   1.00
C869   C     0.43474   0.48104   0.88120   0.00000  Uiso   1.00
C870   C     0.56445   0.50054   0.61695   0.00000  Uiso   1.00
C871   C     0.36106   0.43151   0.94474   0.00000  Uiso   1.00
C872   C     0.64485   0.52847   0.54816   0.00000  Uiso   1.00
C873   C     0.37546   0.44702   0.90049   0.00000  Uiso   1.00
C874   C     0.62919   0.51791   0.59330   0.00000  Uiso   1.00
C875   C     0.47619   0.49906   0.90742   0.00000  Uiso   1.00
C876   C     0.52059   0.48307   0.59206   0.00000  Uiso   1.00
C877   C     0.46430   0.48005   0.95066   0.00000  Uiso   1.00
C878   C     0.53745   0.48983   0.54570   0.00000  Uiso   1.00
C879   C     0.40524   0.44627   0.96930   0.00000  Uiso   1.00
C880   C     0.59945   0.51689   0.52490   0.00000  Uiso   1.00
C881   C     0.50994   0.49252   0.97542   0.00000  Uiso   1.00
C882   C     0.49385   0.47353   0.51971   0.00000  Uiso   1.00
Cu883  Cu    0.44071   0.49441   0.74517   0.00000  Uiso   1.00
Cu884  Cu    0.55929   0.50559   0.75484   0.00000  Uiso   1.00
H885   H     0.34680   0.39891   0.52597   0.00000  Uiso   1.00
H886   H     0.66396   0.55293   0.96478   0.00000  Uiso   1.00
H887   H     0.47263   0.46616   0.60970   0.00000  Uiso   1.00
H888   H     0.51871   0.52724   0.89246   0.00000  Uiso   1.00
H889   H     0.64938   0.40565   0.95981   0.00000  Uiso   1.00
H890   H     0.36002   0.54520   0.53043   0.00000  Uiso   1.00
H891   H     0.42281   0.41932   0.56806   0.00000  Uiso   1.00
H892   H     0.58870   0.53658   0.92366   0.00000  Uiso   1.00
H893   H     0.33334   0.53603   0.78531   0.00000  Uiso   1.00
H894   H     0.33382   0.46528   0.71411   0.00000  Uiso   1.00
N895   N     0.64839   0.51401   0.76212   0.00000  Uiso   1.00
N896   N     0.35161   0.48599   0.73788   0.00000  Uiso   1.00
O897   O     0.46148   0.57142   0.74686   0.00000  Uiso   1.00
O898   O     0.53852   0.42858   0.75314   0.00000  Uiso   1.00
O899   O     0.56163   0.58086   0.75503   0.00000  Uiso   1.00
O900   O     0.43837   0.41914   0.74498   0.00000  Uiso   1.00
O901   O     0.42185   0.49263   0.80855   0.00000  Uiso   1.00
O902   O     0.57815   0.50737   0.69146   0.00000  Uiso   1.00
O903   O     0.52199   0.50207   0.81671   0.00000  Uiso   1.00
O904   O     0.47801   0.49793   0.68329   0.00000  Uiso   1.00
S905   S     0.36036   0.52131   0.61546   0.00000  Uiso   1.00
O906   O     0.35859   0.46834   0.63205   0.00000  Uiso   1.00
O907   O     0.42182   0.53978   0.58111   0.00000  Uiso   1.00
O908   O     0.35810   0.56324   0.65636   0.00000  Uiso   1.00
H909   H     0.37874   0.59683   0.64040   0.00000  Uiso   1.00
S910   S     0.65312   0.41931   0.87062   0.00000  Uiso   1.00
O911   O     0.35112   0.39034   0.83189   0.00000  Uiso   1.00
O912   O     0.59802   0.38163   0.89936   0.00000  Uiso   1.00
O913   O     0.62532   0.46602   0.85248   0.00000  Uiso   1.00
H914   H     0.64665   0.49939   0.86293   0.00000  Uiso   1.00
S915   S     0.60403   0.35066   0.70475   0.00000  Uiso   1.00
O916   O     0.60087   0.39438   0.67696   0.00000  Uiso   1.00
O917   O     0.64826   0.37058   0.73268   0.00000  Uiso   1.00
O918   O     0.62917   0.63810   0.67074   0.00000  Uiso   1.00
H919   H     0.60109   0.63104   0.65087   0.00000  Uiso   1.00
S920   S     0.43823   0.65226   0.69946   0.00000  Uiso   1.00
O921   O     0.42949   0.36153   0.67301   0.00000  Uiso   1.00
O922   O     0.47295   0.61692   0.66826   0.00000  Uiso   1.00
O923   O     0.36757   0.61798   0.72844   0.00000  Uiso   1.00
H924   H     0.36146   0.63137   0.75882   0.00000  Uiso   1.00
C925   C     0.84960   0.60019   0.74842   0.00000  Uiso   1.00
C926   C     0.81957   0.40019   0.74655   0.00000  Uiso   1.00
C927   C     0.76859   0.43847   0.53634   0.00000  Uiso   1.00
C928   C     0.90523   0.52183   0.95695   0.00000  Uiso   1.00
C929   C     0.72482   0.42573   0.51178   0.00000  Uiso   1.00
C930   C     0.94964   0.53190   0.98079   0.00000  Uiso   1.00
C931   C     0.86241   0.65641   0.73939   0.00000  Uiso   1.00
C932   C     0.81547   0.34504   0.73703   0.00000  Uiso   1.00
C933   C     0.79368   0.49323   0.83322   0.00000  Uiso   1.00
C934   C     0.87261   0.50155   0.66629   0.00000  Uiso   1.00
C935   C     0.76807   0.48104   0.88120   0.00000  Uiso   1.00
C936   C     0.89779   0.50054   0.61695   0.00000  Uiso   1.00
C937   C     0.69439   0.43151   0.94474   0.00000  Uiso   1.00
C938   C     0.97819   0.52847   0.54816   0.00000  Uiso   1.00
C939   C     0.70879   0.44702   0.90049   0.00000  Uiso   1.00
C940   C     0.96253   0.51791   0.59330   0.00000  Uiso   1.00
C941   C     0.80952   0.49906   0.90742   0.00000  Uiso   1.00
C942   C     0.85392   0.48307   0.59206   0.00000  Uiso   1.00
C943   C     0.79763   0.48005   0.95066   0.00000  Uiso   1.00
C944   C     0.87079   0.48983   0.54570   0.00000  Uiso   1.00
C945   C     0.73857   0.44627   0.96930   0.00000  Uiso   1.00
C946   C     0.93279   0.51689   0.52490   0.00000  Uiso   1.00
C947   C     0.84327   0.49252   0.97542   0.00000  Uiso   1.00
C948   C     0.82719   0.47353   0.51971   0.00000  Uiso   1.00
Cu949  Cu    0.77404   0.49441   0.74517   0.00000  Uiso   1.00
Cu950  Cu    0.89263   0.50559   0.75484   0.00000  Uiso   1.00
H951   H     0.68013   0.39891   0.52597   0.00000  Uiso   1.00
H952   H     0.99729   0.55293   0.96478   0.00000  Uiso   1.00
H953   H     0.80597   0.46616   0.60970   0.00000  Uiso   1.00
H954   H     0.85205   0.52724   0.89246   0.00000  Uiso   1.00
H955   H     0.98271   0.40565   0.95981   0.00000  Uiso   1.00
H956   H     0.69336   0.54520   0.53043   0.00000  Uiso   1.00
H957   H     0.75614   0.41932   0.56806   0.00000  Uiso   1.00
H958   H     0.92203   0.53658   0.92366   0.00000  Uiso   1.00
H959   H     0.66667   0.53603   0.78531   0.00000  Uiso   1.00
H960   H     0.66716   0.46528   0.71411   0.00000  Uiso   1.00
N961   N     0.98173   0.51401   0.76212   0.00000  Uiso   1.00
N962   N     0.68494   0.48599   0.73788   0.00000  Uiso   1.00
O963   O     0.79482   0.57142   0.74686   0.00000  Uiso   1.00
O964   O     0.87185   0.42858   0.75314   0.00000  Uiso   1.00
O965   O     0.89496   0.58086   0.75503   0.00000  Uiso   1.00
O966   O     0.77171   0.41914   0.74498   0.00000  Uiso   1.00
O967   O     0.75518   0.49263   0.80855   0.00000  Uiso   1.00
O968   O     0.91149   0.50737   0.69146   0.00000  Uiso   1.00
O969   O     0.85532   0.50207   0.81671   0.00000  Uiso   1.00
O970   O     0.81134   0.49793   0.68329   0.00000  Uiso   1.00
S971   S     0.69369   0.52131   0.61546   0.00000  Uiso   1.00
O972   O     0.69192   0.46834   0.63205   0.00000  Uiso   1.00
O973   O     0.75515   0.53978   0.58111   0.00000  Uiso   1.00
O974   O     0.69143   0.56324   0.65636   0.00000  Uiso   1.00
H975   H     0.71207   0.59683   0.64040   0.00000  Uiso   1.00
S976   S     0.98645   0.41931   0.87062   0.00000  Uiso   1.00
O977   O     0.68445   0.39034   0.83189   0.00000  Uiso   1.00
O978   O     0.93136   0.38163   0.89936   0.00000  Uiso   1.00
O979   O     0.95865   0.46602   0.85248   0.00000  Uiso   1.00
H980   H     0.97998   0.49939   0.86293   0.00000  Uiso   1.00
S981   S     0.93737   0.35066   0.70475   0.00000  Uiso   1.00
O982   O     0.93420   0.39438   0.67696   0.00000  Uiso   1.00
O983   O     0.98159   0.37058   0.73268   0.00000  Uiso   1.00
O984   O     0.96250   0.63810   0.67074   0.00000  Uiso   1.00
H985   H     0.93443   0.63104   0.65087   0.00000  Uiso   1.00
S986   S     0.77157   0.65226   0.69946   0.00000  Uiso   1.00
O987   O     0.76282   0.36153   0.67301   0.00000  Uiso   1.00
O988   O     0.80629   0.61692   0.66826   0.00000  Uiso   1.00
O989   O     0.70090   0.61798   0.72844   0.00000  Uiso   1.00
H990   H     0.69479   0.63137   0.75882   0.00000  Uiso   1.00
C991   C     0.18293   0.93353   0.74842   0.00000  Uiso   1.00
C992   C     0.15290   0.73353   0.74655   0.00000  Uiso   1.00
C993   C     0.10192   0.77180   0.53634   0.00000  Uiso   1.00
C994   C     0.23857   0.85516   0.95695   0.00000  Uiso   1.00
C995   C     0.05816   0.75906   0.51178   0.00000  Uiso   1.00
C996   C     0.28297   0.86523   0.98079   0.00000  Uiso   1.00
C997   C     0.19574   0.98974   0.73939   0.00000  Uiso   1.00
C998   C     0.14880   0.67837   0.73703   0.00000  Uiso   1.00
C999   C     0.12701   0.82657   0.83322   0.00000  Uiso   1.00
C1000  C     0.20594   0.83488   0.66629   0.00000  Uiso   1.00
C1001  C     0.10141   0.81438   0.88120   0.00000  Uiso   1.00
C1002  C     0.23112   0.83387   0.61695   0.00000  Uiso   1.00
C1003  C     0.02772   0.76485   0.94474   0.00000  Uiso   1.00
C1004  C     0.31152   0.86181   0.54816   0.00000  Uiso   1.00
C1005  C     0.04213   0.78035   0.90049   0.00000  Uiso   1.00
C1006  C     0.29586   0.85124   0.59330   0.00000  Uiso   1.00
C1007  C     0.14286   0.83239   0.90742   0.00000  Uiso   1.00
C1008  C     0.18726   0.81640   0.59206   0.00000  Uiso   1.00
C1009  C     0.13097   0.81339   0.95066   0.00000  Uiso   1.00
C1010  C     0.20412   0.82317   0.54570   0.00000  Uiso   1.00
C1011  C     0.07191   0.77961   0.96930   0.00000  Uiso   1.00
C1012  C     0.26612   0.85023   0.52490   0.00000  Uiso   1.00
C1013  C     0.17661   0.82586   0.97542   0.00000  Uiso   1.00
C1014  C     0.16052   0.80686   0.51971   0.00000  Uiso   1.00
Cu1015 Cu    0.10737   0.82775   0.74517   0.00000  Uiso   1.00
Cu1016 Cu    0.22596   0.83892   0.75484   0.00000  Uiso   1.00
H1017  H     0.01346   0.73225   0.52597   0.00000  Uiso   1.00
H1018  H     0.33063   0.88626   0.96478   0.00000  Uiso   1.00
H1019  H     0.13930   0.79950   0.60970   0.00000  Uiso   1.00
H1020  H     0.18538   0.86057   0.89246   0.00000  Uiso   1.00
H1021  H     0.31605   0.73898   0.95981   0.00000  Uiso   1.00
H1022  H     0.02669   0.87853   0.53043   0.00000  Uiso   1.00
H1023  H     0.08947   0.75265   0.56806   0.00000  Uiso   1.00
H1024  H     0.25536   0.86991   0.92366   0.00000  Uiso   1.00
H1025  H     0.00001   0.86936   0.78531   0.00000  Uiso   1.00
H1026  H     0.00049   0.79861   0.71411   0.00000  Uiso   1.00
N1027  N     0.31506   0.84735   0.76212   0.00000  Uiso   1.00
N1028  N     0.01827   0.81932   0.73788   0.00000  Uiso   1.00
O1029  O     0.12815   0.90476   0.74686   0.00000  Uiso   1.00
O1030  O     0.20518   0.76191   0.75314   0.00000  Uiso   1.00
O1031  O     0.22829   0.91420   0.75503   0.00000  Uiso   1.00
O1032  O     0.10504   0.75247   0.74498   0.00000  Uiso   1.00
O1033  O     0.08851   0.82597   0.80855   0.00000  Uiso   1.00
O1034  O     0.24482   0.84070   0.69146   0.00000  Uiso   1.00
O1035  O     0.18866   0.83540   0.81671   0.00000  Uiso   1.00
O1036  O     0.14468   0.83126   0.68329   0.00000  Uiso   1.00
S1037  S     0.02703   0.85464   0.61546   0.00000  Uiso   1.00
O1038  O     0.02525   0.80167   0.63205   0.00000  Uiso   1.00
O1039  O     0.08848   0.87312   0.58111   0.00000  Uiso   1.00
O1040  O     0.02477   0.89657   0.65636   0.00000  Uiso   1.00
H1041  H     0.04541   0.93016   0.64040   0.00000  Uiso   1.00
S1042  S     0.31978   0.75265   0.87062   0.00000  Uiso   1.00
O1043  O     0.01779   0.72367   0.83189   0.00000  Uiso   1.00
O1044  O     0.26469   0.71497   0.89936   0.00000  Uiso   1.00
O1045  O     0.29198   0.79935   0.85248   0.00000  Uiso   1.00
H1046  H     0.31332   0.83272   0.86293   0.00000  Uiso   1.00
S1047  S     0.27070   0.68400   0.70475   0.00000  Uiso   1.00
O1048  O     0.26754   0.72771   0.67696   0.00000  Uiso   1.00
O1049  O     0.31493   0.70391   0.73268   0.00000  Uiso   1.00
O1050  O     0.29584   0.97144   0.67074   0.00000  Uiso   1.00
H1051  H     0.26776   0.96437   0.65087   0.00000  Uiso   1.00
S1052  S     0.10490   0.98559   0.69946   0.00000  Uiso   1.00
O1053  O     0.09615   0.69487   0.67301   0.00000  Uiso   1.00
O1054  O     0.13962   0.95025   0.66826   0.00000  Uiso   1.00
O1055  O     0.03424   0.95131   0.72844   0.00000  Uiso   1.00
H1056  H     0.02813   0.96471   0.75882   0.00000  Uiso   1.00
C1057  C     0.51627   0.93353   0.74842   0.00000  Uiso   1.00
C1058  C     0.48624   0.73353   0.74655   0.00000  Uiso   1.00
C1059  C     0.43525   0.77180   0.53634   0.00000  Uiso   1.00
C1060  C     0.57190   0.85516   0.95695   0.00000  Uiso   1.00
C1061  C     0.39149   0.75906   0.51178   0.00000  Uiso   1.00
C1062  C     0.61630   0.86523   0.98079   0.00000  Uiso   1.00
C1063  C     0.52908   0.98974   0.73939   0.00000  Uiso   1.00
C1064  C     0.48213   0.67837   0.73703   0.00000  Uiso   1.00
C1065  C     0.46034   0.82657   0.83322   0.00000  Uiso   1.00
C1066  C     0.53927   0.83488   0.66629   0.00000  Uiso   1.00
C1067  C     0.43474   0.81438   0.88120   0.00000  Uiso   1.00
C1068  C     0.56445   0.83387   0.61695   0.00000  Uiso   1.00
C1069  C     0.36106   0.76485   0.94474   0.00000  Uiso   1.00
C1070  C     0.64485   0.86181   0.54816   0.00000  Uiso   1.00
C1071  C     0.37546   0.78035   0.90049   0.00000  Uiso   1.00
C1072  C     0.62919   0.85124   0.59330   0.00000  Uiso   1.00
C1073  C     0.47619   0.83239   0.90742   0.00000  Uiso   1.00
C1074  C     0.52059   0.81640   0.59206   0.00000  Uiso   1.00
C1075  C     0.46430   0.81339   0.95066   0.00000  Uiso   1.00
C1076  C     0.53745   0.82317   0.54570   0.00000  Uiso   1.00
C1077  C     0.40524   0.77961   0.96930   0.00000  Uiso   1.00
C1078  C     0.59945   0.85023   0.52490   0.00000  Uiso   1.00
C1079  C     0.50994   0.82586   0.97542   0.00000  Uiso   1.00
C1080  C     0.49385   0.80686   0.51971   0.00000  Uiso   1.00
Cu1081 Cu    0.44071   0.82775   0.74517   0.00000  Uiso   1.00
Cu1082 Cu    0.55929   0.83892   0.75484   0.00000  Uiso   1.00
H1083  H     0.34680   0.73225   0.52597   0.00000  Uiso   1.00
H1084  H     0.66396   0.88626   0.96478   0.00000  Uiso   1.00
H1085  H     0.47263   0.79950   0.60970   0.00000  Uiso   1.00
H1086  H     0.51871   0.86057   0.89246   0.00000  Uiso   1.00
H1087  H     0.64938   0.73898   0.95981   0.00000  Uiso   1.00
H1088  H     0.36002   0.87853   0.53043   0.00000  Uiso   1.00
H1089  H     0.42281   0.75265   0.56806   0.00000  Uiso   1.00
H1090  H     0.58870   0.86991   0.92366   0.00000  Uiso   1.00
H1091  H     0.33334   0.86936   0.78531   0.00000  Uiso   1.00
H1092  H     0.33382   0.79861   0.71411   0.00000  Uiso   1.00
N1093  N     0.64839   0.84735   0.76212   0.00000  Uiso   1.00
N1094  N     0.35161   0.81932   0.73788   0.00000  Uiso   1.00
O1095  O     0.46148   0.90476   0.74686   0.00000  Uiso   1.00
O1096  O     0.53852   0.76191   0.75314   0.00000  Uiso   1.00
O1097  O     0.56163   0.91420   0.75503   0.00000  Uiso   1.00
O1098  O     0.43837   0.75247   0.74498   0.00000  Uiso   1.00
O1099  O     0.42185   0.82597   0.80855   0.00000  Uiso   1.00
O1100  O     0.57815   0.84070   0.69146   0.00000  Uiso   1.00
O1101  O     0.52199   0.83540   0.81671   0.00000  Uiso   1.00
O1102  O     0.47801   0.83126   0.68329   0.00000  Uiso   1.00
S1103  S     0.36036   0.85464   0.61546   0.00000  Uiso   1.00
O1104  O     0.35859   0.80167   0.63205   0.00000  Uiso   1.00
O1105  O     0.42182   0.87312   0.58111   0.00000  Uiso   1.00
O1106  O     0.35810   0.89657   0.65636   0.00000  Uiso   1.00
H1107  H     0.37874   0.93016   0.64040   0.00000  Uiso   1.00
S1108  S     0.65312   0.75265   0.87062   0.00000  Uiso   1.00
O1109  O     0.35112   0.72367   0.83189   0.00000  Uiso   1.00
O1110  O     0.59802   0.71497   0.89936   0.00000  Uiso   1.00
O1111  O     0.62532   0.79935   0.85248   0.00000  Uiso   1.00
H1112  H     0.64665   0.83272   0.86293   0.00000  Uiso   1.00
S1113  S     0.60403   0.68400   0.70475   0.00000  Uiso   1.00
O1114  O     0.60087   0.72771   0.67696   0.00000  Uiso   1.00
O1115  O     0.64826   0.70391   0.73268   0.00000  Uiso   1.00
O1116  O     0.62917   0.97144   0.67074   0.00000  Uiso   1.00
H1117  H     0.60109   0.96437   0.65087   0.00000  Uiso   1.00
S1118  S     0.43823   0.98559   0.69946   0.00000  Uiso   1.00
O1119  O     0.42949   0.69487   0.67301   0.00000  Uiso   1.00
O1120  O     0.47295   0.95025   0.66826   0.00000  Uiso   1.00
O1121  O     0.36757   0.95131   0.72844   0.00000  Uiso   1.00
H1122  H     0.36146   0.96471   0.75882   0.00000  Uiso   1.00
C1123  C     0.84960   0.93353   0.74842   0.00000  Uiso   1.00
C1124  C     0.81957   0.73353   0.74655   0.00000  Uiso   1.00
C1125  C     0.76859   0.77180   0.53634   0.00000  Uiso   1.00
C1126  C     0.90523   0.85516   0.95695   0.00000  Uiso   1.00
C1127  C     0.72482   0.75906   0.51178   0.00000  Uiso   1.00
C1128  C     0.94964   0.86523   0.98079   0.00000  Uiso   1.00
C1129  C     0.86241   0.98974   0.73939   0.00000  Uiso   1.00
C1130  C     0.81547   0.67837   0.73703   0.00000  Uiso   1.00
C1131  C     0.79368   0.82657   0.83322   0.00000  Uiso   1.00
C1132  C     0.87261   0.83488   0.66629   0.00000  Uiso   1.00
C1133  C     0.76807   0.81438   0.88120   0.00000  Uiso   1.00
C1134  C     0.89779   0.83387   0.61695   0.00000  Uiso   1.00
C1135  C     0.69439   0.76485   0.94474   0.00000  Uiso   1.00
C1136  C     0.97819   0.86181   0.54816   0.00000  Uiso   1.00
C1137  C     0.70879   0.78035   0.90049   0.00000  Uiso   1.00
C1138  C     0.96253   0.85124   0.59330   0.00000  Uiso   1.00
C1139  C     0.80952   0.83239   0.90742   0.00000  Uiso   1.00
C1140  C     0.85392   0.81640   0.59206   0.00000  Uiso   1.00
C1141  C     0.79763   0.81339   0.95066   0.00000  Uiso   1.00
C1142  C     0.87079   0.82317   0.54570   0.00000  Uiso   1.00
C1143  C     0.73857   0.77961   0.96930   0.00000  Uiso   1.00
C1144  C     0.93279   0.85023   0.52490   0.00000  Uiso   1.00
C1145  C     0.84327   0.82586   0.97542   0.00000  Uiso   1.00
C1146  C     0.82719   0.80686   0.51971   0.00000  Uiso   1.00
Cu1147 Cu    0.77404   0.82775   0.74517   0.00000  Uiso   1.00
Cu1148 Cu    0.89263   0.83892   0.75484   0.00000  Uiso   1.00
H1149  H     0.68013   0.73225   0.52597   0.00000  Uiso   1.00
H1150  H     0.99729   0.88626   0.96478   0.00000  Uiso   1.00
H1151  H     0.80597   0.79950   0.60970   0.00000  Uiso   1.00
H1152  H     0.85205   0.86057   0.89246   0.00000  Uiso   1.00
H1153  H     0.98271   0.73898   0.95981   0.00000  Uiso   1.00
H1154  H     0.69336   0.87853   0.53043   0.00000  Uiso   1.00
H1155  H     0.75614   0.75265   0.56806   0.00000  Uiso   1.00
H1156  H     0.92203   0.86991   0.92366   0.00000  Uiso   1.00
H1157  H     0.66667   0.86936   0.78531   0.00000  Uiso   1.00
H1158  H     0.66716   0.79861   0.71411   0.00000  Uiso   1.00
N1159  N     0.98173   0.84735   0.76212   0.00000  Uiso   1.00
N1160  N     0.68494   0.81932   0.73788   0.00000  Uiso   1.00
O1161  O     0.79482   0.90476   0.74686   0.00000  Uiso   1.00
O1162  O     0.87185   0.76191   0.75314   0.00000  Uiso   1.00
O1163  O     0.89496   0.91420   0.75503   0.00000  Uiso   1.00
O1164  O     0.77171   0.75247   0.74498   0.00000  Uiso   1.00
O1165  O     0.75518   0.82597   0.80855   0.00000  Uiso   1.00
O1166  O     0.91149   0.84070   0.69146   0.00000  Uiso   1.00
O1167  O     0.85532   0.83540   0.81671   0.00000  Uiso   1.00
O1168  O     0.81134   0.83126   0.68329   0.00000  Uiso   1.00
S1169  S     0.69369   0.85464   0.61546   0.00000  Uiso   1.00
O1170  O     0.69192   0.80167   0.63205   0.00000  Uiso   1.00
O1171  O     0.75515   0.87312   0.58111   0.00000  Uiso   1.00
O1172  O     0.69143   0.89657   0.65636   0.00000  Uiso   1.00
H1173  H     0.71207   0.93016   0.64040   0.00000  Uiso   1.00
S1174  S     0.98645   0.75265   0.87062   0.00000  Uiso   1.00
O1175  O     0.68445   0.72367   0.83189   0.00000  Uiso   1.00
O1176  O     0.93136   0.71497   0.89936   0.00000  Uiso   1.00
O1177  O     0.95865   0.79935   0.85248   0.00000  Uiso   1.00
H1178  H     0.97998   0.83272   0.86293   0.00000  Uiso   1.00
S1179  S     0.93737   0.68400   0.70475   0.00000  Uiso   1.00
O1180  O     0.93420   0.72771   0.67696   0.00000  Uiso   1.00
O1181  O     0.98159   0.70391   0.73268   0.00000  Uiso   1.00
O1182  O     0.96250   0.97144   0.67074   0.00000  Uiso   1.00
H1183  H     0.93443   0.96437   0.65087   0.00000  Uiso   1.00
S1184  S     0.77157   0.98559   0.69946   0.00000  Uiso   1.00
O1185  O     0.76282   0.69487   0.67301   0.00000  Uiso   1.00
O1186  O     0.80629   0.95025   0.66826   0.00000  Uiso   1.00
O1187  O     0.70090   0.95131   0.72844   0.00000  Uiso   1.00
H1188  H     0.69479   0.96471   0.75882   0.00000  Uiso   1.00
loop_
_geom_bond_atom_site_label_1
_geom_bond_atom_site_label_2
_geom_bond_distance
_geom_bond_site_symmetry_2
_ccdc_geom_bond_type
C1     C7      1.465   .     S
C1     O41     1.305   .     A
C1     O39     1.307   .     A
C2     O42     1.298   .     A
C2     O40     1.308   .     A
C2     C8      1.453   .     S
C3     C24     1.410   .     A
C3     H33     1.079   .     S
C3     C5      1.389   .     A
C4     H34     1.073   .     S
C4     C6      1.382   .     A
C4     C23     1.413   .     A
C5     H27     1.084   .     S
C5     C615    1.396   1_554 S
C6     H28     1.085   .     S
C6     C616    1.390   .     S
C7     C206    1.333   .     S
C7     S255    1.758   .     S
C8     C403    1.333   1_545 S
C8     S458    1.765   1_545 S
C9     O45     1.314   .     A
C9     C11     1.488   .     S
C9     O43     1.311   .     A
C10    O46     1.321   .     A
C10    C12     1.506   .     S
C10    O44     1.315   .     A
C11    C17     1.403   .     A
C11    C15     1.423   .     A
C12    C18     1.411   .     A
C12    C16     1.425   .     A
C13    C21     1.400   .     A
C13    C15     1.403   .     A
C13    H163    1.083   1_455 S
C14    C16     1.396   .     A
C14    C22     1.388   .     A
C14    H98     1.083   .     S
C15    S184    1.779   1_455 S
C16    S113    1.760   .     S
C17    H30     1.075   .     S
C17    C19     1.409   .     A
C18    H29     1.074   .     S
C18    C20     1.417   .     A
C19    C23     1.428   .     A
C19    C21     1.413   .     A
C20    C22     1.409   .     A
C20    C24     1.428   .     A
C21    C599    1.396   .     S
C22    C600    1.390   1_554 S
C23    C618    1.428   .     S
C24    C617    1.428   1_554 S
Cu25   O42     1.965   .     S
Cu25   N38     2.044   .     S
Cu25   O43     1.929   .     S
Cu25   O39     1.972   .     S
Cu25   Cu26    2.720   .     S
Cu25   O46     1.901   .     S
Cu26   N37     2.044   .     S
Cu26   O45     1.901   .     S
Cu26   O40     1.972   .     S
Cu26   O44     1.929   .     S
Cu26   O41     1.965   .     S
H31    C79     1.083   .     S
H32    C146    1.083   1_455 S
H35    N169    1.029   1_455 S
H36    N38     1.023   .     S
N37    H101    1.029   .     S
N37    N104    1.296   .     S
N38    N169    1.296   1_455 S
S47    O48     1.496   .     D
S47    O49     1.502   .     D
S47    O50     1.655   .     S
S47    C148    1.760   1_455 S
O50    H51     0.988   .     S
S52    O55     1.681   .     S
S52    O54     1.503   .     D
S52    C81     1.779   .     S
S52    O119    1.502   .     S
O53    S184    1.502   1_455 S
O55    H56     0.989   .     S
S57    O58     1.501   .     D
S57    O59     1.499   .     D
S57    C403    1.758   1_545 S
S57    O456    1.667   1_545 S
O60    H61     0.990   .     S
O60    S255    1.667   .     S
S62    O64     1.504   .     D
S62    O65     1.679   .     S
S62    C206    1.765   .     S
S62    O261    1.504   .     S
O63    S458    1.504   1_545 S
O65    H66     0.990   .     S
C67    C73     1.465   .     S
C67    O107    1.305   .     A
C67    O105    1.307   .     A
C68    O108    1.298   .     A
C68    O106    1.308   .     A
C68    C74     1.453   .     S
C69    C90     1.410   .     A
C69    H99     1.079   .     S
C69    C71     1.389   .     A
C70    H100    1.073   .     S
C70    C72     1.382   .     A
C70    C89     1.413   .     A
C71    H93     1.084   .     S
C71    C681    1.396   1_554 S
C72    H94     1.085   .     S
C72    C682    1.390   .     S
C73    C272    1.333   .     S
C73    S321    1.758   .     S
C74    C469    1.333   1_545 S
C74    S524    1.765   1_545 S
C75    O111    1.314   .     A
C75    C77     1.488   .     S
C75    O109    1.311   .     A
C76    O112    1.321   .     A
C76    C78     1.506   .     S
C76    O110    1.315   .     A
C77    C83     1.403   .     A
C77    C81     1.423   .     A
C78    C84     1.411   .     A
C78    C82     1.425   .     A
C79    C87     1.400   .     A
C79    C81     1.403   .     A
C80    C82     1.396   .     A
C80    C88     1.388   .     A
C80    H164    1.083   .     S
C82    S179    1.760   .     S
C83    H96     1.075   .     S
C83    C85     1.409   .     A
C84    H95     1.074   .     S
C84    C86     1.417   .     A
C85    C89     1.428   .     A
C85    C87     1.413   .     A
C86    C88     1.409   .     A
C86    C90     1.428   .     A
C87    C665    1.396   .     S
C88    C666    1.390   1_554 S
C89    C684    1.428   .     S
C90    C683    1.428   1_554 S
Cu91   O108    1.965   .     S
Cu91   N104    2.044   .     S
Cu91   O109    1.929   .     S
Cu91   O105    1.972   .     S
Cu91   Cu92    2.720   .     S
Cu91   O112    1.901   .     S
Cu92   N103    2.044   .     S
Cu92   O111    1.901   .     S
Cu92   O106    1.972   .     S
Cu92   O110    1.929   .     S
Cu92   O107    1.965   .     S
H97    C145    1.083   .     S
H102   N104    1.023   .     S
N103   H167    1.029   .     S
N103   N170    1.296   .     S
S113   O114    1.496   .     D
S113   O115    1.502   .     D
S113   O116    1.655   .     S
O116   H117    0.988   .     S
S118   O121    1.681   .     S
S118   O120    1.503   .     D
S118   C147    1.779   .     S
S118   O185    1.502   .     S
O121   H122    0.989   .     S
S123   O124    1.501   .     D
S123   O125    1.499   .     D
S123   C469    1.758   1_545 S
S123   O522    1.667   1_545 S
O126   H127    0.990   .     S
O126   S321    1.667   .     S
S128   O130    1.504   .     D
S128   O131    1.679   .     S
S128   C272    1.765   .     S
S128   O327    1.504   .     S
O129   S524    1.504   1_545 S
O131   H132    0.990   .     S
C133   C139    1.465   .     S
C133   O173    1.305   .     A
C133   O171    1.307   .     A
C134   O174    1.298   .     A
C134   O172    1.308   .     A
C134   C140    1.453   .     S
C135   C156    1.410   .     A
C135   H165    1.079   .     S
C135   C137    1.389   .     A
C136   H166    1.073   .     S
C136   C138    1.382   .     A
C136   C155    1.413   .     A
C137   H159    1.084   .     S
C137   C747    1.396   1_554 S
C138   H160    1.085   .     S
C138   C748    1.390   .     S
C139   C338    1.333   .     S
C139   S387    1.758   .     S
C140   C535    1.333   1_545 S
C140   S590    1.765   1_545 S
C141   O177    1.314   .     A
C141   C143    1.488   .     S
C141   O175    1.311   .     A
C142   O178    1.321   .     A
C142   C144    1.506   .     S
C142   O176    1.315   .     A
C143   C149    1.403   .     A
C143   C147    1.423   .     A
C144   C150    1.411   .     A
C144   C148    1.425   .     A
C145   C153    1.400   .     A
C145   C147    1.403   .     A
C146   C148    1.396   .     A
C146   C154    1.388   .     A
C146   H32     1.083   1_655 S
C148   S47     1.760   1_655 S
C149   H162    1.075   .     S
C149   C151    1.409   .     A
C150   H161    1.074   .     S
C150   C152    1.417   .     A
C151   C155    1.428   .     A
C151   C153    1.413   .     A
C152   C154    1.409   .     A
C152   C156    1.428   .     A
C153   C731    1.396   .     S
C154   C732    1.390   1_554 S
C155   C750    1.428   .     S
C156   C749    1.428   1_554 S
Cu157  O174    1.965   .     S
Cu157  N170    2.044   .     S
Cu157  O175    1.929   .     S
Cu157  O171    1.972   .     S
Cu157  Cu158   2.720   .     S
Cu157  O178    1.901   .     S
Cu158  N169    2.044   .     S
Cu158  O177    1.901   .     S
Cu158  O172    1.972   .     S
Cu158  O176    1.929   .     S
Cu158  O173    1.965   .     S
H163   C13     1.083   1_655 S
H168   N170    1.023   .     S
N169   H35     1.029   1_655 S
N169   N38     1.296   1_655 S
S179   O180    1.496   .     D
S179   O181    1.502   .     D
S179   O182    1.655   .     S
O182   H183    0.988   .     S
S184   O187    1.681   .     S
S184   O186    1.503   .     D
S184   C15     1.779   1_655 S
S184   O53     1.502   1_655 S
O187   H188    0.989   .     S
S189   O190    1.501   .     D
S189   O191    1.499   .     D
S189   C535    1.758   1_545 S
S189   O588    1.667   1_545 S
O192   H193    0.990   .     S
O192   S387    1.667   .     S
S194   O196    1.504   .     D
S194   O197    1.679   .     S
S194   C338    1.765   .     S
S194   O393    1.504   .     S
O195   S590    1.504   1_545 S
O197   H198    0.990   .     S
C199   C205    1.465   .     S
C199   O239    1.305   .     A
C199   O237    1.307   .     A
C200   O240    1.298   .     A
C200   O238    1.308   .     A
C200   C206    1.453   .     S
C201   C222    1.410   .     A
C201   H231    1.079   .     S
C201   C203    1.389   .     A
C202   H232    1.073   .     S
C202   C204    1.382   .     A
C202   C221    1.413   .     A
C203   H225    1.084   .     S
C203   C813    1.396   1_554 S
C204   H226    1.085   .     S
C204   C814    1.390   .     S
C205   C404    1.333   .     S
C205   S453    1.758   .     S
C207   O243    1.314   .     A
C207   C209    1.488   .     S
C207   O241    1.311   .     A
C208   O244    1.321   .     A
C208   C210    1.506   .     S
C208   O242    1.315   .     A
C209   C215    1.403   .     A
C209   C213    1.423   .     A
C210   C216    1.411   .     A
C210   C214    1.425   .     A
C211   C219    1.400   .     A
C211   C213    1.403   .     A
C211   H361    1.083   1_455 S
C212   C214    1.396   .     A
C212   C220    1.388   .     A
C212   H296    1.083   .     S
C213   S382    1.779   1_455 S
C214   S311    1.760   .     S
C215   H228    1.075   .     S
C215   C217    1.409   .     A
C216   H227    1.074   .     S
C216   C218    1.417   .     A
C217   C221    1.428   .     A
C217   C219    1.413   .     A
C218   C220    1.409   .     A
C218   C222    1.428   .     A
C219   C797    1.396   .     S
C220   C798    1.390   1_554 S
C221   C816    1.428   .     S
C222   C815    1.428   1_554 S
Cu223  O240    1.965   .     S
Cu223  N236    2.044   .     S
Cu223  O241    1.929   .     S
Cu223  O237    1.972   .     S
Cu223  Cu224   2.720   .     S
Cu223  O244    1.901   .     S
Cu224  N235    2.044   .     S
Cu224  O243    1.901   .     S
Cu224  O238    1.972   .     S
Cu224  O242    1.929   .     S
Cu224  O239    1.965   .     S
H229   C277    1.083   .     S
H230   C344    1.083   1_455 S
H233   N367    1.029   1_455 S
H234   N236    1.023   .     S
N235   H299    1.029   .     S
N235   N302    1.296   .     S
N236   N367    1.296   1_455 S
S245   O246    1.496   .     D
S245   O247    1.502   .     D
S245   O248    1.655   .     S
S245   C346    1.760   1_455 S
O248   H249    0.988   .     S
S250   O253    1.681   .     S
S250   O252    1.503   .     D
S250   C279    1.779   .     S
S250   O317    1.502   .     S
O251   S382    1.502   1_455 S
O253   H254    0.989   .     S
S255   O256    1.501   .     D
S255   O257    1.499   .     D
O258   H259    0.990   .     S
O258   S453    1.667   .     S
S260   O262    1.504   .     D
S260   O263    1.679   .     S
S260   C404    1.765   .     S
S260   O459    1.504   .     S
O263   H264    0.990   .     S
C265   C271    1.465   .     S
C265   O305    1.305   .     A
C265   O303    1.307   .     A
C266   O306    1.298   .     A
C266   O304    1.308   .     A
C266   C272    1.453   .     S
C267   C288    1.410   .     A
C267   H297    1.079   .     S
C267   C269    1.389   .     A
C268   H298    1.073   .     S
C268   C270    1.382   .     A
C268   C287    1.413   .     A
C269   H291    1.084   .     S
C269   C879    1.396   1_554 S
C270   H292    1.085   .     S
C270   C880    1.390   .     S
C271   C470    1.333   .     S
C271   S519    1.758   .     S
C273   O309    1.314   .     A
C273   C275    1.488   .     S
C273   O307    1.311   .     A
C274   O310    1.321   .     A
C274   C276    1.506   .     S
C274   O308    1.315   .     A
C275   C281    1.403   .     A
C275   C279    1.423   .     A
C276   C282    1.411   .     A
C276   C280    1.425   .     A
C277   C285    1.400   .     A
C277   C279    1.403   .     A
C278   C280    1.396   .     A
C278   C286    1.388   .     A
C278   H362    1.083   .     S
C280   S377    1.760   .     S
C281   H294    1.075   .     S
C281   C283    1.409   .     A
C282   H293    1.074   .     S
C282   C284    1.417   .     A
C283   C287    1.428   .     A
C283   C285    1.413   .     A
C284   C286    1.409   .     A
C284   C288    1.428   .     A
C285   C863    1.396   .     S
C286   C864    1.390   1_554 S
C287   C882    1.428   .     S
C288   C881    1.428   1_554 S
Cu289  O306    1.965   .     S
Cu289  N302    2.044   .     S
Cu289  O307    1.929   .     S
Cu289  O303    1.972   .     S
Cu289  Cu290   2.720   .     S
Cu289  O310    1.901   .     S
Cu290  N301    2.044   .     S
Cu290  O309    1.901   .     S
Cu290  O304    1.972   .     S
Cu290  O308    1.929   .     S
Cu290  O305    1.965   .     S
H295   C343    1.083   .     S
H300   N302    1.023   .     S
N301   H365    1.029   .     S
N301   N368    1.296   .     S
S311   O312    1.496   .     D
S311   O313    1.502   .     D
S311   O314    1.655   .     S
O314   H315    0.988   .     S
S316   O319    1.681   .     S
S316   O318    1.503   .     D
S316   C345    1.779   .     S
S316   O383    1.502   .     S
O319   H320    0.989   .     S
S321   O322    1.501   .     D
S321   O323    1.499   .     D
O324   H325    0.990   .     S
O324   S519    1.667   .     S
S326   O328    1.504   .     D
S326   O329    1.679   .     S
S326   C470    1.765   .     S
S326   O525    1.504   .     S
O329   H330    0.990   .     S
C331   C337    1.465   .     S
C331   O371    1.305   .     A
C331   O369    1.307   .     A
C332   O372    1.298   .     A
C332   O370    1.308   .     A
C332   C338    1.453   .     S
C333   C354    1.410   .     A
C333   H363    1.079   .     S
C333   C335    1.389   .     A
C334   H364    1.073   .     S
C334   C336    1.382   .     A
C334   C353    1.413   .     A
C335   H357    1.084   .     S
C335   C945    1.396   1_554 S
C336   H358    1.085   .     S
C336   C946    1.390   .     S
C337   C536    1.333   .     S
C337   S585    1.758   .     S
C339   O375    1.314   .     A
C339   C341    1.488   .     S
C339   O373    1.311   .     A
C340   O376    1.321   .     A
C340   C342    1.506   .     S
C340   O374    1.315   .     A
C341   C347    1.403   .     A
C341   C345    1.423   .     A
C342   C348    1.411   .     A
C342   C346    1.425   .     A
C343   C351    1.400   .     A
C343   C345    1.403   .     A
C344   C346    1.396   .     A
C344   C352    1.388   .     A
C344   H230    1.083   1_655 S
C346   S245    1.760   1_655 S
C347   H360    1.075   .     S
C347   C349    1.409   .     A
C348   H359    1.074   .     S
C348   C350    1.417   .     A
C349   C353    1.428   .     A
C349   C351    1.413   .     A
C350   C352    1.409   .     A
C350   C354    1.428   .     A
C351   C929    1.396   .     S
C352   C930    1.390   1_554 S
C353   C948    1.428   .     S
C354   C947    1.428   1_554 S
Cu355  O372    1.965   .     S
Cu355  N368    2.044   .     S
Cu355  O373    1.929   .     S
Cu355  O369    1.972   .     S
Cu355  Cu356   2.720   .     S
Cu355  O376    1.901   .     S
Cu356  N367    2.044   .     S
Cu356  O375    1.901   .     S
Cu356  O370    1.972   .     S
Cu356  O374    1.929   .     S
Cu356  O371    1.965   .     S
H361   C211    1.083   1_655 S
H366   N368    1.023   .     S
N367   H233    1.029   1_655 S
N367   N236    1.296   1_655 S
S377   O378    1.496   .     D
S377   O379    1.502   .     D
S377   O380    1.655   .     S
O380   H381    0.988   .     S
S382   O385    1.681   .     S
S382   O384    1.503   .     D
S382   C213    1.779   1_655 S
S382   O251    1.502   1_655 S
O385   H386    0.989   .     S
S387   O388    1.501   .     D
S387   O389    1.499   .     D
O390   H391    0.990   .     S
O390   S585    1.667   .     S
S392   O394    1.504   .     D
S392   O395    1.679   .     S
S392   C536    1.765   .     S
S392   O591    1.504   .     S
O395   H396    0.990   .     S
C397   C403    1.465   .     S
C397   O437    1.305   .     A
C397   O435    1.307   .     A
C398   O438    1.298   .     A
C398   O436    1.308   .     A
C398   C404    1.453   .     S
C399   C420    1.410   .     A
C399   H429    1.079   .     S
C399   C401    1.389   .     A
C400   H430    1.073   .     S
C400   C402    1.382   .     A
C400   C419    1.413   .     A
C401   H423    1.084   .     S
C401   C1011   1.396   1_554 S
C402   H424    1.085   .     S
C402   C1012   1.390   .     S
C403   C8      1.333   1_565 S
C403   S57     1.758   1_565 S
C405   O441    1.314   .     A
C405   C407    1.488   .     S
C405   O439    1.311   .     A
C406   O442    1.321   .     A
C406   C408    1.506   .     S
C406   O440    1.315   .     A
C407   C413    1.403   .     A
C407   C411    1.423   .     A
C408   C414    1.411   .     A
C408   C412    1.425   .     A
C409   C417    1.400   .     A
C409   C411    1.403   .     A
C409   H559    1.083   1_455 S
C410   C412    1.396   .     A
C410   C418    1.388   .     A
C410   H494    1.083   .     S
C411   S580    1.779   1_455 S
C412   S509    1.760   .     S
C413   H426    1.075   .     S
C413   C415    1.409   .     A
C414   H425    1.074   .     S
C414   C416    1.417   .     A
C415   C419    1.428   .     A
C415   C417    1.413   .     A
C416   C418    1.409   .     A
C416   C420    1.428   .     A
C417   C995    1.396   .     S
C418   C996    1.390   1_554 S
C419   C1014   1.428   .     S
C420   C1013   1.428   1_554 S
Cu421  O438    1.965   .     S
Cu421  N434    2.044   .     S
Cu421  O439    1.929   .     S
Cu421  O435    1.972   .     S
Cu421  Cu422   2.720   .     S
Cu421  O442    1.901   .     S
Cu422  N433    2.044   .     S
Cu422  O441    1.901   .     S
Cu422  O436    1.972   .     S
Cu422  O440    1.929   .     S
Cu422  O437    1.965   .     S
H427   C475    1.083   .     S
H428   C542    1.083   1_455 S
H431   N565    1.029   1_455 S
H432   N434    1.023   .     S
N433   H497    1.029   .     S
N433   N500    1.296   .     S
N434   N565    1.296   1_455 S
S443   O444    1.496   .     D
S443   O445    1.502   .     D
S443   O446    1.655   .     S
S443   C544    1.760   1_455 S
O446   H447    0.988   .     S
S448   O451    1.681   .     S
S448   O450    1.503   .     D
S448   C477    1.779   .     S
S448   O515    1.502   .     S
O449   S580    1.502   1_455 S
O451   H452    0.989   .     S
S453   O454    1.501   .     D
S453   O455    1.499   .     D
O456   H457    0.990   .     S
O456   S57     1.667   1_565 S
S458   O460    1.504   .     D
S458   O461    1.679   .     S
S458   C8      1.765   1_565 S
S458   O63     1.504   1_565 S
O461   H462    0.990   .     S
C463   C469    1.465   .     S
C463   O503    1.305   .     A
C463   O501    1.307   .     A
C464   O504    1.298   .     A
C464   O502    1.308   .     A
C464   C470    1.453   .     S
C465   C486    1.410   .     A
C465   H495    1.079   .     S
C465   C467    1.389   .     A
C466   H496    1.073   .     S
C466   C468    1.382   .     A
C466   C485    1.413   .     A
C467   H489    1.084   .     S
C467   C1077   1.396   1_554 S
C468   H490    1.085   .     S
C468   C1078   1.390   .     S
C469   C74     1.333   1_565 S
C469   S123    1.758   1_565 S
C471   O507    1.314   .     A
C471   C473    1.488   .     S
C471   O505    1.311   .     A
C472   O508    1.321   .     A
C472   C474    1.506   .     S
C472   O506    1.315   .     A
C473   C479    1.403   .     A
C473   C477    1.423   .     A
C474   C480    1.411   .     A
C474   C478    1.425   .     A
C475   C483    1.400   .     A
C475   C477    1.403   .     A
C476   C478    1.396   .     A
C476   C484    1.388   .     A
C476   H560    1.083   .     S
C478   S575    1.760   .     S
C479   H492    1.075   .     S
C479   C481    1.409   .     A
C480   H491    1.074   .     S
C480   C482    1.417   .     A
C481   C485    1.428   .     A
C481   C483    1.413   .     A
C482   C484    1.409   .     A
C482   C486    1.428   .     A
C483   C1061   1.396   .     S
C484   C1062   1.390   1_554 S
C485   C1080   1.428   .     S
C486   C1079   1.428   1_554 S
Cu487  O504    1.965   .     S
Cu487  N500    2.044   .     S
Cu487  O505    1.929   .     S
Cu487  O501    1.972   .     S
Cu487  Cu488   2.720   .     S
Cu487  O508    1.901   .     S
Cu488  N499    2.044   .     S
Cu488  O507    1.901   .     S
Cu488  O502    1.972   .     S
Cu488  O506    1.929   .     S
Cu488  O503    1.965   .     S
H493   C541    1.083   .     S
H498   N500    1.023   .     S
N499   H563    1.029   .     S
N499   N566    1.296   .     S
S509   O510    1.496   .     D
S509   O511    1.502   .     D
S509   O512    1.655   .     S
O512   H513    0.988   .     S
S514   O517    1.681   .     S
S514   O516    1.503   .     D
S514   C543    1.779   .     S
S514   O581    1.502   .     S
O517   H518    0.989   .     S
S519   O520    1.501   .     D
S519   O521    1.499   .     D
O522   H523    0.990   .     S
O522   S123    1.667   1_565 S
S524   O526    1.504   .     D
S524   O527    1.679   .     S
S524   C74     1.765   1_565 S
S524   O129    1.504   1_565 S
O527   H528    0.990   .     S
C529   C535    1.465   .     S
C529   O569    1.305   .     A
C529   O567    1.307   .     A
C530   O570    1.298   .     A
C530   O568    1.308   .     A
C530   C536    1.453   .     S
C531   C552    1.410   .     A
C531   H561    1.079   .     S
C531   C533    1.389   .     A
C532   H562    1.073   .     S
C532   C534    1.382   .     A
C532   C551    1.413   .     A
C533   H555    1.084   .     S
C533   C1143   1.396   1_554 S
C534   H556    1.085   .     S
C534   C1144   1.390   .     S
C535   C140    1.333   1_565 S
C535   S189    1.758   1_565 S
C537   O573    1.314   .     A
C537   C539    1.488   .     S
C537   O571    1.311   .     A
C538   O574    1.321   .     A
C538   C540    1.506   .     S
C538   O572    1.315   .     A
C539   C545    1.403   .     A
C539   C543    1.423   .     A
C540   C546    1.411   .     A
C540   C544    1.425   .     A
C541   C549    1.400   .     A
C541   C543    1.403   .     A
C542   C544    1.396   .     A
C542   C550    1.388   .     A
C542   H428    1.083   1_655 S
C544   S443    1.760   1_655 S
C545   H558    1.075   .     S
C545   C547    1.409   .     A
C546   H557    1.074   .     S
C546   C548    1.417   .     A
C547   C551    1.428   .     A
C547   C549    1.413   .     A
C548   C550    1.409   .     A
C548   C552    1.428   .     A
C549   C1127   1.396   .     S
C550   C1128   1.390   1_554 S
C551   C1146   1.428   .     S
C552   C1145   1.428   1_554 S
Cu553  O570    1.965   .     S
Cu553  N566    2.044   .     S
Cu553  O571    1.929   .     S
Cu553  O567    1.972   .     S
Cu553  Cu554   2.720   .     S
Cu553  O574    1.901   .     S
Cu554  N565    2.044   .     S
Cu554  O573    1.901   .     S
Cu554  O568    1.972   .     S
Cu554  O572    1.929   .     S
Cu554  O569    1.965   .     S
H559   C409    1.083   1_655 S
H564   N566    1.023   .     S
N565   H431    1.029   1_655 S
N565   N434    1.296   1_655 S
S575   O576    1.496   .     D
S575   O577    1.502   .     D
S575   O578    1.655   .     S
O578   H579    0.988   .     S
S580   O583    1.681   .     S
S580   O582    1.503   .     D
S580   C411    1.779   1_655 S
S580   O449    1.502   1_655 S
O583   H584    0.989   .     S
S585   O586    1.501   .     D
S585   O587    1.499   .     D
O588   H589    0.990   .     S
O588   S189    1.667   1_565 S
S590   O592    1.504   .     D
S590   O593    1.679   .     S
S590   C140    1.765   1_565 S
S590   O195    1.504   1_565 S
O593   H594    0.990   .     S
C595   C601    1.465   .     S
C595   O635    1.305   .     A
C595   O633    1.307   .     A
C596   O636    1.298   .     A
C596   O634    1.308   .     A
C596   C602    1.453   .     S
C597   C618    1.410   .     A
C597   H627    1.079   .     S
C597   C599    1.389   .     A
C598   H628    1.073   .     S
C598   C600    1.382   .     A
C598   C617    1.413   .     A
C599   H621    1.084   .     S
C600   H622    1.085   .     S
C600   C22     1.390   1_556 S
C601   C800    1.333   .     S
C601   S849    1.758   .     S
C602   C997    1.333   1_545 S
C602   S1052   1.765   1_545 S
C603   O639    1.314   .     A
C603   C605    1.488   .     S
C603   O637    1.311   .     A
C604   O640    1.321   .     A
C604   C606    1.506   .     S
C604   O638    1.315   .     A
C605   C611    1.403   .     A
C605   C609    1.423   .     A
C606   C612    1.411   .     A
C606   C610    1.425   .     A
C607   C615    1.400   .     A
C607   C609    1.403   .     A
C607   H757    1.083   1_455 S
C608   C610    1.396   .     A
C608   C616    1.388   .     A
C608   H692    1.083   .     S
C609   S778    1.779   1_455 S
C610   S707    1.760   .     S
C611   H624    1.075   .     S
C611   C613    1.409   .     A
C612   H623    1.074   .     S
C612   C614    1.417   .     A
C613   C617    1.428   .     A
C613   C615    1.413   .     A
C614   C616    1.409   .     A
C614   C618    1.428   .     A
C615   C5      1.396   1_556 S
C617   C24     1.428   1_556 S
Cu619  O636    1.965   .     S
Cu619  N632    2.044   .     S
Cu619  O637    1.929   .     S
Cu619  O633    1.972   .     S
Cu619  Cu620   2.720   .     S
Cu619  O640    1.901   .     S
Cu620  N631    2.044   .     S
Cu620  O639    1.901   .     S
Cu620  O634    1.972   .     S
Cu620  O638    1.929   .     S
Cu620  O635    1.965   .     S
H625   C673    1.083   .     S
H626   C740    1.083   1_455 S
H629   N763    1.029   1_455 S
H630   N632    1.023   .     S
N631   H695    1.029   .     S
N631   N698    1.296   .     S
N632   N763    1.296   1_455 S
S641   O642    1.496   .     D
S641   O643    1.502   .     D
S641   O644    1.655   .     S
S641   C742    1.760   1_455 S
O644   H645    0.988   .     S
S646   O649    1.681   .     S
S646   O648    1.503   .     D
S646   C675    1.779   .     S
S646   O713    1.502   .     S
O647   S778    1.502   1_455 S
O649   H650    0.989   .     S
S651   O652    1.501   .     D
S651   O653    1.499   .     D
S651   C997    1.758   1_545 S
S651   O1050   1.667   1_545 S
O654   H655    0.990   .     S
O654   S849    1.667   .     S
S656   O658    1.504   .     D
S656   O659    1.679   .     S
S656   C800    1.765   .     S
S656   O855    1.504   .     S
O657   S1052   1.504   1_545 S
O659   H660    0.990   .     S
C661   C667    1.465   .     S
C661   O701    1.305   .     A
C661   O699    1.307   .     A
C662   O702    1.298   .     A
C662   O700    1.308   .     A
C662   C668    1.453   .     S
C663   C684    1.410   .     A
C663   H693    1.079   .     S
C663   C665    1.389   .     A
C664   H694    1.073   .     S
C664   C666    1.382   .     A
C664   C683    1.413   .     A
C665   H687    1.084   .     S
C666   H688    1.085   .     S
C666   C88     1.390   1_556 S
C667   C866    1.333   .     S
C667   S915    1.758   .     S
C668   C1063   1.333   1_545 S
C668   S1118   1.765   1_545 S
C669   O705    1.314   .     A
C669   C671    1.488   .     S
C669   O703    1.311   .     A
C670   O706    1.321   .     A
C670   C672    1.506   .     S
C670   O704    1.315   .     A
C671   C677    1.403   .     A
C671   C675    1.423   .     A
C672   C678    1.411   .     A
C672   C676    1.425   .     A
C673   C681    1.400   .     A
C673   C675    1.403   .     A
C674   C676    1.396   .     A
C674   C682    1.388   .     A
C674   H758    1.083   .     S
C676   S773    1.760   .     S
C677   H690    1.075   .     S
C677   C679    1.409   .     A
C678   H689    1.074   .     S
C678   C680    1.417   .     A
C679   C683    1.428   .     A
C679   C681    1.413   .     A
C680   C682    1.409   .     A
C680   C684    1.428   .     A
C681   C71     1.396   1_556 S
C683   C90     1.428   1_556 S
Cu685  O702    1.965   .     S
Cu685  N698    2.044   .     S
Cu685  O703    1.929   .     S
Cu685  O699    1.972   .     S
Cu685  Cu686   2.720   .     S
Cu685  O706    1.901   .     S
Cu686  N697    2.044   .     S
Cu686  O705    1.901   .     S
Cu686  O700    1.972   .     S
Cu686  O704    1.929   .     S
Cu686  O701    1.965   .     S
H691   C739    1.083   .     S
H696   N698    1.023   .     S
N697   H761    1.029   .     S
N697   N764    1.296   .     S
S707   O708    1.496   .     D
S707   O709    1.502   .     D
S707   O710    1.655   .     S
O710   H711    0.988   .     S
S712   O715    1.681   .     S
S712   O714    1.503   .     D
S712   C741    1.779   .     S
S712   O779    1.502   .     S
O715   H716    0.989   .     S
S717   O718    1.501   .     D
S717   O719    1.499   .     D
S717   C1063   1.758   1_545 S
S717   O1116   1.667   1_545 S
O720   H721    0.990   .     S
O720   S915    1.667   .     S
S722   O724    1.504   .     D
S722   O725    1.679   .     S
S722   C866    1.765   .     S
S722   O921    1.504   .     S
O723   S1118   1.504   1_545 S
O725   H726    0.990   .     S
C727   C733    1.465   .     S
C727   O767    1.305   .     A
C727   O765    1.307   .     A
C728   O768    1.298   .     A
C728   O766    1.308   .     A
C728   C734    1.453   .     S
C729   C750    1.410   .     A
C729   H759    1.079   .     S
C729   C731    1.389   .     A
C730   H760    1.073   .     S
C730   C732    1.382   .     A
C730   C749    1.413   .     A
C731   H753    1.084   .     S
C732   H754    1.085   .     S
C732   C154    1.390   1_556 S
C733   C932    1.333   .     S
C733   S981    1.758   .     S
C734   C1129   1.333   1_545 S
C734   S1184   1.765   1_545 S
C735   O771    1.314   .     A
C735   C737    1.488   .     S
C735   O769    1.311   .     A
C736   O772    1.321   .     A
C736   C738    1.506   .     S
C736   O770    1.315   .     A
C737   C743    1.403   .     A
C737   C741    1.423   .     A
C738   C744    1.411   .     A
C738   C742    1.425   .     A
C739   C747    1.400   .     A
C739   C741    1.403   .     A
C740   C742    1.396   .     A
C740   C748    1.388   .     A
C740   H626    1.083   1_655 S
C742   S641    1.760   1_655 S
C743   H756    1.075   .     S
C743   C745    1.409   .     A
C744   H755    1.074   .     S
C744   C746    1.417   .     A
C745   C749    1.428   .     A
C745   C747    1.413   .     A
C746   C748    1.409   .     A
C746   C750    1.428   .     A
C747   C137    1.396   1_556 S
C749   C156    1.428   1_556 S
Cu751  O768    1.965   .     S
Cu751  N764    2.044   .     S
Cu751  O769    1.929   .     S
Cu751  O765    1.972   .     S
Cu751  Cu752   2.720   .     S
Cu751  O772    1.901   .     S
Cu752  N763    2.044   .     S
Cu752  O771    1.901   .     S
Cu752  O766    1.972   .     S
Cu752  O770    1.929   .     S
Cu752  O767    1.965   .     S
H757   C607    1.083   1_655 S
H762   N764    1.023   .     S
N763   H629    1.029   1_655 S
N763   N632    1.296   1_655 S
S773   O774    1.496   .     D
S773   O775    1.502   .     D
S773   O776    1.655   .     S
O776   H777    0.988   .     S
S778   O781    1.681   .     S
S778   O780    1.503   .     D
S778   C609    1.779   1_655 S
S778   O647    1.502   1_655 S
O781   H782    0.989   .     S
S783   O784    1.501   .     D
S783   O785    1.499   .     D
S783   C1129   1.758   1_545 S
S783   O1182   1.667   1_545 S
O786   H787    0.990   .     S
O786   S981    1.667   .     S
S788   O790    1.504   .     D
S788   O791    1.679   .     S
S788   C932    1.765   .     S
S788   O987    1.504   .     S
O789   S1184   1.504   1_545 S
O791   H792    0.990   .     S
C793   C799    1.465   .     S
C793   O833    1.305   .     A
C793   O831    1.307   .     A
C794   O834    1.298   .     A
C794   O832    1.308   .     A
C794   C800    1.453   .     S
C795   C816    1.410   .     A
C795   H825    1.079   .     S
C795   C797    1.389   .     A
C796   H826    1.073   .     S
C796   C798    1.382   .     A
C796   C815    1.413   .     A
C797   H819    1.084   .     S
C798   H820    1.085   .     S
C798   C220    1.390   1_556 S
C799   C998    1.333   .     S
C799   S1047   1.758   .     S
C801   O837    1.314   .     A
C801   C803    1.488   .     S
C801   O835    1.311   .     A
C802   O838    1.321   .     A
C802   C804    1.506   .     S
C802   O836    1.315   .     A
C803   C809    1.403   .     A
C803   C807    1.423   .     A
C804   C810    1.411   .     A
C804   C808    1.425   .     A
C805   C813    1.400   .     A
C805   C807    1.403   .     A
C805   H955    1.083   1_455 S
C806   C808    1.396   .     A
C806   C814    1.388   .     A
C806   H890    1.083   .     S
C807   S976    1.779   1_455 S
C808   S905    1.760   .     S
C809   H822    1.075   .     S
C809   C811    1.409   .     A
C810   H821    1.074   .     S
C810   C812    1.417   .     A
C811   C815    1.428   .     A
C811   C813    1.413   .     A
C812   C814    1.409   .     A
C812   C816    1.428   .     A
C813   C203    1.396   1_556 S
C815   C222    1.428   1_556 S
Cu817  O834    1.965   .     S
Cu817  N830    2.044   .     S
Cu817  O835    1.929   .     S
Cu817  O831    1.972   .     S
Cu817  Cu818   2.720   .     S
Cu817  O838    1.901   .     S
Cu818  N829    2.044   .     S
Cu818  O837    1.901   .     S
Cu818  O832    1.972   .     S
Cu818  O836    1.929   .     S
Cu818  O833    1.965   .     S
H823   C871    1.083   .     S
H824   C938    1.083   1_455 S
H827   N961    1.029   1_455 S
H828   N830    1.023   .     S
N829   H893    1.029   .     S
N829   N896    1.296   .     S
N830   N961    1.296   1_455 S
S839   O840    1.496   .     D
S839   O841    1.502   .     D
S839   O842    1.655   .     S
S839   C940    1.760   1_455 S
O842   H843    0.988   .     S
S844   O847    1.681   .     S
S844   O846    1.503   .     D
S844   C873    1.779   .     S
S844   O911    1.502   .     S
O845   S976    1.502   1_455 S
O847   H848    0.989   .     S
S849   O850    1.501   .     D
S849   O851    1.499   .     D
O852   H853    0.990   .     S
O852   S1047   1.667   .     S
S854   O856    1.504   .     D
S854   O857    1.679   .     S
S854   C998    1.765   .     S
S854   O1053   1.504   .     S
O857   H858    0.990   .     S
C859   C865    1.465   .     S
C859   O899    1.305   .     A
C859   O897    1.307   .     A
C860   O900    1.298   .     A
C860   O898    1.308   .     A
C860   C866    1.453   .     S
C861   C882    1.410   .     A
C861   H891    1.079   .     S
C861   C863    1.389   .     A
C862   H892    1.073   .     S
C862   C864    1.382   .     A
C862   C881    1.413   .     A
C863   H885    1.084   .     S
C864   H886    1.085   .     S
C864   C286    1.390   1_556 S
C865   C1064   1.333   .     S
C865   S1113   1.758   .     S
C867   O903    1.314   .     A
C867   C869    1.488   .     S
C867   O901    1.311   .     A
C868   O904    1.321   .     A
C868   C870    1.506   .     S
C868   O902    1.315   .     A
C869   C875    1.403   .     A
C869   C873    1.423   .     A
C870   C876    1.411   .     A
C870   C874    1.425   .     A
C871   C879    1.400   .     A
C871   C873    1.403   .     A
C872   C874    1.396   .     A
C872   C880    1.388   .     A
C872   H956    1.083   .     S
C874   S971    1.760   .     S
C875   H888    1.075   .     S
C875   C877    1.409   .     A
C876   H887    1.074   .     S
C876   C878    1.417   .     A
C877   C881    1.428   .     A
C877   C879    1.413   .     A
C878   C880    1.409   .     A
C878   C882    1.428   .     A
C879   C269    1.396   1_556 S
C881   C288    1.428   1_556 S
Cu883  O900    1.965   .     S
Cu883  N896    2.044   .     S
Cu883  O901    1.929   .     S
Cu883  O897    1.972   .     S
Cu883  Cu884   2.720   .     S
Cu883  O904    1.901   .     S
Cu884  N895    2.044   .     S
Cu884  O903    1.901   .     S
Cu884  O898    1.972   .     S
Cu884  O902    1.929   .     S
Cu884  O899    1.965   .     S
H889   C937    1.083   .     S
H894   N896    1.023   .     S
N895   H959    1.029   .     S
N895   N962    1.296   .     S
S905   O906    1.496   .     D
S905   O907    1.502   .     D
S905   O908    1.655   .     S
O908   H909    0.988   .     S
S910   O913    1.681   .     S
S910   O912    1.503   .     D
S910   C939    1.779   .     S
S910   O977    1.502   .     S
O913   H914    0.989   .     S
S915   O916    1.501   .     D
S915   O917    1.499   .     D
O918   H919    0.990   .     S
O918   S1113   1.667   .     S
S920   O922    1.504   .     D
S920   O923    1.679   .     S
S920   C1064   1.765   .     S
S920   O1119   1.504   .     S
O923   H924    0.990   .     S
C925   C931    1.465   .     S
C925   O965    1.305   .     A
C925   O963    1.307   .     A
C926   O966    1.298   .     A
C926   O964    1.308   .     A
C926   C932    1.453   .     S
C927   C948    1.410   .     A
C927   H957    1.079   .     S
C927   C929    1.389   .     A
C928   H958    1.073   .     S
C928   C930    1.382   .     A
C928   C947    1.413   .     A
C929   H951    1.084   .     S
C930   H952    1.085   .     S
C930   C352    1.390   1_556 S
C931   C1130   1.333   .     S
C931   S1179   1.758   .     S
C933   O969    1.314   .     A
C933   C935    1.488   .     S
C933   O967    1.311   .     A
C934   O970    1.321   .     A
C934   C936    1.506   .     S
C934   O968    1.315   .     A
C935   C941    1.403   .     A
C935   C939    1.423   .     A
C936   C942    1.411   .     A
C936   C940    1.425   .     A
C937   C945    1.400   .     A
C937   C939    1.403   .     A
C938   C940    1.396   .     A
C938   C946    1.388   .     A
C938   H824    1.083   1_655 S
C940   S839    1.760   1_655 S
C941   H954    1.075   .     S
C941   C943    1.409   .     A
C942   H953    1.074   .     S
C942   C944    1.417   .     A
C943   C947    1.428   .     A
C943   C945    1.413   .     A
C944   C946    1.409   .     A
C944   C948    1.428   .     A
C945   C335    1.396   1_556 S
C947   C354    1.428   1_556 S
Cu949  O966    1.965   .     S
Cu949  N962    2.044   .     S
Cu949  O967    1.929   .     S
Cu949  O963    1.972   .     S
Cu949  Cu950   2.720   .     S
Cu949  O970    1.901   .     S
Cu950  N961    2.044   .     S
Cu950  O969    1.901   .     S
Cu950  O964    1.972   .     S
Cu950  O968    1.929   .     S
Cu950  O965    1.965   .     S
H955   C805    1.083   1_655 S
H960   N962    1.023   .     S
N961   H827    1.029   1_655 S
N961   N830    1.296   1_655 S
S971   O972    1.496   .     D
S971   O973    1.502   .     D
S971   O974    1.655   .     S
O974   H975    0.988   .     S
S976   O979    1.681   .     S
S976   O978    1.503   .     D
S976   C807    1.779   1_655 S
S976   O845    1.502   1_655 S
O979   H980    0.989   .     S
S981   O982    1.501   .     D
S981   O983    1.499   .     D
O984   H985    0.990   .     S
O984   S1179   1.667   .     S
S986   O988    1.504   .     D
S986   O989    1.679   .     S
S986   C1130   1.765   .     S
S986   O1185   1.504   .     S
O989   H990    0.990   .     S
C991   C997    1.465   .     S
C991   O1031   1.305   .     A
C991   O1029   1.307   .     A
C992   O1032   1.298   .     A
C992   O1030   1.308   .     A
C992   C998    1.453   .     S
C993   C1014   1.410   .     A
C993   H1023   1.079   .     S
C993   C995    1.389   .     A
C994   H1024   1.073   .     S
C994   C996    1.382   .     A
C994   C1013   1.413   .     A
C995   H1017   1.084   .     S
C996   H1018   1.085   .     S
C996   C418    1.390   1_556 S
C997   C602    1.333   1_565 S
C997   S651    1.758   1_565 S
C999   O1035   1.314   .     A
C999   C1001   1.488   .     S
C999   O1033   1.311   .     A
C1000  O1036   1.321   .     A
C1000  C1002   1.506   .     S
C1000  O1034   1.315   .     A
C1001  C1007   1.403   .     A
C1001  C1005   1.423   .     A
C1002  C1008   1.411   .     A
C1002  C1006   1.425   .     A
C1003  C1011   1.400   .     A
C1003  C1005   1.403   .     A
C1003  H1153   1.083   1_455 S
C1004  C1006   1.396   .     A
C1004  C1012   1.388   .     A
C1004  H1088   1.083   .     S
C1005  S1174   1.779   1_455 S
C1006  S1103   1.760   .     S
C1007  H1020   1.075   .     S
C1007  C1009   1.409   .     A
C1008  H1019   1.074   .     S
C1008  C1010   1.417   .     A
C1009  C1013   1.428   .     A
C1009  C1011   1.413   .     A
C1010  C1012   1.409   .     A
C1010  C1014   1.428   .     A
C1011  C401    1.396   1_556 S
C1013  C420    1.428   1_556 S
Cu1015 O1032   1.965   .     S
Cu1015 N1028   2.044   .     S
Cu1015 O1033   1.929   .     S
Cu1015 O1029   1.972   .     S
Cu1015 Cu1016  2.720   .     S
Cu1015 O1036   1.901   .     S
Cu1016 N1027   2.044   .     S
Cu1016 O1035   1.901   .     S
Cu1016 O1030   1.972   .     S
Cu1016 O1034   1.929   .     S
Cu1016 O1031   1.965   .     S
H1021  C1069   1.083   .     S
H1022  C1136   1.083   1_455 S
H1025  N1159   1.029   1_455 S
H1026  N1028   1.023   .     S
N1027  H1091   1.029   .     S
N1027  N1094   1.296   .     S
N1028  N1159   1.296   1_455 S
S1037  O1038   1.496   .     D
S1037  O1039   1.502   .     D
S1037  O1040   1.655   .     S
S1037  C1138   1.760   1_455 S
O1040  H1041   0.988   .     S
S1042  O1045   1.681   .     S
S1042  O1044   1.503   .     D
S1042  C1071   1.779   .     S
S1042  O1109   1.502   .     S
O1043  S1174   1.502   1_455 S
O1045  H1046   0.989   .     S
S1047  O1048   1.501   .     D
S1047  O1049   1.499   .     D
O1050  H1051   0.990   .     S
O1050  S651    1.667   1_565 S
S1052  O1054   1.504   .     D
S1052  O1055   1.679   .     S
S1052  C602    1.765   1_565 S
S1052  O657    1.504   1_565 S
O1055  H1056   0.990   .     S
C1057  C1063   1.465   .     S
C1057  O1097   1.305   .     A
C1057  O1095   1.307   .     A
C1058  O1098   1.298   .     A
C1058  O1096   1.308   .     A
C1058  C1064   1.453   .     S
C1059  C1080   1.410   .     A
C1059  H1089   1.079   .     S
C1059  C1061   1.389   .     A
C1060  H1090   1.073   .     S
C1060  C1062   1.382   .     A
C1060  C1079   1.413   .     A
C1061  H1083   1.084   .     S
C1062  H1084   1.085   .     S
C1062  C484    1.390   1_556 S
C1063  C668    1.333   1_565 S
C1063  S717    1.758   1_565 S
C1065  O1101   1.314   .     A
C1065  C1067   1.488   .     S
C1065  O1099   1.311   .     A
C1066  O1102   1.321   .     A
C1066  C1068   1.506   .     S
C1066  O1100   1.315   .     A
C1067  C1073   1.403   .     A
C1067  C1071   1.423   .     A
C1068  C1074   1.411   .     A
C1068  C1072   1.425   .     A
C1069  C1077   1.400   .     A
C1069  C1071   1.403   .     A
C1070  C1072   1.396   .     A
C1070  C1078   1.388   .     A
C1070  H1154   1.083   .     S
C1072  S1169   1.760   .     S
C1073  H1086   1.075   .     S
C1073  C1075   1.409   .     A
C1074  H1085   1.074   .     S
C1074  C1076   1.417   .     A
C1075  C1079   1.428   .     A
C1075  C1077   1.413   .     A
C1076  C1078   1.409   .     A
C1076  C1080   1.428   .     A
C1077  C467    1.396   1_556 S
C1079  C486    1.428   1_556 S
Cu1081 O1098   1.965   .     S
Cu1081 N1094   2.044   .     S
Cu1081 O1099   1.929   .     S
Cu1081 O1095   1.972   .     S
Cu1081 Cu1082  2.720   .     S
Cu1081 O1102   1.901   .     S
Cu1082 N1093   2.044   .     S
Cu1082 O1101   1.901   .     S
Cu1082 O1096   1.972   .     S
Cu1082 O1100   1.929   .     S
Cu1082 O1097   1.965   .     S
H1087  C1135   1.083   .     S
H1092  N1094   1.023   .     S
N1093  H1157   1.029   .     S
N1093  N1160   1.296   .     S
S1103  O1104   1.496   .     D
S1103  O1105   1.502   .     D
S1103  O1106   1.655   .     S
O1106  H1107   0.988   .     S
S1108  O1111   1.681   .     S
S1108  O1110   1.503   .     D
S1108  C1137   1.779   .     S
S1108  O1175   1.502   .     S
O1111  H1112   0.989   .     S
S1113  O1114   1.501   .     D
S1113  O1115   1.499   .     D
O1116  H1117   0.990   .     S
O1116  S717    1.667   1_565 S
S1118  O1120   1.504   .     D
S1118  O1121   1.679   .     S
S1118  C668    1.765   1_565 S
S1118  O723    1.504   1_565 S
O1121  H1122   0.990   .     S
C1123  C1129   1.465   .     S
C1123  O1163   1.305   .     A
C1123  O1161   1.307   .     A
C1124  O1164   1.298   .     A
C1124  O1162   1.308   .     A
C1124  C1130   1.453   .     S
C1125  C1146   1.410   .     A
C1125  H1155   1.079   .     S
C1125  C1127   1.389   .     A
C1126  H1156   1.073   .     S
C1126  C1128   1.382   .     A
C1126  C1145   1.413   .     A
C1127  H1149   1.084   .     S
C1128  H1150   1.085   .     S
C1128  C550    1.390   1_556 S
C1129  C734    1.333   1_565 S
C1129  S783    1.758   1_565 S
C1131  O1167   1.314   .     A
C1131  C1133   1.488   .     S
C1131  O1165   1.311   .     A
C1132  O1168   1.321   .     A
C1132  C1134   1.506   .     S
C1132  O1166   1.315   .     A
C1133  C1139   1.403   .     A
C1133  C1137   1.423   .     A
C1134  C1140   1.411   .     A
C1134  C1138   1.425   .     A
C1135  C1143   1.400   .     A
C1135  C1137   1.403   .     A
C1136  C1138   1.396   .     A
C1136  C1144   1.388   .     A
C1136  H1022   1.083   1_655 S
C1138  S1037   1.760   1_655 S
C1139  H1152   1.075   .     S
C1139  C1141   1.409   .     A
C1140  H1151   1.074   .     S
C1140  C1142   1.417   .     A
C1141  C1145   1.428   .     A
C1141  C1143   1.413   .     A
C1142  C1144   1.409   .     A
C1142  C1146   1.428   .     A
C1143  C533    1.396   1_556 S
C1145  C552    1.428   1_556 S
Cu1147 O1164   1.965   .     S
Cu1147 N1160   2.044   .     S
Cu1147 O1165   1.929   .     S
Cu1147 O1161   1.972   .     S
Cu1147 Cu1148  2.720   .     S
Cu1147 O1168   1.901   .     S
Cu1148 N1159   2.044   .     S
Cu1148 O1167   1.901   .     S
Cu1148 O1162   1.972   .     S
Cu1148 O1166   1.929   .     S
Cu1148 O1163   1.965   .     S
H1153  C1003   1.083   1_655 S
H1158  N1160   1.023   .     S
N1159  H1025   1.029   1_655 S
N1159  N1028   1.296   1_655 S
S1169  O1170   1.496   .     D
S1169  O1171   1.502   .     D
S1169  O1172   1.655   .     S
O1172  H1173   0.988   .     S
S1174  O1177   1.681   .     S
S1174  O1176   1.503   .     D
S1174  C1005   1.779   1_655 S
S1174  O1043   1.502   1_655 S
O1177  H1178   0.989   .     S
S1179  O1180   1.501   .     D
S1179  O1181   1.499   .     D
O1182  H1183   0.990   .     S
O1182  S783    1.667   1_565 S
S1184  O1186   1.504   .     D
S1184  O1187   1.679   .     S
S1184  C734    1.765   1_565 S
S1184  O789    1.504   1_565 S
O1187  H1188   0.990   .     S
