data_str_m2_o1_o1_pcu_sym.31
_audit_creation_date              2020-01-03
_audit_creation_method            'Materials Studio'
_symmetry_space_group_name_H-M    'P1'
_symmetry_Int_Tables_number       1
_symmetry_cell_setting            triclinic
loop_
_symmetry_equiv_pos_as_xyz
  x,y,z
_cell_length_a                    34.0021
_cell_length_b                    27.2948
_cell_length_c                    28.8561
_cell_angle_alpha                 90.0000
_cell_angle_beta                  89.9999
_cell_angle_gamma                 90.0000
loop_
_atom_site_label
_atom_site_type_symbol
_atom_site_fract_x
_atom_site_fract_y
_atom_site_fract_z
_atom_site_U_iso_or_equiv
_atom_site_adp_type
_atom_site_occupancy
C1     C     0.06131   0.19341   0.16686   0.00000  Uiso   1.00
C2     C     0.00031   0.29442   0.30807   0.00000  Uiso   1.00
C3     C     0.49969   0.29442   0.02527   0.00000  Uiso   1.00
C4     C     0.49969   0.20558   0.30807   0.00000  Uiso   1.00
C5     C     0.25031   0.45558   0.02527   0.00000  Uiso   1.00
C6     C     0.25031   0.04442   0.30807   0.00000  Uiso   1.00
C7     C     0.24969   0.04442   0.02527   0.00000  Uiso   1.00
C8     C     0.24969   0.45558   0.30807   0.00000  Uiso   1.00
C9     C     0.38835   0.14437   0.12302   0.00000  Uiso   1.00
C10    C     0.11310   0.35435   0.20744   0.00000  Uiso   1.00
C11    C     0.11165   0.35563   0.12302   0.00000  Uiso   1.00
C12    C     0.43869   0.30659   0.16686   0.00000  Uiso   1.00
C13    C     0.38690   0.14565   0.20744   0.00000  Uiso   1.00
C14    C     0.11165   0.14437   0.21032   0.00000  Uiso   1.00
C15    C     0.38690   0.35435   0.12589   0.00000  Uiso   1.00
C16    C     0.38835   0.35563   0.21032   0.00000  Uiso   1.00
C17    C     0.11310   0.14565   0.12589   0.00000  Uiso   1.00
C18    C     0.13835   0.39437   0.12302   0.00000  Uiso   1.00
C19    C     0.36310   0.10435   0.20744   0.00000  Uiso   1.00
C20    C     0.36165   0.10563   0.12302   0.00000  Uiso   1.00
C21    C     0.13690   0.39565   0.20744   0.00000  Uiso   1.00
C22    C     0.36165   0.39437   0.21032   0.00000  Uiso   1.00
C23    C     0.43869   0.19341   0.16648   0.00000  Uiso   1.00
C24    C     0.13690   0.10435   0.12589   0.00000  Uiso   1.00
C25    C     0.13835   0.10563   0.21032   0.00000  Uiso   1.00
C26    C     0.36310   0.39565   0.12589   0.00000  Uiso   1.00
C27    C     0.09668   0.33764   0.16556   0.00000  Uiso   1.00
C28    C     0.40332   0.16236   0.16556   0.00000  Uiso   1.00
C29    C     0.40332   0.33764   0.16777   0.00000  Uiso   1.00
C30    C     0.09668   0.16236   0.16777   0.00000  Uiso   1.00
C31    C     0.34668   0.08764   0.16556   0.00000  Uiso   1.00
C32    C     0.15332   0.41236   0.16556   0.00000  Uiso   1.00
C33    C     0.15332   0.08764   0.16777   0.00000  Uiso   1.00
C34    C     0.06131   0.30659   0.16648   0.00000  Uiso   1.00
C35    C     0.34668   0.41236   0.16777   0.00000  Uiso   1.00
C36    C     0.31131   0.44341   0.16686   0.00000  Uiso   1.00
C37    C     0.18869   0.05659   0.16686   0.00000  Uiso   1.00
C38    C     0.18869   0.44341   0.16648   0.00000  Uiso   1.00
C39    C     0.31131   0.05659   0.16648   0.00000  Uiso   1.00
C40    C     0.00031   0.20558   0.02527   0.00000  Uiso   1.00
Cl41   Cl    0.39825   0.17303   0.06894   0.00000  Uiso   1.00
Cl42   Cl    0.36109   0.06914   0.25892   0.00000  Uiso   1.00
Cl43   Cl    0.35175   0.07697   0.06894   0.00000  Uiso   1.00
Cl44   Cl    0.13890   0.43086   0.25892   0.00000  Uiso   1.00
Cl45   Cl    0.35175   0.42303   0.26440   0.00000  Uiso   1.00
Cl46   Cl    0.13891   0.06914   0.07441   0.00000  Uiso   1.00
Cl47   Cl    0.14825   0.07697   0.26440   0.00000  Uiso   1.00
Cl48   Cl    0.36109   0.43086   0.07441   0.00000  Uiso   1.00
Cl49   Cl    0.11109   0.31914   0.25892   0.00000  Uiso   1.00
Cl50   Cl    0.10175   0.32697   0.06894   0.00000  Uiso   1.00
Cl51   Cl    0.38891   0.18086   0.25892   0.00000  Uiso   1.00
Cl52   Cl    0.10175   0.17303   0.26440   0.00000  Uiso   1.00
Cl53   Cl    0.38891   0.31914   0.07441   0.00000  Uiso   1.00
Cl54   Cl    0.39825   0.32697   0.26440   0.00000  Uiso   1.00
Cl55   Cl    0.11109   0.18086   0.07441   0.00000  Uiso   1.00
Cl56   Cl    0.14825   0.42303   0.06894   0.00000  Uiso   1.00
Cu57   Cu   -0.00000   0.25000   0.21355   0.00000  Uiso   1.00
Cu58   Cu    0.00000   0.25000   0.11978   0.00000  Uiso   1.00
Cu59   Cu    0.25000   0.00000   0.21355   0.00000  Uiso   1.00
Cu60   Cu    0.25000   0.00000   0.11978   0.00000  Uiso   1.00
H61    H     0.00584   0.10476   0.11946   0.00000  Uiso   1.00
H62    H     0.00584   0.39524   0.21387   0.00000  Uiso   1.00
H63    H     0.49416   0.39524   0.11946   0.00000  Uiso   1.00
H64    H     0.49416   0.10476   0.21387   0.00000  Uiso   1.00
H65    H     0.25584   0.35476   0.11946   0.00000  Uiso   1.00
H66    H     0.25584   0.14524   0.21387   0.00000  Uiso   1.00
H67    H     0.24416   0.14524   0.11946   0.00000  Uiso   1.00
H68    H     0.24416   0.35476   0.21387   0.00000  Uiso   1.00
N69    N     0.00000   0.25000   0.28402   0.00000  Uiso   1.00
N70    N     0.00000   0.25000   0.04931   0.00000  Uiso   1.00
N71    N     0.25000   0.00000   0.28402   0.00000  Uiso   1.00
N72    N     0.25000   0.00000   0.04931   0.00000  Uiso   1.00
O73    O     0.04508   0.20491   0.20625   0.00000  Uiso   1.00
O74    O     0.20491   0.04509   0.12709   0.00000  Uiso   1.00
O75    O     0.20491   0.04509   0.20625   0.00000  Uiso   1.00
O76    O     0.29508   0.45491   0.12709   0.00000  Uiso   1.00
O77    O     0.20491   0.45491   0.12709   0.00000  Uiso   1.00
O78    O     0.29508   0.04509   0.20625   0.00000  Uiso   1.00
O79    O     0.29508   0.04509   0.12709   0.00000  Uiso   1.00
O80    O     0.20491   0.45491   0.20625   0.00000  Uiso   1.00
O81    O     0.47339   0.11134   0.03733   0.00000  Uiso   1.00
O82    O     0.04374   0.12505   0.04470   0.00000  Uiso   1.00
O83    O     0.49948   0.13951   0.11290   0.00000  Uiso   1.00
O84    O     0.45491   0.29509   0.12709   0.00000  Uiso   1.00
O85    O     0.47339   0.38866   0.29600   0.00000  Uiso   1.00
O86    O     0.04374   0.37495   0.28863   0.00000  Uiso   1.00
O87    O     0.49948   0.36049   0.22043   0.00000  Uiso   1.00
O88    O     0.02661   0.38866   0.03734   0.00000  Uiso   1.00
O89    O     0.45626   0.37495   0.04470   0.00000  Uiso   1.00
O90    O     0.00052   0.36049   0.11290   0.00000  Uiso   1.00
O91    O     0.02661   0.11134   0.29600   0.00000  Uiso   1.00
O92    O     0.45626   0.12505   0.28863   0.00000  Uiso   1.00
O93    O     0.00052   0.13951   0.22043   0.00000  Uiso   1.00
O94    O     0.22339   0.36134   0.03733   0.00000  Uiso   1.00
O95    O     0.45491   0.29509   0.20625   0.00000  Uiso   1.00
O96    O     0.29374   0.37505   0.04470   0.00000  Uiso   1.00
O97    O     0.24948   0.38951   0.11290   0.00000  Uiso   1.00
O98    O     0.22339   0.13866   0.29600   0.00000  Uiso   1.00
O99    O     0.29374   0.12495   0.28863   0.00000  Uiso   1.00
O100   O     0.24948   0.11049   0.22044   0.00000  Uiso   1.00
O101   O     0.27661   0.13866   0.03733   0.00000  Uiso   1.00
O102   O     0.20626   0.12495   0.04470   0.00000  Uiso   1.00
O103   O     0.25052   0.11049   0.11290   0.00000  Uiso   1.00
O104   O     0.27661   0.36134   0.29600   0.00000  Uiso   1.00
O105   O     0.20626   0.37505   0.28863   0.00000  Uiso   1.00
O106   O     0.04508   0.20491   0.12709   0.00000  Uiso   1.00
O107   O     0.25052   0.38951   0.22044   0.00000  Uiso   1.00
O108   O     0.45491   0.20491   0.12709   0.00000  Uiso   1.00
O109   O     0.04508   0.29509   0.20625   0.00000  Uiso   1.00
O110   O     0.04508   0.29509   0.12709   0.00000  Uiso   1.00
O111   O     0.45491   0.20491   0.20625   0.00000  Uiso   1.00
O112   O     0.29508   0.45491   0.20625   0.00000  Uiso   1.00
S113   S     0.00396   0.14591   0.05545   0.00000  Uiso   1.00
S114   S     0.00396   0.35409   0.27788   0.00000  Uiso   1.00
S115   S     0.49603   0.35409   0.05545   0.00000  Uiso   1.00
S116   S     0.49603   0.14591   0.27788   0.00000  Uiso   1.00
S117   S     0.25397   0.39591   0.05545   0.00000  Uiso   1.00
S118   S     0.25397   0.10409   0.27788   0.00000  Uiso   1.00
S119   S     0.24603   0.10409   0.05545   0.00000  Uiso   1.00
S120   S     0.24603   0.39591   0.27788   0.00000  Uiso   1.00
C121   C     0.56131   0.19341   0.16686   0.00000  Uiso   1.00
C122   C     0.50031   0.29442   0.30807   0.00000  Uiso   1.00
C123   C     0.99969   0.29442   0.02527   0.00000  Uiso   1.00
C124   C     0.99969   0.20558   0.30807   0.00000  Uiso   1.00
C125   C     0.75031   0.45558   0.02527   0.00000  Uiso   1.00
C126   C     0.75031   0.04442   0.30807   0.00000  Uiso   1.00
C127   C     0.74969   0.04442   0.02527   0.00000  Uiso   1.00
C128   C     0.74969   0.45558   0.30807   0.00000  Uiso   1.00
C129   C     0.88835   0.14437   0.12302   0.00000  Uiso   1.00
C130   C     0.61310   0.35435   0.20744   0.00000  Uiso   1.00
C131   C     0.61165   0.35563   0.12302   0.00000  Uiso   1.00
C132   C     0.93869   0.30659   0.16686   0.00000  Uiso   1.00
C133   C     0.88690   0.14565   0.20744   0.00000  Uiso   1.00
C134   C     0.61165   0.14437   0.21032   0.00000  Uiso   1.00
C135   C     0.88690   0.35435   0.12589   0.00000  Uiso   1.00
C136   C     0.88835   0.35563   0.21032   0.00000  Uiso   1.00
C137   C     0.61310   0.14565   0.12589   0.00000  Uiso   1.00
C138   C     0.63835   0.39437   0.12302   0.00000  Uiso   1.00
C139   C     0.86310   0.10435   0.20744   0.00000  Uiso   1.00
C140   C     0.86165   0.10563   0.12302   0.00000  Uiso   1.00
C141   C     0.63690   0.39565   0.20744   0.00000  Uiso   1.00
C142   C     0.86165   0.39437   0.21032   0.00000  Uiso   1.00
C143   C     0.93869   0.19341   0.16648   0.00000  Uiso   1.00
C144   C     0.63690   0.10435   0.12589   0.00000  Uiso   1.00
C145   C     0.63835   0.10563   0.21032   0.00000  Uiso   1.00
C146   C     0.86310   0.39565   0.12589   0.00000  Uiso   1.00
C147   C     0.59668   0.33764   0.16556   0.00000  Uiso   1.00
C148   C     0.90332   0.16236   0.16556   0.00000  Uiso   1.00
C149   C     0.90332   0.33764   0.16777   0.00000  Uiso   1.00
C150   C     0.59668   0.16236   0.16777   0.00000  Uiso   1.00
C151   C     0.84668   0.08764   0.16556   0.00000  Uiso   1.00
C152   C     0.65332   0.41236   0.16556   0.00000  Uiso   1.00
C153   C     0.65332   0.08764   0.16777   0.00000  Uiso   1.00
C154   C     0.56131   0.30659   0.16648   0.00000  Uiso   1.00
C155   C     0.84668   0.41236   0.16777   0.00000  Uiso   1.00
C156   C     0.81131   0.44341   0.16686   0.00000  Uiso   1.00
C157   C     0.68869   0.05659   0.16686   0.00000  Uiso   1.00
C158   C     0.68869   0.44341   0.16648   0.00000  Uiso   1.00
C159   C     0.81131   0.05659   0.16648   0.00000  Uiso   1.00
C160   C     0.50031   0.20558   0.02527   0.00000  Uiso   1.00
Cl161  Cl    0.89825   0.17303   0.06894   0.00000  Uiso   1.00
Cl162  Cl    0.86109   0.06914   0.25892   0.00000  Uiso   1.00
Cl163  Cl    0.85175   0.07697   0.06894   0.00000  Uiso   1.00
Cl164  Cl    0.63890   0.43086   0.25892   0.00000  Uiso   1.00
Cl165  Cl    0.85175   0.42303   0.26440   0.00000  Uiso   1.00
Cl166  Cl    0.63891   0.06914   0.07441   0.00000  Uiso   1.00
Cl167  Cl    0.64825   0.07697   0.26440   0.00000  Uiso   1.00
Cl168  Cl    0.86109   0.43086   0.07441   0.00000  Uiso   1.00
Cl169  Cl    0.61109   0.31914   0.25892   0.00000  Uiso   1.00
Cl170  Cl    0.60175   0.32697   0.06894   0.00000  Uiso   1.00
Cl171  Cl    0.88891   0.18086   0.25892   0.00000  Uiso   1.00
Cl172  Cl    0.60175   0.17303   0.26440   0.00000  Uiso   1.00
Cl173  Cl    0.88891   0.31914   0.07441   0.00000  Uiso   1.00
Cl174  Cl    0.89825   0.32697   0.26440   0.00000  Uiso   1.00
Cl175  Cl    0.61109   0.18086   0.07441   0.00000  Uiso   1.00
Cl176  Cl    0.64825   0.42303   0.06894   0.00000  Uiso   1.00
Cu177  Cu    0.50000   0.25000   0.21355   0.00000  Uiso   1.00
Cu178  Cu    0.50000   0.25000   0.11978   0.00000  Uiso   1.00
Cu179  Cu    0.75000   0.00000   0.21355   0.00000  Uiso   1.00
Cu180  Cu    0.75000   0.00000   0.11978   0.00000  Uiso   1.00
H181   H     0.50584   0.10476   0.11946   0.00000  Uiso   1.00
H182   H     0.50584   0.39524   0.21387   0.00000  Uiso   1.00
H183   H     0.99416   0.39524   0.11946   0.00000  Uiso   1.00
H184   H     0.99416   0.10476   0.21387   0.00000  Uiso   1.00
H185   H     0.75584   0.35476   0.11946   0.00000  Uiso   1.00
H186   H     0.75584   0.14524   0.21387   0.00000  Uiso   1.00
H187   H     0.74416   0.14524   0.11946   0.00000  Uiso   1.00
H188   H     0.74416   0.35476   0.21387   0.00000  Uiso   1.00
N189   N     0.50000   0.25000   0.28402   0.00000  Uiso   1.00
N190   N     0.50000   0.25000   0.04931   0.00000  Uiso   1.00
N191   N     0.75000   0.00000   0.28402   0.00000  Uiso   1.00
N192   N     0.75000   0.00000   0.04931   0.00000  Uiso   1.00
O193   O     0.54508   0.20491   0.20625   0.00000  Uiso   1.00
O194   O     0.70491   0.04509   0.12709   0.00000  Uiso   1.00
O195   O     0.70491   0.04509   0.20625   0.00000  Uiso   1.00
O196   O     0.79508   0.45491   0.12709   0.00000  Uiso   1.00
O197   O     0.70491   0.45491   0.12709   0.00000  Uiso   1.00
O198   O     0.79508   0.04509   0.20625   0.00000  Uiso   1.00
O199   O     0.79508   0.04509   0.12709   0.00000  Uiso   1.00
O200   O     0.70491   0.45491   0.20625   0.00000  Uiso   1.00
O201   O     0.97339   0.11134   0.03733   0.00000  Uiso   1.00
O202   O     0.54374   0.12505   0.04470   0.00000  Uiso   1.00
O203   O     0.99948   0.13951   0.11290   0.00000  Uiso   1.00
O204   O     0.95491   0.29509   0.12709   0.00000  Uiso   1.00
O205   O     0.97339   0.38866   0.29600   0.00000  Uiso   1.00
O206   O     0.54374   0.37495   0.28863   0.00000  Uiso   1.00
O207   O     0.99948   0.36049   0.22043   0.00000  Uiso   1.00
O208   O     0.52661   0.38866   0.03734   0.00000  Uiso   1.00
O209   O     0.95626   0.37495   0.04470   0.00000  Uiso   1.00
O210   O     0.50052   0.36049   0.11290   0.00000  Uiso   1.00
O211   O     0.52661   0.11134   0.29600   0.00000  Uiso   1.00
O212   O     0.95626   0.12505   0.28863   0.00000  Uiso   1.00
O213   O     0.50052   0.13951   0.22043   0.00000  Uiso   1.00
O214   O     0.72339   0.36134   0.03733   0.00000  Uiso   1.00
O215   O     0.95491   0.29509   0.20625   0.00000  Uiso   1.00
O216   O     0.79374   0.37505   0.04470   0.00000  Uiso   1.00
O217   O     0.74948   0.38951   0.11290   0.00000  Uiso   1.00
O218   O     0.72339   0.13866   0.29600   0.00000  Uiso   1.00
O219   O     0.79374   0.12495   0.28863   0.00000  Uiso   1.00
O220   O     0.74948   0.11049   0.22044   0.00000  Uiso   1.00
O221   O     0.77661   0.13866   0.03733   0.00000  Uiso   1.00
O222   O     0.70626   0.12495   0.04470   0.00000  Uiso   1.00
O223   O     0.75052   0.11049   0.11290   0.00000  Uiso   1.00
O224   O     0.77661   0.36134   0.29600   0.00000  Uiso   1.00
O225   O     0.70626   0.37505   0.28863   0.00000  Uiso   1.00
O226   O     0.54508   0.20491   0.12709   0.00000  Uiso   1.00
O227   O     0.75052   0.38951   0.22044   0.00000  Uiso   1.00
O228   O     0.95491   0.20491   0.12709   0.00000  Uiso   1.00
O229   O     0.54508   0.29509   0.20625   0.00000  Uiso   1.00
O230   O     0.54508   0.29509   0.12709   0.00000  Uiso   1.00
O231   O     0.95491   0.20491   0.20625   0.00000  Uiso   1.00
O232   O     0.79508   0.45491   0.20625   0.00000  Uiso   1.00
S233   S     0.50396   0.14591   0.05545   0.00000  Uiso   1.00
S234   S     0.50396   0.35409   0.27788   0.00000  Uiso   1.00
S235   S     0.99603   0.35409   0.05545   0.00000  Uiso   1.00
S236   S     0.99603   0.14591   0.27788   0.00000  Uiso   1.00
S237   S     0.75397   0.39591   0.05545   0.00000  Uiso   1.00
S238   S     0.75397   0.10409   0.27788   0.00000  Uiso   1.00
S239   S     0.74603   0.10409   0.05545   0.00000  Uiso   1.00
S240   S     0.74603   0.39591   0.27788   0.00000  Uiso   1.00
C241   C     0.06131   0.69341   0.16686   0.00000  Uiso   1.00
C242   C     0.00031   0.79442   0.30807   0.00000  Uiso   1.00
C243   C     0.49969   0.79442   0.02527   0.00000  Uiso   1.00
C244   C     0.49969   0.70558   0.30807   0.00000  Uiso   1.00
C245   C     0.25031   0.95558   0.02527   0.00000  Uiso   1.00
C246   C     0.25031   0.54442   0.30807   0.00000  Uiso   1.00
C247   C     0.24969   0.54442   0.02527   0.00000  Uiso   1.00
C248   C     0.24969   0.95558   0.30807   0.00000  Uiso   1.00
C249   C     0.38835   0.64437   0.12302   0.00000  Uiso   1.00
C250   C     0.11310   0.85435   0.20744   0.00000  Uiso   1.00
C251   C     0.11165   0.85563   0.12302   0.00000  Uiso   1.00
C252   C     0.43869   0.80659   0.16686   0.00000  Uiso   1.00
C253   C     0.38690   0.64565   0.20744   0.00000  Uiso   1.00
C254   C     0.11165   0.64437   0.21032   0.00000  Uiso   1.00
C255   C     0.38690   0.85435   0.12589   0.00000  Uiso   1.00
C256   C     0.38835   0.85563   0.21032   0.00000  Uiso   1.00
C257   C     0.11310   0.64565   0.12589   0.00000  Uiso   1.00
C258   C     0.13835   0.89437   0.12302   0.00000  Uiso   1.00
C259   C     0.36310   0.60435   0.20744   0.00000  Uiso   1.00
C260   C     0.36165   0.60563   0.12302   0.00000  Uiso   1.00
C261   C     0.13690   0.89565   0.20744   0.00000  Uiso   1.00
C262   C     0.36165   0.89437   0.21032   0.00000  Uiso   1.00
C263   C     0.43869   0.69341   0.16648   0.00000  Uiso   1.00
C264   C     0.13690   0.60435   0.12589   0.00000  Uiso   1.00
C265   C     0.13835   0.60563   0.21032   0.00000  Uiso   1.00
C266   C     0.36310   0.89565   0.12589   0.00000  Uiso   1.00
C267   C     0.09668   0.83764   0.16556   0.00000  Uiso   1.00
C268   C     0.40332   0.66236   0.16556   0.00000  Uiso   1.00
C269   C     0.40332   0.83764   0.16777   0.00000  Uiso   1.00
C270   C     0.09668   0.66236   0.16777   0.00000  Uiso   1.00
C271   C     0.34668   0.58764   0.16556   0.00000  Uiso   1.00
C272   C     0.15332   0.91236   0.16556   0.00000  Uiso   1.00
C273   C     0.15332   0.58764   0.16777   0.00000  Uiso   1.00
C274   C     0.06131   0.80659   0.16648   0.00000  Uiso   1.00
C275   C     0.34668   0.91236   0.16777   0.00000  Uiso   1.00
C276   C     0.31131   0.94341   0.16686   0.00000  Uiso   1.00
C277   C     0.18869   0.55659   0.16686   0.00000  Uiso   1.00
C278   C     0.18869   0.94341   0.16648   0.00000  Uiso   1.00
C279   C     0.31131   0.55659   0.16648   0.00000  Uiso   1.00
C280   C     0.00031   0.70558   0.02527   0.00000  Uiso   1.00
Cl281  Cl    0.39825   0.67303   0.06894   0.00000  Uiso   1.00
Cl282  Cl    0.36109   0.56914   0.25892   0.00000  Uiso   1.00
Cl283  Cl    0.35175   0.57697   0.06894   0.00000  Uiso   1.00
Cl284  Cl    0.13890   0.93086   0.25892   0.00000  Uiso   1.00
Cl285  Cl    0.35175   0.92303   0.26440   0.00000  Uiso   1.00
Cl286  Cl    0.13891   0.56914   0.07441   0.00000  Uiso   1.00
Cl287  Cl    0.14825   0.57697   0.26440   0.00000  Uiso   1.00
Cl288  Cl    0.36109   0.93086   0.07441   0.00000  Uiso   1.00
Cl289  Cl    0.11109   0.81914   0.25892   0.00000  Uiso   1.00
Cl290  Cl    0.10175   0.82697   0.06894   0.00000  Uiso   1.00
Cl291  Cl    0.38891   0.68086   0.25892   0.00000  Uiso   1.00
Cl292  Cl    0.10175   0.67303   0.26440   0.00000  Uiso   1.00
Cl293  Cl    0.38891   0.81914   0.07441   0.00000  Uiso   1.00
Cl294  Cl    0.39825   0.82697   0.26440   0.00000  Uiso   1.00
Cl295  Cl    0.11109   0.68086   0.07441   0.00000  Uiso   1.00
Cl296  Cl    0.14825   0.92303   0.06894   0.00000  Uiso   1.00
Cu297  Cu   -0.00000   0.75000   0.21355   0.00000  Uiso   1.00
Cu298  Cu    0.00000   0.75000   0.11978   0.00000  Uiso   1.00
Cu299  Cu    0.25000   0.50000   0.21355   0.00000  Uiso   1.00
Cu300  Cu    0.25000   0.50000   0.11978   0.00000  Uiso   1.00
H301   H     0.00584   0.60476   0.11946   0.00000  Uiso   1.00
H302   H     0.00584   0.89524   0.21387   0.00000  Uiso   1.00
H303   H     0.49416   0.89524   0.11946   0.00000  Uiso   1.00
H304   H     0.49416   0.60476   0.21387   0.00000  Uiso   1.00
H305   H     0.25584   0.85476   0.11946   0.00000  Uiso   1.00
H306   H     0.25584   0.64524   0.21387   0.00000  Uiso   1.00
H307   H     0.24416   0.64524   0.11946   0.00000  Uiso   1.00
H308   H     0.24416   0.85476   0.21387   0.00000  Uiso   1.00
N309   N     0.00000   0.75000   0.28402   0.00000  Uiso   1.00
N310   N     0.00000   0.75000   0.04931   0.00000  Uiso   1.00
N311   N     0.25000   0.50000   0.28402   0.00000  Uiso   1.00
N312   N     0.25000   0.50000   0.04931   0.00000  Uiso   1.00
O313   O     0.04508   0.70491   0.20625   0.00000  Uiso   1.00
O314   O     0.20491   0.54509   0.12709   0.00000  Uiso   1.00
O315   O     0.20491   0.54509   0.20625   0.00000  Uiso   1.00
O316   O     0.29508   0.95491   0.12709   0.00000  Uiso   1.00
O317   O     0.20491   0.95491   0.12709   0.00000  Uiso   1.00
O318   O     0.29508   0.54509   0.20625   0.00000  Uiso   1.00
O319   O     0.29508   0.54509   0.12709   0.00000  Uiso   1.00
O320   O     0.20491   0.95491   0.20625   0.00000  Uiso   1.00
O321   O     0.47339   0.61134   0.03733   0.00000  Uiso   1.00
O322   O     0.04374   0.62505   0.04470   0.00000  Uiso   1.00
O323   O     0.49948   0.63951   0.11290   0.00000  Uiso   1.00
O324   O     0.45491   0.79509   0.12709   0.00000  Uiso   1.00
O325   O     0.47339   0.88866   0.29600   0.00000  Uiso   1.00
O326   O     0.04374   0.87495   0.28863   0.00000  Uiso   1.00
O327   O     0.49948   0.86049   0.22043   0.00000  Uiso   1.00
O328   O     0.02661   0.88866   0.03734   0.00000  Uiso   1.00
O329   O     0.45626   0.87495   0.04470   0.00000  Uiso   1.00
O330   O     0.00052   0.86049   0.11290   0.00000  Uiso   1.00
O331   O     0.02661   0.61134   0.29600   0.00000  Uiso   1.00
O332   O     0.45626   0.62505   0.28863   0.00000  Uiso   1.00
O333   O     0.00052   0.63951   0.22043   0.00000  Uiso   1.00
O334   O     0.22339   0.86134   0.03733   0.00000  Uiso   1.00
O335   O     0.45491   0.79509   0.20625   0.00000  Uiso   1.00
O336   O     0.29374   0.87505   0.04470   0.00000  Uiso   1.00
O337   O     0.24948   0.88951   0.11290   0.00000  Uiso   1.00
O338   O     0.22339   0.63866   0.29600   0.00000  Uiso   1.00
O339   O     0.29374   0.62495   0.28863   0.00000  Uiso   1.00
O340   O     0.24948   0.61049   0.22044   0.00000  Uiso   1.00
O341   O     0.27661   0.63866   0.03733   0.00000  Uiso   1.00
O342   O     0.20626   0.62495   0.04470   0.00000  Uiso   1.00
O343   O     0.25052   0.61049   0.11290   0.00000  Uiso   1.00
O344   O     0.27661   0.86134   0.29600   0.00000  Uiso   1.00
O345   O     0.20626   0.87505   0.28863   0.00000  Uiso   1.00
O346   O     0.04508   0.70491   0.12709   0.00000  Uiso   1.00
O347   O     0.25052   0.88951   0.22044   0.00000  Uiso   1.00
O348   O     0.45491   0.70491   0.12709   0.00000  Uiso   1.00
O349   O     0.04508   0.79509   0.20625   0.00000  Uiso   1.00
O350   O     0.04508   0.79509   0.12709   0.00000  Uiso   1.00
O351   O     0.45491   0.70491   0.20625   0.00000  Uiso   1.00
O352   O     0.29508   0.95491   0.20625   0.00000  Uiso   1.00
S353   S     0.00396   0.64591   0.05545   0.00000  Uiso   1.00
S354   S     0.00396   0.85409   0.27788   0.00000  Uiso   1.00
S355   S     0.49603   0.85409   0.05545   0.00000  Uiso   1.00
S356   S     0.49603   0.64591   0.27788   0.00000  Uiso   1.00
S357   S     0.25397   0.89591   0.05545   0.00000  Uiso   1.00
S358   S     0.25397   0.60409   0.27788   0.00000  Uiso   1.00
S359   S     0.24603   0.60409   0.05545   0.00000  Uiso   1.00
S360   S     0.24603   0.89591   0.27788   0.00000  Uiso   1.00
C361   C     0.56131   0.69341   0.16686   0.00000  Uiso   1.00
C362   C     0.50031   0.79442   0.30807   0.00000  Uiso   1.00
C363   C     0.99969   0.79442   0.02527   0.00000  Uiso   1.00
C364   C     0.99969   0.70558   0.30807   0.00000  Uiso   1.00
C365   C     0.75031   0.95558   0.02527   0.00000  Uiso   1.00
C366   C     0.75031   0.54442   0.30807   0.00000  Uiso   1.00
C367   C     0.74969   0.54442   0.02527   0.00000  Uiso   1.00
C368   C     0.74969   0.95558   0.30807   0.00000  Uiso   1.00
C369   C     0.88835   0.64437   0.12302   0.00000  Uiso   1.00
C370   C     0.61310   0.85435   0.20744   0.00000  Uiso   1.00
C371   C     0.61165   0.85563   0.12302   0.00000  Uiso   1.00
C372   C     0.93869   0.80659   0.16686   0.00000  Uiso   1.00
C373   C     0.88690   0.64565   0.20744   0.00000  Uiso   1.00
C374   C     0.61165   0.64437   0.21032   0.00000  Uiso   1.00
C375   C     0.88690   0.85435   0.12589   0.00000  Uiso   1.00
C376   C     0.88835   0.85563   0.21032   0.00000  Uiso   1.00
C377   C     0.61310   0.64565   0.12589   0.00000  Uiso   1.00
C378   C     0.63835   0.89437   0.12302   0.00000  Uiso   1.00
C379   C     0.86310   0.60435   0.20744   0.00000  Uiso   1.00
C380   C     0.86165   0.60563   0.12302   0.00000  Uiso   1.00
C381   C     0.63690   0.89565   0.20744   0.00000  Uiso   1.00
C382   C     0.86165   0.89437   0.21032   0.00000  Uiso   1.00
C383   C     0.93869   0.69341   0.16648   0.00000  Uiso   1.00
C384   C     0.63690   0.60435   0.12589   0.00000  Uiso   1.00
C385   C     0.63835   0.60563   0.21032   0.00000  Uiso   1.00
C386   C     0.86310   0.89565   0.12589   0.00000  Uiso   1.00
C387   C     0.59668   0.83764   0.16556   0.00000  Uiso   1.00
C388   C     0.90332   0.66236   0.16556   0.00000  Uiso   1.00
C389   C     0.90332   0.83764   0.16777   0.00000  Uiso   1.00
C390   C     0.59668   0.66236   0.16777   0.00000  Uiso   1.00
C391   C     0.84668   0.58764   0.16556   0.00000  Uiso   1.00
C392   C     0.65332   0.91236   0.16556   0.00000  Uiso   1.00
C393   C     0.65332   0.58764   0.16777   0.00000  Uiso   1.00
C394   C     0.56131   0.80659   0.16648   0.00000  Uiso   1.00
C395   C     0.84668   0.91236   0.16777   0.00000  Uiso   1.00
C396   C     0.81131   0.94341   0.16686   0.00000  Uiso   1.00
C397   C     0.68869   0.55659   0.16686   0.00000  Uiso   1.00
C398   C     0.68869   0.94341   0.16648   0.00000  Uiso   1.00
C399   C     0.81131   0.55659   0.16648   0.00000  Uiso   1.00
C400   C     0.50031   0.70558   0.02527   0.00000  Uiso   1.00
Cl401  Cl    0.89825   0.67303   0.06894   0.00000  Uiso   1.00
Cl402  Cl    0.86109   0.56914   0.25892   0.00000  Uiso   1.00
Cl403  Cl    0.85175   0.57697   0.06894   0.00000  Uiso   1.00
Cl404  Cl    0.63890   0.93086   0.25892   0.00000  Uiso   1.00
Cl405  Cl    0.85175   0.92303   0.26440   0.00000  Uiso   1.00
Cl406  Cl    0.63891   0.56914   0.07441   0.00000  Uiso   1.00
Cl407  Cl    0.64825   0.57697   0.26440   0.00000  Uiso   1.00
Cl408  Cl    0.86109   0.93086   0.07441   0.00000  Uiso   1.00
Cl409  Cl    0.61109   0.81914   0.25892   0.00000  Uiso   1.00
Cl410  Cl    0.60175   0.82697   0.06894   0.00000  Uiso   1.00
Cl411  Cl    0.88891   0.68086   0.25892   0.00000  Uiso   1.00
Cl412  Cl    0.60175   0.67303   0.26440   0.00000  Uiso   1.00
Cl413  Cl    0.88891   0.81914   0.07441   0.00000  Uiso   1.00
Cl414  Cl    0.89825   0.82697   0.26440   0.00000  Uiso   1.00
Cl415  Cl    0.61109   0.68086   0.07441   0.00000  Uiso   1.00
Cl416  Cl    0.64825   0.92303   0.06894   0.00000  Uiso   1.00
Cu417  Cu    0.50000   0.75000   0.21355   0.00000  Uiso   1.00
Cu418  Cu    0.50000   0.75000   0.11978   0.00000  Uiso   1.00
Cu419  Cu    0.75000   0.50000   0.21355   0.00000  Uiso   1.00
Cu420  Cu    0.75000   0.50000   0.11978   0.00000  Uiso   1.00
H421   H     0.50584   0.60476   0.11946   0.00000  Uiso   1.00
H422   H     0.50584   0.89524   0.21387   0.00000  Uiso   1.00
H423   H     0.99416   0.89524   0.11946   0.00000  Uiso   1.00
H424   H     0.99416   0.60476   0.21387   0.00000  Uiso   1.00
H425   H     0.75584   0.85476   0.11946   0.00000  Uiso   1.00
H426   H     0.75584   0.64524   0.21387   0.00000  Uiso   1.00
H427   H     0.74416   0.64524   0.11946   0.00000  Uiso   1.00
H428   H     0.74416   0.85476   0.21387   0.00000  Uiso   1.00
N429   N     0.50000   0.75000   0.28402   0.00000  Uiso   1.00
N430   N     0.50000   0.75000   0.04931   0.00000  Uiso   1.00
N431   N     0.75000   0.50000   0.28402   0.00000  Uiso   1.00
N432   N     0.75000   0.50000   0.04931   0.00000  Uiso   1.00
O433   O     0.54508   0.70491   0.20625   0.00000  Uiso   1.00
O434   O     0.70491   0.54509   0.12709   0.00000  Uiso   1.00
O435   O     0.70491   0.54509   0.20625   0.00000  Uiso   1.00
O436   O     0.79508   0.95491   0.12709   0.00000  Uiso   1.00
O437   O     0.70491   0.95491   0.12709   0.00000  Uiso   1.00
O438   O     0.79508   0.54509   0.20625   0.00000  Uiso   1.00
O439   O     0.79508   0.54509   0.12709   0.00000  Uiso   1.00
O440   O     0.70491   0.95491   0.20625   0.00000  Uiso   1.00
O441   O     0.97339   0.61134   0.03733   0.00000  Uiso   1.00
O442   O     0.54374   0.62505   0.04470   0.00000  Uiso   1.00
O443   O     0.99948   0.63951   0.11290   0.00000  Uiso   1.00
O444   O     0.95491   0.79509   0.12709   0.00000  Uiso   1.00
O445   O     0.97339   0.88866   0.29600   0.00000  Uiso   1.00
O446   O     0.54374   0.87495   0.28863   0.00000  Uiso   1.00
O447   O     0.99948   0.86049   0.22043   0.00000  Uiso   1.00
O448   O     0.52661   0.88866   0.03734   0.00000  Uiso   1.00
O449   O     0.95626   0.87495   0.04470   0.00000  Uiso   1.00
O450   O     0.50052   0.86049   0.11290   0.00000  Uiso   1.00
O451   O     0.52661   0.61134   0.29600   0.00000  Uiso   1.00
O452   O     0.95626   0.62505   0.28863   0.00000  Uiso   1.00
O453   O     0.50052   0.63951   0.22043   0.00000  Uiso   1.00
O454   O     0.72339   0.86134   0.03733   0.00000  Uiso   1.00
O455   O     0.95491   0.79509   0.20625   0.00000  Uiso   1.00
O456   O     0.79374   0.87505   0.04470   0.00000  Uiso   1.00
O457   O     0.74948   0.88951   0.11290   0.00000  Uiso   1.00
O458   O     0.72339   0.63866   0.29600   0.00000  Uiso   1.00
O459   O     0.79374   0.62495   0.28863   0.00000  Uiso   1.00
O460   O     0.74948   0.61049   0.22044   0.00000  Uiso   1.00
O461   O     0.77661   0.63866   0.03733   0.00000  Uiso   1.00
O462   O     0.70626   0.62495   0.04470   0.00000  Uiso   1.00
O463   O     0.75052   0.61049   0.11290   0.00000  Uiso   1.00
O464   O     0.77661   0.86134   0.29600   0.00000  Uiso   1.00
O465   O     0.70626   0.87505   0.28863   0.00000  Uiso   1.00
O466   O     0.54508   0.70491   0.12709   0.00000  Uiso   1.00
O467   O     0.75052   0.88951   0.22044   0.00000  Uiso   1.00
O468   O     0.95491   0.70491   0.12709   0.00000  Uiso   1.00
O469   O     0.54508   0.79509   0.20625   0.00000  Uiso   1.00
O470   O     0.54508   0.79509   0.12709   0.00000  Uiso   1.00
O471   O     0.95491   0.70491   0.20625   0.00000  Uiso   1.00
O472   O     0.79508   0.95491   0.20625   0.00000  Uiso   1.00
S473   S     0.50396   0.64591   0.05545   0.00000  Uiso   1.00
S474   S     0.50396   0.85409   0.27788   0.00000  Uiso   1.00
S475   S     0.99603   0.85409   0.05545   0.00000  Uiso   1.00
S476   S     0.99603   0.64591   0.27788   0.00000  Uiso   1.00
S477   S     0.75397   0.89591   0.05545   0.00000  Uiso   1.00
S478   S     0.75397   0.60409   0.27788   0.00000  Uiso   1.00
S479   S     0.74603   0.60409   0.05545   0.00000  Uiso   1.00
S480   S     0.74603   0.89591   0.27788   0.00000  Uiso   1.00
C481   C     0.06131   0.19341   0.50019   0.00000  Uiso   1.00
C482   C     0.00031   0.29442   0.64140   0.00000  Uiso   1.00
C483   C     0.49969   0.29442   0.35860   0.00000  Uiso   1.00
C484   C     0.49969   0.20558   0.64140   0.00000  Uiso   1.00
C485   C     0.25031   0.45558   0.35860   0.00000  Uiso   1.00
C486   C     0.25031   0.04442   0.64140   0.00000  Uiso   1.00
C487   C     0.24969   0.04442   0.35860   0.00000  Uiso   1.00
C488   C     0.24969   0.45558   0.64140   0.00000  Uiso   1.00
C489   C     0.38835   0.14437   0.45635   0.00000  Uiso   1.00
C490   C     0.11310   0.35435   0.54077   0.00000  Uiso   1.00
C491   C     0.11165   0.35563   0.45635   0.00000  Uiso   1.00
C492   C     0.43869   0.30659   0.50019   0.00000  Uiso   1.00
C493   C     0.38690   0.14565   0.54077   0.00000  Uiso   1.00
C494   C     0.11165   0.14437   0.54365   0.00000  Uiso   1.00
C495   C     0.38690   0.35435   0.45923   0.00000  Uiso   1.00
C496   C     0.38835   0.35563   0.54365   0.00000  Uiso   1.00
C497   C     0.11310   0.14565   0.45923   0.00000  Uiso   1.00
C498   C     0.13835   0.39437   0.45635   0.00000  Uiso   1.00
C499   C     0.36310   0.10435   0.54077   0.00000  Uiso   1.00
C500   C     0.36165   0.10563   0.45635   0.00000  Uiso   1.00
C501   C     0.13690   0.39565   0.54077   0.00000  Uiso   1.00
C502   C     0.36165   0.39437   0.54365   0.00000  Uiso   1.00
C503   C     0.43869   0.19341   0.49981   0.00000  Uiso   1.00
C504   C     0.13690   0.10435   0.45923   0.00000  Uiso   1.00
C505   C     0.13835   0.10563   0.54365   0.00000  Uiso   1.00
C506   C     0.36310   0.39565   0.45923   0.00000  Uiso   1.00
C507   C     0.09668   0.33764   0.49889   0.00000  Uiso   1.00
C508   C     0.40332   0.16236   0.49890   0.00000  Uiso   1.00
C509   C     0.40332   0.33764   0.50111   0.00000  Uiso   1.00
C510   C     0.09668   0.16236   0.50111   0.00000  Uiso   1.00
C511   C     0.34668   0.08764   0.49889   0.00000  Uiso   1.00
C512   C     0.15332   0.41236   0.49889   0.00000  Uiso   1.00
C513   C     0.15332   0.08764   0.50111   0.00000  Uiso   1.00
C514   C     0.06131   0.30659   0.49981   0.00000  Uiso   1.00
C515   C     0.34668   0.41236   0.50111   0.00000  Uiso   1.00
C516   C     0.31131   0.44341   0.50019   0.00000  Uiso   1.00
C517   C     0.18869   0.05659   0.50019   0.00000  Uiso   1.00
C518   C     0.18869   0.44341   0.49981   0.00000  Uiso   1.00
C519   C     0.31131   0.05659   0.49981   0.00000  Uiso   1.00
C520   C     0.00031   0.20558   0.35860   0.00000  Uiso   1.00
Cl521  Cl    0.39825   0.17303   0.40227   0.00000  Uiso   1.00
Cl522  Cl    0.36109   0.06914   0.59225   0.00000  Uiso   1.00
Cl523  Cl    0.35175   0.07697   0.40227   0.00000  Uiso   1.00
Cl524  Cl    0.13890   0.43086   0.59225   0.00000  Uiso   1.00
Cl525  Cl    0.35175   0.42303   0.59773   0.00000  Uiso   1.00
Cl526  Cl    0.13891   0.06914   0.40775   0.00000  Uiso   1.00
Cl527  Cl    0.14825   0.07697   0.59773   0.00000  Uiso   1.00
Cl528  Cl    0.36109   0.43086   0.40775   0.00000  Uiso   1.00
Cl529  Cl    0.11109   0.31914   0.59226   0.00000  Uiso   1.00
Cl530  Cl    0.10175   0.32697   0.40227   0.00000  Uiso   1.00
Cl531  Cl    0.38891   0.18086   0.59226   0.00000  Uiso   1.00
Cl532  Cl    0.10175   0.17303   0.59773   0.00000  Uiso   1.00
Cl533  Cl    0.38891   0.31914   0.40775   0.00000  Uiso   1.00
Cl534  Cl    0.39825   0.32697   0.59773   0.00000  Uiso   1.00
Cl535  Cl    0.11109   0.18086   0.40775   0.00000  Uiso   1.00
Cl536  Cl    0.14825   0.42303   0.40227   0.00000  Uiso   1.00
Cu537  Cu   -0.00000   0.25000   0.54689   0.00000  Uiso   1.00
Cu538  Cu    0.00000   0.25000   0.45311   0.00000  Uiso   1.00
Cu539  Cu    0.25000   0.00000   0.54689   0.00000  Uiso   1.00
Cu540  Cu    0.25000   0.00000   0.45311   0.00000  Uiso   1.00
H541   H     0.00584   0.10476   0.45280   0.00000  Uiso   1.00
H542   H     0.00584   0.39524   0.54720   0.00000  Uiso   1.00
H543   H     0.49416   0.39524   0.45280   0.00000  Uiso   1.00
H544   H     0.49416   0.10476   0.54720   0.00000  Uiso   1.00
H545   H     0.25584   0.35476   0.45280   0.00000  Uiso   1.00
H546   H     0.25584   0.14524   0.54720   0.00000  Uiso   1.00
H547   H     0.24416   0.14524   0.45280   0.00000  Uiso   1.00
H548   H     0.24416   0.35476   0.54720   0.00000  Uiso   1.00
N549   N     0.00000   0.25000   0.61736   0.00000  Uiso   1.00
N550   N     0.00000   0.25000   0.38264   0.00000  Uiso   1.00
N551   N     0.25000   0.00000   0.61736   0.00000  Uiso   1.00
N552   N     0.25000   0.00000   0.38264   0.00000  Uiso   1.00
O553   O     0.04508   0.20491   0.53958   0.00000  Uiso   1.00
O554   O     0.20491   0.04509   0.46042   0.00000  Uiso   1.00
O555   O     0.20491   0.04509   0.53958   0.00000  Uiso   1.00
O556   O     0.29508   0.45491   0.46042   0.00000  Uiso   1.00
O557   O     0.20491   0.45491   0.46042   0.00000  Uiso   1.00
O558   O     0.29508   0.04509   0.53958   0.00000  Uiso   1.00
O559   O     0.29508   0.04509   0.46042   0.00000  Uiso   1.00
O560   O     0.20491   0.45491   0.53958   0.00000  Uiso   1.00
O561   O     0.47339   0.11134   0.37067   0.00000  Uiso   1.00
O562   O     0.04374   0.12505   0.37803   0.00000  Uiso   1.00
O563   O     0.49948   0.13951   0.44623   0.00000  Uiso   1.00
O564   O     0.45491   0.29509   0.46042   0.00000  Uiso   1.00
O565   O     0.47339   0.38866   0.62933   0.00000  Uiso   1.00
O566   O     0.04374   0.37495   0.62197   0.00000  Uiso   1.00
O567   O     0.49948   0.36049   0.55377   0.00000  Uiso   1.00
O568   O     0.02661   0.38866   0.37067   0.00000  Uiso   1.00
O569   O     0.45626   0.37495   0.37803   0.00000  Uiso   1.00
O570   O     0.00052   0.36049   0.44623   0.00000  Uiso   1.00
O571   O     0.02661   0.11134   0.62933   0.00000  Uiso   1.00
O572   O     0.45626   0.12505   0.62197   0.00000  Uiso   1.00
O573   O     0.00052   0.13951   0.55377   0.00000  Uiso   1.00
O574   O     0.22339   0.36134   0.37067   0.00000  Uiso   1.00
O575   O     0.45491   0.29509   0.53958   0.00000  Uiso   1.00
O576   O     0.29374   0.37505   0.37803   0.00000  Uiso   1.00
O577   O     0.24948   0.38951   0.44623   0.00000  Uiso   1.00
O578   O     0.22339   0.13866   0.62933   0.00000  Uiso   1.00
O579   O     0.29374   0.12495   0.62197   0.00000  Uiso   1.00
O580   O     0.24948   0.11049   0.55377   0.00000  Uiso   1.00
O581   O     0.27661   0.13866   0.37067   0.00000  Uiso   1.00
O582   O     0.20626   0.12495   0.37803   0.00000  Uiso   1.00
O583   O     0.25052   0.11049   0.44623   0.00000  Uiso   1.00
O584   O     0.27661   0.36134   0.62933   0.00000  Uiso   1.00
O585   O     0.20626   0.37505   0.62197   0.00000  Uiso   1.00
O586   O     0.04508   0.20491   0.46042   0.00000  Uiso   1.00
O587   O     0.25052   0.38951   0.55377   0.00000  Uiso   1.00
O588   O     0.45491   0.20491   0.46042   0.00000  Uiso   1.00
O589   O     0.04508   0.29509   0.53958   0.00000  Uiso   1.00
O590   O     0.04508   0.29509   0.46042   0.00000  Uiso   1.00
O591   O     0.45491   0.20491   0.53958   0.00000  Uiso   1.00
O592   O     0.29508   0.45491   0.53958   0.00000  Uiso   1.00
S593   S     0.00396   0.14591   0.38878   0.00000  Uiso   1.00
S594   S     0.00396   0.35409   0.61122   0.00000  Uiso   1.00
S595   S     0.49603   0.35409   0.38878   0.00000  Uiso   1.00
S596   S     0.49603   0.14591   0.61122   0.00000  Uiso   1.00
S597   S     0.25397   0.39591   0.38878   0.00000  Uiso   1.00
S598   S     0.25397   0.10409   0.61122   0.00000  Uiso   1.00
S599   S     0.24603   0.10409   0.38878   0.00000  Uiso   1.00
S600   S     0.24603   0.39591   0.61122   0.00000  Uiso   1.00
C601   C     0.56131   0.19341   0.50019   0.00000  Uiso   1.00
C602   C     0.50031   0.29442   0.64140   0.00000  Uiso   1.00
C603   C     0.99969   0.29442   0.35860   0.00000  Uiso   1.00
C604   C     0.99969   0.20558   0.64140   0.00000  Uiso   1.00
C605   C     0.75031   0.45558   0.35860   0.00000  Uiso   1.00
C606   C     0.75031   0.04442   0.64140   0.00000  Uiso   1.00
C607   C     0.74969   0.04442   0.35860   0.00000  Uiso   1.00
C608   C     0.74969   0.45558   0.64140   0.00000  Uiso   1.00
C609   C     0.88835   0.14437   0.45635   0.00000  Uiso   1.00
C610   C     0.61310   0.35435   0.54077   0.00000  Uiso   1.00
C611   C     0.61165   0.35563   0.45635   0.00000  Uiso   1.00
C612   C     0.93869   0.30659   0.50019   0.00000  Uiso   1.00
C613   C     0.88690   0.14565   0.54077   0.00000  Uiso   1.00
C614   C     0.61165   0.14437   0.54365   0.00000  Uiso   1.00
C615   C     0.88690   0.35435   0.45923   0.00000  Uiso   1.00
C616   C     0.88835   0.35563   0.54365   0.00000  Uiso   1.00
C617   C     0.61310   0.14565   0.45923   0.00000  Uiso   1.00
C618   C     0.63835   0.39437   0.45635   0.00000  Uiso   1.00
C619   C     0.86310   0.10435   0.54077   0.00000  Uiso   1.00
C620   C     0.86165   0.10563   0.45635   0.00000  Uiso   1.00
C621   C     0.63690   0.39565   0.54077   0.00000  Uiso   1.00
C622   C     0.86165   0.39437   0.54365   0.00000  Uiso   1.00
C623   C     0.93869   0.19341   0.49981   0.00000  Uiso   1.00
C624   C     0.63690   0.10435   0.45923   0.00000  Uiso   1.00
C625   C     0.63835   0.10563   0.54365   0.00000  Uiso   1.00
C626   C     0.86310   0.39565   0.45923   0.00000  Uiso   1.00
C627   C     0.59668   0.33764   0.49889   0.00000  Uiso   1.00
C628   C     0.90332   0.16236   0.49890   0.00000  Uiso   1.00
C629   C     0.90332   0.33764   0.50111   0.00000  Uiso   1.00
C630   C     0.59668   0.16236   0.50111   0.00000  Uiso   1.00
C631   C     0.84668   0.08764   0.49889   0.00000  Uiso   1.00
C632   C     0.65332   0.41236   0.49889   0.00000  Uiso   1.00
C633   C     0.65332   0.08764   0.50111   0.00000  Uiso   1.00
C634   C     0.56131   0.30659   0.49981   0.00000  Uiso   1.00
C635   C     0.84668   0.41236   0.50111   0.00000  Uiso   1.00
C636   C     0.81131   0.44341   0.50019   0.00000  Uiso   1.00
C637   C     0.68869   0.05659   0.50019   0.00000  Uiso   1.00
C638   C     0.68869   0.44341   0.49981   0.00000  Uiso   1.00
C639   C     0.81131   0.05659   0.49981   0.00000  Uiso   1.00
C640   C     0.50031   0.20558   0.35860   0.00000  Uiso   1.00
Cl641  Cl    0.89825   0.17303   0.40227   0.00000  Uiso   1.00
Cl642  Cl    0.86109   0.06914   0.59225   0.00000  Uiso   1.00
Cl643  Cl    0.85175   0.07697   0.40227   0.00000  Uiso   1.00
Cl644  Cl    0.63890   0.43086   0.59225   0.00000  Uiso   1.00
Cl645  Cl    0.85175   0.42303   0.59773   0.00000  Uiso   1.00
Cl646  Cl    0.63891   0.06914   0.40775   0.00000  Uiso   1.00
Cl647  Cl    0.64825   0.07697   0.59773   0.00000  Uiso   1.00
Cl648  Cl    0.86109   0.43086   0.40775   0.00000  Uiso   1.00
Cl649  Cl    0.61109   0.31914   0.59226   0.00000  Uiso   1.00
Cl650  Cl    0.60175   0.32697   0.40227   0.00000  Uiso   1.00
Cl651  Cl    0.88891   0.18086   0.59226   0.00000  Uiso   1.00
Cl652  Cl    0.60175   0.17303   0.59773   0.00000  Uiso   1.00
Cl653  Cl    0.88891   0.31914   0.40775   0.00000  Uiso   1.00
Cl654  Cl    0.89825   0.32697   0.59773   0.00000  Uiso   1.00
Cl655  Cl    0.61109   0.18086   0.40775   0.00000  Uiso   1.00
Cl656  Cl    0.64825   0.42303   0.40227   0.00000  Uiso   1.00
Cu657  Cu    0.50000   0.25000   0.54689   0.00000  Uiso   1.00
Cu658  Cu    0.50000   0.25000   0.45311   0.00000  Uiso   1.00
Cu659  Cu    0.75000   0.00000   0.54689   0.00000  Uiso   1.00
Cu660  Cu    0.75000   0.00000   0.45311   0.00000  Uiso   1.00
H661   H     0.50584   0.10476   0.45280   0.00000  Uiso   1.00
H662   H     0.50584   0.39524   0.54720   0.00000  Uiso   1.00
H663   H     0.99416   0.39524   0.45280   0.00000  Uiso   1.00
H664   H     0.99416   0.10476   0.54720   0.00000  Uiso   1.00
H665   H     0.75584   0.35476   0.45280   0.00000  Uiso   1.00
H666   H     0.75584   0.14524   0.54720   0.00000  Uiso   1.00
H667   H     0.74416   0.14524   0.45280   0.00000  Uiso   1.00
H668   H     0.74416   0.35476   0.54720   0.00000  Uiso   1.00
N669   N     0.50000   0.25000   0.61736   0.00000  Uiso   1.00
N670   N     0.50000   0.25000   0.38264   0.00000  Uiso   1.00
N671   N     0.75000   0.00000   0.61736   0.00000  Uiso   1.00
N672   N     0.75000   0.00000   0.38264   0.00000  Uiso   1.00
O673   O     0.54508   0.20491   0.53958   0.00000  Uiso   1.00
O674   O     0.70491   0.04509   0.46042   0.00000  Uiso   1.00
O675   O     0.70491   0.04509   0.53958   0.00000  Uiso   1.00
O676   O     0.79508   0.45491   0.46042   0.00000  Uiso   1.00
O677   O     0.70491   0.45491   0.46042   0.00000  Uiso   1.00
O678   O     0.79508   0.04509   0.53958   0.00000  Uiso   1.00
O679   O     0.79508   0.04509   0.46042   0.00000  Uiso   1.00
O680   O     0.70491   0.45491   0.53958   0.00000  Uiso   1.00
O681   O     0.97339   0.11134   0.37067   0.00000  Uiso   1.00
O682   O     0.54374   0.12505   0.37803   0.00000  Uiso   1.00
O683   O     0.99948   0.13951   0.44623   0.00000  Uiso   1.00
O684   O     0.95491   0.29509   0.46042   0.00000  Uiso   1.00
O685   O     0.97339   0.38866   0.62933   0.00000  Uiso   1.00
O686   O     0.54374   0.37495   0.62197   0.00000  Uiso   1.00
O687   O     0.99948   0.36049   0.55377   0.00000  Uiso   1.00
O688   O     0.52661   0.38866   0.37067   0.00000  Uiso   1.00
O689   O     0.95626   0.37495   0.37803   0.00000  Uiso   1.00
O690   O     0.50052   0.36049   0.44623   0.00000  Uiso   1.00
O691   O     0.52661   0.11134   0.62933   0.00000  Uiso   1.00
O692   O     0.95626   0.12505   0.62197   0.00000  Uiso   1.00
O693   O     0.50052   0.13951   0.55377   0.00000  Uiso   1.00
O694   O     0.72339   0.36134   0.37067   0.00000  Uiso   1.00
O695   O     0.95491   0.29509   0.53958   0.00000  Uiso   1.00
O696   O     0.79374   0.37505   0.37803   0.00000  Uiso   1.00
O697   O     0.74948   0.38951   0.44623   0.00000  Uiso   1.00
O698   O     0.72339   0.13866   0.62933   0.00000  Uiso   1.00
O699   O     0.79374   0.12495   0.62197   0.00000  Uiso   1.00
O700   O     0.74948   0.11049   0.55377   0.00000  Uiso   1.00
O701   O     0.77661   0.13866   0.37067   0.00000  Uiso   1.00
O702   O     0.70626   0.12495   0.37803   0.00000  Uiso   1.00
O703   O     0.75052   0.11049   0.44623   0.00000  Uiso   1.00
O704   O     0.77661   0.36134   0.62933   0.00000  Uiso   1.00
O705   O     0.70626   0.37505   0.62197   0.00000  Uiso   1.00
O706   O     0.54508   0.20491   0.46042   0.00000  Uiso   1.00
O707   O     0.75052   0.38951   0.55377   0.00000  Uiso   1.00
O708   O     0.95491   0.20491   0.46042   0.00000  Uiso   1.00
O709   O     0.54508   0.29509   0.53958   0.00000  Uiso   1.00
O710   O     0.54508   0.29509   0.46042   0.00000  Uiso   1.00
O711   O     0.95491   0.20491   0.53958   0.00000  Uiso   1.00
O712   O     0.79508   0.45491   0.53958   0.00000  Uiso   1.00
S713   S     0.50396   0.14591   0.38878   0.00000  Uiso   1.00
S714   S     0.50396   0.35409   0.61122   0.00000  Uiso   1.00
S715   S     0.99603   0.35409   0.38878   0.00000  Uiso   1.00
S716   S     0.99603   0.14591   0.61122   0.00000  Uiso   1.00
S717   S     0.75397   0.39591   0.38878   0.00000  Uiso   1.00
S718   S     0.75397   0.10409   0.61122   0.00000  Uiso   1.00
S719   S     0.74603   0.10409   0.38878   0.00000  Uiso   1.00
S720   S     0.74603   0.39591   0.61122   0.00000  Uiso   1.00
C721   C     0.06131   0.69341   0.50019   0.00000  Uiso   1.00
C722   C     0.00031   0.79442   0.64140   0.00000  Uiso   1.00
C723   C     0.49969   0.79442   0.35860   0.00000  Uiso   1.00
C724   C     0.49969   0.70558   0.64140   0.00000  Uiso   1.00
C725   C     0.25031   0.95558   0.35860   0.00000  Uiso   1.00
C726   C     0.25031   0.54442   0.64140   0.00000  Uiso   1.00
C727   C     0.24969   0.54442   0.35860   0.00000  Uiso   1.00
C728   C     0.24969   0.95558   0.64140   0.00000  Uiso   1.00
C729   C     0.38835   0.64437   0.45635   0.00000  Uiso   1.00
C730   C     0.11310   0.85435   0.54077   0.00000  Uiso   1.00
C731   C     0.11165   0.85563   0.45635   0.00000  Uiso   1.00
C732   C     0.43869   0.80659   0.50019   0.00000  Uiso   1.00
C733   C     0.38690   0.64565   0.54077   0.00000  Uiso   1.00
C734   C     0.11165   0.64437   0.54365   0.00000  Uiso   1.00
C735   C     0.38690   0.85435   0.45923   0.00000  Uiso   1.00
C736   C     0.38835   0.85563   0.54365   0.00000  Uiso   1.00
C737   C     0.11310   0.64565   0.45923   0.00000  Uiso   1.00
C738   C     0.13835   0.89437   0.45635   0.00000  Uiso   1.00
C739   C     0.36310   0.60435   0.54077   0.00000  Uiso   1.00
C740   C     0.36165   0.60563   0.45635   0.00000  Uiso   1.00
C741   C     0.13690   0.89565   0.54077   0.00000  Uiso   1.00
C742   C     0.36165   0.89437   0.54365   0.00000  Uiso   1.00
C743   C     0.43869   0.69341   0.49981   0.00000  Uiso   1.00
C744   C     0.13690   0.60435   0.45923   0.00000  Uiso   1.00
C745   C     0.13835   0.60563   0.54365   0.00000  Uiso   1.00
C746   C     0.36310   0.89565   0.45923   0.00000  Uiso   1.00
C747   C     0.09668   0.83764   0.49889   0.00000  Uiso   1.00
C748   C     0.40332   0.66236   0.49890   0.00000  Uiso   1.00
C749   C     0.40332   0.83764   0.50111   0.00000  Uiso   1.00
C750   C     0.09668   0.66236   0.50111   0.00000  Uiso   1.00
C751   C     0.34668   0.58764   0.49889   0.00000  Uiso   1.00
C752   C     0.15332   0.91236   0.49889   0.00000  Uiso   1.00
C753   C     0.15332   0.58764   0.50111   0.00000  Uiso   1.00
C754   C     0.06131   0.80659   0.49981   0.00000  Uiso   1.00
C755   C     0.34668   0.91236   0.50111   0.00000  Uiso   1.00
C756   C     0.31131   0.94341   0.50019   0.00000  Uiso   1.00
C757   C     0.18869   0.55659   0.50019   0.00000  Uiso   1.00
C758   C     0.18869   0.94341   0.49981   0.00000  Uiso   1.00
C759   C     0.31131   0.55659   0.49981   0.00000  Uiso   1.00
C760   C     0.00031   0.70558   0.35860   0.00000  Uiso   1.00
Cl761  Cl    0.39825   0.67303   0.40227   0.00000  Uiso   1.00
Cl762  Cl    0.36109   0.56914   0.59225   0.00000  Uiso   1.00
Cl763  Cl    0.35175   0.57697   0.40227   0.00000  Uiso   1.00
Cl764  Cl    0.13890   0.93086   0.59225   0.00000  Uiso   1.00
Cl765  Cl    0.35175   0.92303   0.59773   0.00000  Uiso   1.00
Cl766  Cl    0.13891   0.56914   0.40775   0.00000  Uiso   1.00
Cl767  Cl    0.14825   0.57697   0.59773   0.00000  Uiso   1.00
Cl768  Cl    0.36109   0.93086   0.40775   0.00000  Uiso   1.00
Cl769  Cl    0.11109   0.81914   0.59226   0.00000  Uiso   1.00
Cl770  Cl    0.10175   0.82697   0.40227   0.00000  Uiso   1.00
Cl771  Cl    0.38891   0.68086   0.59226   0.00000  Uiso   1.00
Cl772  Cl    0.10175   0.67303   0.59773   0.00000  Uiso   1.00
Cl773  Cl    0.38891   0.81914   0.40775   0.00000  Uiso   1.00
Cl774  Cl    0.39825   0.82697   0.59773   0.00000  Uiso   1.00
Cl775  Cl    0.11109   0.68086   0.40775   0.00000  Uiso   1.00
Cl776  Cl    0.14825   0.92303   0.40227   0.00000  Uiso   1.00
Cu777  Cu   -0.00000   0.75000   0.54689   0.00000  Uiso   1.00
Cu778  Cu    0.00000   0.75000   0.45311   0.00000  Uiso   1.00
Cu779  Cu    0.25000   0.50000   0.54689   0.00000  Uiso   1.00
Cu780  Cu    0.25000   0.50000   0.45311   0.00000  Uiso   1.00
H781   H     0.00584   0.60476   0.45280   0.00000  Uiso   1.00
H782   H     0.00584   0.89524   0.54720   0.00000  Uiso   1.00
H783   H     0.49416   0.89524   0.45280   0.00000  Uiso   1.00
H784   H     0.49416   0.60476   0.54720   0.00000  Uiso   1.00
H785   H     0.25584   0.85476   0.45280   0.00000  Uiso   1.00
H786   H     0.25584   0.64524   0.54720   0.00000  Uiso   1.00
H787   H     0.24416   0.64524   0.45280   0.00000  Uiso   1.00
H788   H     0.24416   0.85476   0.54720   0.00000  Uiso   1.00
N789   N     0.00000   0.75000   0.61736   0.00000  Uiso   1.00
N790   N     0.00000   0.75000   0.38264   0.00000  Uiso   1.00
N791   N     0.25000   0.50000   0.61736   0.00000  Uiso   1.00
N792   N     0.25000   0.50000   0.38264   0.00000  Uiso   1.00
O793   O     0.04508   0.70491   0.53958   0.00000  Uiso   1.00
O794   O     0.20491   0.54509   0.46042   0.00000  Uiso   1.00
O795   O     0.20491   0.54509   0.53958   0.00000  Uiso   1.00
O796   O     0.29508   0.95491   0.46042   0.00000  Uiso   1.00
O797   O     0.20491   0.95491   0.46042   0.00000  Uiso   1.00
O798   O     0.29508   0.54509   0.53958   0.00000  Uiso   1.00
O799   O     0.29508   0.54509   0.46042   0.00000  Uiso   1.00
O800   O     0.20491   0.95491   0.53958   0.00000  Uiso   1.00
O801   O     0.47339   0.61134   0.37067   0.00000  Uiso   1.00
O802   O     0.04374   0.62505   0.37803   0.00000  Uiso   1.00
O803   O     0.49948   0.63951   0.44623   0.00000  Uiso   1.00
O804   O     0.45491   0.79509   0.46042   0.00000  Uiso   1.00
O805   O     0.47339   0.88866   0.62933   0.00000  Uiso   1.00
O806   O     0.04374   0.87495   0.62197   0.00000  Uiso   1.00
O807   O     0.49948   0.86049   0.55377   0.00000  Uiso   1.00
O808   O     0.02661   0.88866   0.37067   0.00000  Uiso   1.00
O809   O     0.45626   0.87495   0.37803   0.00000  Uiso   1.00
O810   O     0.00052   0.86049   0.44623   0.00000  Uiso   1.00
O811   O     0.02661   0.61134   0.62933   0.00000  Uiso   1.00
O812   O     0.45626   0.62505   0.62197   0.00000  Uiso   1.00
O813   O     0.00052   0.63951   0.55377   0.00000  Uiso   1.00
O814   O     0.22339   0.86134   0.37067   0.00000  Uiso   1.00
O815   O     0.45491   0.79509   0.53958   0.00000  Uiso   1.00
O816   O     0.29374   0.87505   0.37803   0.00000  Uiso   1.00
O817   O     0.24948   0.88951   0.44623   0.00000  Uiso   1.00
O818   O     0.22339   0.63866   0.62933   0.00000  Uiso   1.00
O819   O     0.29374   0.62495   0.62197   0.00000  Uiso   1.00
O820   O     0.24948   0.61049   0.55377   0.00000  Uiso   1.00
O821   O     0.27661   0.63866   0.37067   0.00000  Uiso   1.00
O822   O     0.20626   0.62495   0.37803   0.00000  Uiso   1.00
O823   O     0.25052   0.61049   0.44623   0.00000  Uiso   1.00
O824   O     0.27661   0.86134   0.62933   0.00000  Uiso   1.00
O825   O     0.20626   0.87505   0.62197   0.00000  Uiso   1.00
O826   O     0.04508   0.70491   0.46042   0.00000  Uiso   1.00
O827   O     0.25052   0.88951   0.55377   0.00000  Uiso   1.00
O828   O     0.45491   0.70491   0.46042   0.00000  Uiso   1.00
O829   O     0.04508   0.79509   0.53958   0.00000  Uiso   1.00
O830   O     0.04508   0.79509   0.46042   0.00000  Uiso   1.00
O831   O     0.45491   0.70491   0.53958   0.00000  Uiso   1.00
O832   O     0.29508   0.95491   0.53958   0.00000  Uiso   1.00
S833   S     0.00396   0.64591   0.38878   0.00000  Uiso   1.00
S834   S     0.00396   0.85409   0.61122   0.00000  Uiso   1.00
S835   S     0.49603   0.85409   0.38878   0.00000  Uiso   1.00
S836   S     0.49603   0.64591   0.61122   0.00000  Uiso   1.00
S837   S     0.25397   0.89591   0.38878   0.00000  Uiso   1.00
S838   S     0.25397   0.60409   0.61122   0.00000  Uiso   1.00
S839   S     0.24603   0.60409   0.38878   0.00000  Uiso   1.00
S840   S     0.24603   0.89591   0.61122   0.00000  Uiso   1.00
C841   C     0.56131   0.69341   0.50019   0.00000  Uiso   1.00
C842   C     0.50031   0.79442   0.64140   0.00000  Uiso   1.00
C843   C     0.99969   0.79442   0.35860   0.00000  Uiso   1.00
C844   C     0.99969   0.70558   0.64140   0.00000  Uiso   1.00
C845   C     0.75031   0.95558   0.35860   0.00000  Uiso   1.00
C846   C     0.75031   0.54442   0.64140   0.00000  Uiso   1.00
C847   C     0.74969   0.54442   0.35860   0.00000  Uiso   1.00
C848   C     0.74969   0.95558   0.64140   0.00000  Uiso   1.00
C849   C     0.88835   0.64437   0.45635   0.00000  Uiso   1.00
C850   C     0.61310   0.85435   0.54077   0.00000  Uiso   1.00
C851   C     0.61165   0.85563   0.45635   0.00000  Uiso   1.00
C852   C     0.93869   0.80659   0.50019   0.00000  Uiso   1.00
C853   C     0.88690   0.64565   0.54077   0.00000  Uiso   1.00
C854   C     0.61165   0.64437   0.54365   0.00000  Uiso   1.00
C855   C     0.88690   0.85435   0.45923   0.00000  Uiso   1.00
C856   C     0.88835   0.85563   0.54365   0.00000  Uiso   1.00
C857   C     0.61310   0.64565   0.45923   0.00000  Uiso   1.00
C858   C     0.63835   0.89437   0.45635   0.00000  Uiso   1.00
C859   C     0.86310   0.60435   0.54077   0.00000  Uiso   1.00
C860   C     0.86165   0.60563   0.45635   0.00000  Uiso   1.00
C861   C     0.63690   0.89565   0.54077   0.00000  Uiso   1.00
C862   C     0.86165   0.89437   0.54365   0.00000  Uiso   1.00
C863   C     0.93869   0.69341   0.49981   0.00000  Uiso   1.00
C864   C     0.63690   0.60435   0.45923   0.00000  Uiso   1.00
C865   C     0.63835   0.60563   0.54365   0.00000  Uiso   1.00
C866   C     0.86310   0.89565   0.45923   0.00000  Uiso   1.00
C867   C     0.59668   0.83764   0.49889   0.00000  Uiso   1.00
C868   C     0.90332   0.66236   0.49890   0.00000  Uiso   1.00
C869   C     0.90332   0.83764   0.50111   0.00000  Uiso   1.00
C870   C     0.59668   0.66236   0.50111   0.00000  Uiso   1.00
C871   C     0.84668   0.58764   0.49889   0.00000  Uiso   1.00
C872   C     0.65332   0.91236   0.49889   0.00000  Uiso   1.00
C873   C     0.65332   0.58764   0.50111   0.00000  Uiso   1.00
C874   C     0.56131   0.80659   0.49981   0.00000  Uiso   1.00
C875   C     0.84668   0.91236   0.50111   0.00000  Uiso   1.00
C876   C     0.81131   0.94341   0.50019   0.00000  Uiso   1.00
C877   C     0.68869   0.55659   0.50019   0.00000  Uiso   1.00
C878   C     0.68869   0.94341   0.49981   0.00000  Uiso   1.00
C879   C     0.81131   0.55659   0.49981   0.00000  Uiso   1.00
C880   C     0.50031   0.70558   0.35860   0.00000  Uiso   1.00
Cl881  Cl    0.89825   0.67303   0.40227   0.00000  Uiso   1.00
Cl882  Cl    0.86109   0.56914   0.59225   0.00000  Uiso   1.00
Cl883  Cl    0.85175   0.57697   0.40227   0.00000  Uiso   1.00
Cl884  Cl    0.63890   0.93086   0.59225   0.00000  Uiso   1.00
Cl885  Cl    0.85175   0.92303   0.59773   0.00000  Uiso   1.00
Cl886  Cl    0.63891   0.56914   0.40775   0.00000  Uiso   1.00
Cl887  Cl    0.64825   0.57697   0.59773   0.00000  Uiso   1.00
Cl888  Cl    0.86109   0.93086   0.40775   0.00000  Uiso   1.00
Cl889  Cl    0.61109   0.81914   0.59226   0.00000  Uiso   1.00
Cl890  Cl    0.60175   0.82697   0.40227   0.00000  Uiso   1.00
Cl891  Cl    0.88891   0.68086   0.59226   0.00000  Uiso   1.00
Cl892  Cl    0.60175   0.67303   0.59773   0.00000  Uiso   1.00
Cl893  Cl    0.88891   0.81914   0.40775   0.00000  Uiso   1.00
Cl894  Cl    0.89825   0.82697   0.59773   0.00000  Uiso   1.00
Cl895  Cl    0.61109   0.68086   0.40775   0.00000  Uiso   1.00
Cl896  Cl    0.64825   0.92303   0.40227   0.00000  Uiso   1.00
Cu897  Cu    0.50000   0.75000   0.54689   0.00000  Uiso   1.00
Cu898  Cu    0.50000   0.75000   0.45311   0.00000  Uiso   1.00
Cu899  Cu    0.75000   0.50000   0.54689   0.00000  Uiso   1.00
Cu900  Cu    0.75000   0.50000   0.45311   0.00000  Uiso   1.00
H901   H     0.50584   0.60476   0.45280   0.00000  Uiso   1.00
H902   H     0.50584   0.89524   0.54720   0.00000  Uiso   1.00
H903   H     0.99416   0.89524   0.45280   0.00000  Uiso   1.00
H904   H     0.99416   0.60476   0.54720   0.00000  Uiso   1.00
H905   H     0.75584   0.85476   0.45280   0.00000  Uiso   1.00
H906   H     0.75584   0.64524   0.54720   0.00000  Uiso   1.00
H907   H     0.74416   0.64524   0.45280   0.00000  Uiso   1.00
H908   H     0.74416   0.85476   0.54720   0.00000  Uiso   1.00
N909   N     0.50000   0.75000   0.61736   0.00000  Uiso   1.00
N910   N     0.50000   0.75000   0.38264   0.00000  Uiso   1.00
N911   N     0.75000   0.50000   0.61736   0.00000  Uiso   1.00
N912   N     0.75000   0.50000   0.38264   0.00000  Uiso   1.00
O913   O     0.54508   0.70491   0.53958   0.00000  Uiso   1.00
O914   O     0.70491   0.54509   0.46042   0.00000  Uiso   1.00
O915   O     0.70491   0.54509   0.53958   0.00000  Uiso   1.00
O916   O     0.79508   0.95491   0.46042   0.00000  Uiso   1.00
O917   O     0.70491   0.95491   0.46042   0.00000  Uiso   1.00
O918   O     0.79508   0.54509   0.53958   0.00000  Uiso   1.00
O919   O     0.79508   0.54509   0.46042   0.00000  Uiso   1.00
O920   O     0.70491   0.95491   0.53958   0.00000  Uiso   1.00
O921   O     0.97339   0.61134   0.37067   0.00000  Uiso   1.00
O922   O     0.54374   0.62505   0.37803   0.00000  Uiso   1.00
O923   O     0.99948   0.63951   0.44623   0.00000  Uiso   1.00
O924   O     0.95491   0.79509   0.46042   0.00000  Uiso   1.00
O925   O     0.97339   0.88866   0.62933   0.00000  Uiso   1.00
O926   O     0.54374   0.87495   0.62197   0.00000  Uiso   1.00
O927   O     0.99948   0.86049   0.55377   0.00000  Uiso   1.00
O928   O     0.52661   0.88866   0.37067   0.00000  Uiso   1.00
O929   O     0.95626   0.87495   0.37803   0.00000  Uiso   1.00
O930   O     0.50052   0.86049   0.44623   0.00000  Uiso   1.00
O931   O     0.52661   0.61134   0.62933   0.00000  Uiso   1.00
O932   O     0.95626   0.62505   0.62197   0.00000  Uiso   1.00
O933   O     0.50052   0.63951   0.55377   0.00000  Uiso   1.00
O934   O     0.72339   0.86134   0.37067   0.00000  Uiso   1.00
O935   O     0.95491   0.79509   0.53958   0.00000  Uiso   1.00
O936   O     0.79374   0.87505   0.37803   0.00000  Uiso   1.00
O937   O     0.74948   0.88951   0.44623   0.00000  Uiso   1.00
O938   O     0.72339   0.63866   0.62933   0.00000  Uiso   1.00
O939   O     0.79374   0.62495   0.62197   0.00000  Uiso   1.00
O940   O     0.74948   0.61049   0.55377   0.00000  Uiso   1.00
O941   O     0.77661   0.63866   0.37067   0.00000  Uiso   1.00
O942   O     0.70626   0.62495   0.37803   0.00000  Uiso   1.00
O943   O     0.75052   0.61049   0.44623   0.00000  Uiso   1.00
O944   O     0.77661   0.86134   0.62933   0.00000  Uiso   1.00
O945   O     0.70626   0.87505   0.62197   0.00000  Uiso   1.00
O946   O     0.54508   0.70491   0.46042   0.00000  Uiso   1.00
O947   O     0.75052   0.88951   0.55377   0.00000  Uiso   1.00
O948   O     0.95491   0.70491   0.46042   0.00000  Uiso   1.00
O949   O     0.54508   0.79509   0.53958   0.00000  Uiso   1.00
O950   O     0.54508   0.79509   0.46042   0.00000  Uiso   1.00
O951   O     0.95491   0.70491   0.53958   0.00000  Uiso   1.00
O952   O     0.79508   0.95491   0.53958   0.00000  Uiso   1.00
S953   S     0.50396   0.64591   0.38878   0.00000  Uiso   1.00
S954   S     0.50396   0.85409   0.61122   0.00000  Uiso   1.00
S955   S     0.99603   0.85409   0.38878   0.00000  Uiso   1.00
S956   S     0.99603   0.64591   0.61122   0.00000  Uiso   1.00
S957   S     0.75397   0.89591   0.38878   0.00000  Uiso   1.00
S958   S     0.75397   0.60409   0.61122   0.00000  Uiso   1.00
S959   S     0.74603   0.60409   0.38878   0.00000  Uiso   1.00
S960   S     0.74603   0.89591   0.61122   0.00000  Uiso   1.00
C961   C     0.06131   0.19341   0.83352   0.00000  Uiso   1.00
C962   C     0.00031   0.29442   0.97473   0.00000  Uiso   1.00
C963   C     0.49969   0.29442   0.69193   0.00000  Uiso   1.00
C964   C     0.49969   0.20558   0.97473   0.00000  Uiso   1.00
C965   C     0.25031   0.45558   0.69193   0.00000  Uiso   1.00
C966   C     0.25031   0.04442   0.97473   0.00000  Uiso   1.00
C967   C     0.24969   0.04442   0.69193   0.00000  Uiso   1.00
C968   C     0.24969   0.45558   0.97473   0.00000  Uiso   1.00
C969   C     0.38835   0.14437   0.78968   0.00000  Uiso   1.00
C970   C     0.11310   0.35435   0.87411   0.00000  Uiso   1.00
C971   C     0.11165   0.35563   0.78968   0.00000  Uiso   1.00
C972   C     0.43869   0.30659   0.83352   0.00000  Uiso   1.00
C973   C     0.38690   0.14565   0.87411   0.00000  Uiso   1.00
C974   C     0.11165   0.14437   0.87698   0.00000  Uiso   1.00
C975   C     0.38690   0.35435   0.79256   0.00000  Uiso   1.00
C976   C     0.38835   0.35563   0.87698   0.00000  Uiso   1.00
C977   C     0.11310   0.14565   0.79256   0.00000  Uiso   1.00
C978   C     0.13835   0.39437   0.78968   0.00000  Uiso   1.00
C979   C     0.36310   0.10435   0.87411   0.00000  Uiso   1.00
C980   C     0.36165   0.10563   0.78968   0.00000  Uiso   1.00
C981   C     0.13690   0.39565   0.87411   0.00000  Uiso   1.00
C982   C     0.36165   0.39437   0.87698   0.00000  Uiso   1.00
C983   C     0.43869   0.19341   0.83314   0.00000  Uiso   1.00
C984   C     0.13690   0.10435   0.79256   0.00000  Uiso   1.00
C985   C     0.13835   0.10563   0.87698   0.00000  Uiso   1.00
C986   C     0.36310   0.39565   0.79256   0.00000  Uiso   1.00
C987   C     0.09668   0.33764   0.83223   0.00000  Uiso   1.00
C988   C     0.40332   0.16236   0.83223   0.00000  Uiso   1.00
C989   C     0.40332   0.33764   0.83444   0.00000  Uiso   1.00
C990   C     0.09668   0.16236   0.83444   0.00000  Uiso   1.00
C991   C     0.34668   0.08764   0.83223   0.00000  Uiso   1.00
C992   C     0.15332   0.41236   0.83223   0.00000  Uiso   1.00
C993   C     0.15332   0.08764   0.83444   0.00000  Uiso   1.00
C994   C     0.06131   0.30659   0.83314   0.00000  Uiso   1.00
C995   C     0.34668   0.41236   0.83444   0.00000  Uiso   1.00
C996   C     0.31131   0.44341   0.83352   0.00000  Uiso   1.00
C997   C     0.18869   0.05659   0.83352   0.00000  Uiso   1.00
C998   C     0.18869   0.44341   0.83314   0.00000  Uiso   1.00
C999   C     0.31131   0.05659   0.83314   0.00000  Uiso   1.00
C1000  C     0.00031   0.20558   0.69193   0.00000  Uiso   1.00
Cl1001 Cl    0.39825   0.17303   0.73560   0.00000  Uiso   1.00
Cl1002 Cl    0.36109   0.06914   0.92559   0.00000  Uiso   1.00
Cl1003 Cl    0.35175   0.07697   0.73560   0.00000  Uiso   1.00
Cl1004 Cl    0.13890   0.43086   0.92559   0.00000  Uiso   1.00
Cl1005 Cl    0.35175   0.42303   0.93106   0.00000  Uiso   1.00
Cl1006 Cl    0.13891   0.06914   0.74108   0.00000  Uiso   1.00
Cl1007 Cl    0.14825   0.07697   0.93106   0.00000  Uiso   1.00
Cl1008 Cl    0.36109   0.43086   0.74108   0.00000  Uiso   1.00
Cl1009 Cl    0.11109   0.31914   0.92559   0.00000  Uiso   1.00
Cl1010 Cl    0.10175   0.32697   0.73560   0.00000  Uiso   1.00
Cl1011 Cl    0.38891   0.18086   0.92559   0.00000  Uiso   1.00
Cl1012 Cl    0.10175   0.17303   0.93106   0.00000  Uiso   1.00
Cl1013 Cl    0.38891   0.31914   0.74108   0.00000  Uiso   1.00
Cl1014 Cl    0.39825   0.32697   0.93106   0.00000  Uiso   1.00
Cl1015 Cl    0.11109   0.18086   0.74108   0.00000  Uiso   1.00
Cl1016 Cl    0.14825   0.42303   0.73560   0.00000  Uiso   1.00
Cu1017 Cu   -0.00000   0.25000   0.88022   0.00000  Uiso   1.00
Cu1018 Cu    0.00000   0.25000   0.78645   0.00000  Uiso   1.00
Cu1019 Cu    0.25000   0.00000   0.88022   0.00000  Uiso   1.00
Cu1020 Cu    0.25000   0.00000   0.78645   0.00000  Uiso   1.00
H1021  H     0.00584   0.10476   0.78613   0.00000  Uiso   1.00
H1022  H     0.00584   0.39524   0.88054   0.00000  Uiso   1.00
H1023  H     0.49416   0.39524   0.78613   0.00000  Uiso   1.00
H1024  H     0.49416   0.10476   0.88054   0.00000  Uiso   1.00
H1025  H     0.25584   0.35476   0.78613   0.00000  Uiso   1.00
H1026  H     0.25584   0.14524   0.88054   0.00000  Uiso   1.00
H1027  H     0.24416   0.14524   0.78613   0.00000  Uiso   1.00
H1028  H     0.24416   0.35476   0.88054   0.00000  Uiso   1.00
N1029  N     0.00000   0.25000   0.95069   0.00000  Uiso   1.00
N1030  N     0.00000   0.25000   0.71598   0.00000  Uiso   1.00
N1031  N     0.25000   0.00000   0.95069   0.00000  Uiso   1.00
N1032  N     0.25000   0.00000   0.71598   0.00000  Uiso   1.00
O1033  O     0.04508   0.20491   0.87291   0.00000  Uiso   1.00
O1034  O     0.20491   0.04509   0.79375   0.00000  Uiso   1.00
O1035  O     0.20491   0.04509   0.87291   0.00000  Uiso   1.00
O1036  O     0.29508   0.45491   0.79375   0.00000  Uiso   1.00
O1037  O     0.20491   0.45491   0.79375   0.00000  Uiso   1.00
O1038  O     0.29508   0.04509   0.87291   0.00000  Uiso   1.00
O1039  O     0.29508   0.04509   0.79375   0.00000  Uiso   1.00
O1040  O     0.20491   0.45491   0.87291   0.00000  Uiso   1.00
O1041  O     0.47339   0.11134   0.70400   0.00000  Uiso   1.00
O1042  O     0.04374   0.12505   0.71137   0.00000  Uiso   1.00
O1043  O     0.49948   0.13951   0.77957   0.00000  Uiso   1.00
O1044  O     0.45491   0.29509   0.79375   0.00000  Uiso   1.00
O1045  O     0.47339   0.38866   0.96267   0.00000  Uiso   1.00
O1046  O     0.04374   0.37495   0.95530   0.00000  Uiso   1.00
O1047  O     0.49948   0.36049   0.88710   0.00000  Uiso   1.00
O1048  O     0.02661   0.38866   0.70400   0.00000  Uiso   1.00
O1049  O     0.45626   0.37495   0.71137   0.00000  Uiso   1.00
O1050  O     0.00052   0.36049   0.77957   0.00000  Uiso   1.00
O1051  O     0.02661   0.11134   0.96267   0.00000  Uiso   1.00
O1052  O     0.45626   0.12505   0.95530   0.00000  Uiso   1.00
O1053  O     0.00052   0.13951   0.88710   0.00000  Uiso   1.00
O1054  O     0.22339   0.36134   0.70400   0.00000  Uiso   1.00
O1055  O     0.45491   0.29509   0.87291   0.00000  Uiso   1.00
O1056  O     0.29374   0.37505   0.71137   0.00000  Uiso   1.00
O1057  O     0.24948   0.38951   0.77957   0.00000  Uiso   1.00
O1058  O     0.22339   0.13866   0.96267   0.00000  Uiso   1.00
O1059  O     0.29374   0.12495   0.95530   0.00000  Uiso   1.00
O1060  O     0.24948   0.11049   0.88710   0.00000  Uiso   1.00
O1061  O     0.27661   0.13866   0.70400   0.00000  Uiso   1.00
O1062  O     0.20626   0.12495   0.71137   0.00000  Uiso   1.00
O1063  O     0.25052   0.11049   0.77957   0.00000  Uiso   1.00
O1064  O     0.27661   0.36134   0.96267   0.00000  Uiso   1.00
O1065  O     0.20626   0.37505   0.95530   0.00000  Uiso   1.00
O1066  O     0.04508   0.20491   0.79375   0.00000  Uiso   1.00
O1067  O     0.25052   0.38951   0.88710   0.00000  Uiso   1.00
O1068  O     0.45491   0.20491   0.79375   0.00000  Uiso   1.00
O1069  O     0.04508   0.29509   0.87291   0.00000  Uiso   1.00
O1070  O     0.04508   0.29509   0.79375   0.00000  Uiso   1.00
O1071  O     0.45491   0.20491   0.87291   0.00000  Uiso   1.00
O1072  O     0.29508   0.45491   0.87291   0.00000  Uiso   1.00
S1073  S     0.00396   0.14591   0.72212   0.00000  Uiso   1.00
S1074  S     0.00396   0.35409   0.94455   0.00000  Uiso   1.00
S1075  S     0.49603   0.35409   0.72212   0.00000  Uiso   1.00
S1076  S     0.49603   0.14591   0.94455   0.00000  Uiso   1.00
S1077  S     0.25397   0.39591   0.72212   0.00000  Uiso   1.00
S1078  S     0.25397   0.10409   0.94455   0.00000  Uiso   1.00
S1079  S     0.24603   0.10409   0.72212   0.00000  Uiso   1.00
S1080  S     0.24603   0.39591   0.94455   0.00000  Uiso   1.00
C1081  C     0.56131   0.19341   0.83352   0.00000  Uiso   1.00
C1082  C     0.50031   0.29442   0.97473   0.00000  Uiso   1.00
C1083  C     0.99969   0.29442   0.69193   0.00000  Uiso   1.00
C1084  C     0.99969   0.20558   0.97473   0.00000  Uiso   1.00
C1085  C     0.75031   0.45558   0.69193   0.00000  Uiso   1.00
C1086  C     0.75031   0.04442   0.97473   0.00000  Uiso   1.00
C1087  C     0.74969   0.04442   0.69193   0.00000  Uiso   1.00
C1088  C     0.74969   0.45558   0.97473   0.00000  Uiso   1.00
C1089  C     0.88835   0.14437   0.78968   0.00000  Uiso   1.00
C1090  C     0.61310   0.35435   0.87411   0.00000  Uiso   1.00
C1091  C     0.61165   0.35563   0.78968   0.00000  Uiso   1.00
C1092  C     0.93869   0.30659   0.83352   0.00000  Uiso   1.00
C1093  C     0.88690   0.14565   0.87411   0.00000  Uiso   1.00
C1094  C     0.61165   0.14437   0.87698   0.00000  Uiso   1.00
C1095  C     0.88690   0.35435   0.79256   0.00000  Uiso   1.00
C1096  C     0.88835   0.35563   0.87698   0.00000  Uiso   1.00
C1097  C     0.61310   0.14565   0.79256   0.00000  Uiso   1.00
C1098  C     0.63835   0.39437   0.78968   0.00000  Uiso   1.00
C1099  C     0.86310   0.10435   0.87411   0.00000  Uiso   1.00
C1100  C     0.86165   0.10563   0.78968   0.00000  Uiso   1.00
C1101  C     0.63690   0.39565   0.87411   0.00000  Uiso   1.00
C1102  C     0.86165   0.39437   0.87698   0.00000  Uiso   1.00
C1103  C     0.93869   0.19341   0.83314   0.00000  Uiso   1.00
C1104  C     0.63690   0.10435   0.79256   0.00000  Uiso   1.00
C1105  C     0.63835   0.10563   0.87698   0.00000  Uiso   1.00
C1106  C     0.86310   0.39565   0.79256   0.00000  Uiso   1.00
C1107  C     0.59668   0.33764   0.83223   0.00000  Uiso   1.00
C1108  C     0.90332   0.16236   0.83223   0.00000  Uiso   1.00
C1109  C     0.90332   0.33764   0.83444   0.00000  Uiso   1.00
C1110  C     0.59668   0.16236   0.83444   0.00000  Uiso   1.00
C1111  C     0.84668   0.08764   0.83223   0.00000  Uiso   1.00
C1112  C     0.65332   0.41236   0.83223   0.00000  Uiso   1.00
C1113  C     0.65332   0.08764   0.83444   0.00000  Uiso   1.00
C1114  C     0.56131   0.30659   0.83314   0.00000  Uiso   1.00
C1115  C     0.84668   0.41236   0.83444   0.00000  Uiso   1.00
C1116  C     0.81131   0.44341   0.83352   0.00000  Uiso   1.00
C1117  C     0.68869   0.05659   0.83352   0.00000  Uiso   1.00
C1118  C     0.68869   0.44341   0.83314   0.00000  Uiso   1.00
C1119  C     0.81131   0.05659   0.83314   0.00000  Uiso   1.00
C1120  C     0.50031   0.20558   0.69193   0.00000  Uiso   1.00
Cl1121 Cl    0.89825   0.17303   0.73560   0.00000  Uiso   1.00
Cl1122 Cl    0.86109   0.06914   0.92559   0.00000  Uiso   1.00
Cl1123 Cl    0.85175   0.07697   0.73560   0.00000  Uiso   1.00
Cl1124 Cl    0.63890   0.43086   0.92559   0.00000  Uiso   1.00
Cl1125 Cl    0.85175   0.42303   0.93106   0.00000  Uiso   1.00
Cl1126 Cl    0.63891   0.06914   0.74108   0.00000  Uiso   1.00
Cl1127 Cl    0.64825   0.07697   0.93106   0.00000  Uiso   1.00
Cl1128 Cl    0.86109   0.43086   0.74108   0.00000  Uiso   1.00
Cl1129 Cl    0.61109   0.31914   0.92559   0.00000  Uiso   1.00
Cl1130 Cl    0.60175   0.32697   0.73560   0.00000  Uiso   1.00
Cl1131 Cl    0.88891   0.18086   0.92559   0.00000  Uiso   1.00
Cl1132 Cl    0.60175   0.17303   0.93106   0.00000  Uiso   1.00
Cl1133 Cl    0.88891   0.31914   0.74108   0.00000  Uiso   1.00
Cl1134 Cl    0.89825   0.32697   0.93106   0.00000  Uiso   1.00
Cl1135 Cl    0.61109   0.18086   0.74108   0.00000  Uiso   1.00
Cl1136 Cl    0.64825   0.42303   0.73560   0.00000  Uiso   1.00
Cu1137 Cu    0.50000   0.25000   0.88022   0.00000  Uiso   1.00
Cu1138 Cu    0.50000   0.25000   0.78645   0.00000  Uiso   1.00
Cu1139 Cu    0.75000   0.00000   0.88022   0.00000  Uiso   1.00
Cu1140 Cu    0.75000   0.00000   0.78645   0.00000  Uiso   1.00
H1141  H     0.50584   0.10476   0.78613   0.00000  Uiso   1.00
H1142  H     0.50584   0.39524   0.88054   0.00000  Uiso   1.00
H1143  H     0.99416   0.39524   0.78613   0.00000  Uiso   1.00
H1144  H     0.99416   0.10476   0.88054   0.00000  Uiso   1.00
H1145  H     0.75584   0.35476   0.78613   0.00000  Uiso   1.00
H1146  H     0.75584   0.14524   0.88054   0.00000  Uiso   1.00
H1147  H     0.74416   0.14524   0.78613   0.00000  Uiso   1.00
H1148  H     0.74416   0.35476   0.88054   0.00000  Uiso   1.00
N1149  N     0.50000   0.25000   0.95069   0.00000  Uiso   1.00
N1150  N     0.50000   0.25000   0.71598   0.00000  Uiso   1.00
N1151  N     0.75000   0.00000   0.95069   0.00000  Uiso   1.00
N1152  N     0.75000   0.00000   0.71598   0.00000  Uiso   1.00
O1153  O     0.54508   0.20491   0.87291   0.00000  Uiso   1.00
O1154  O     0.70491   0.04509   0.79375   0.00000  Uiso   1.00
O1155  O     0.70491   0.04509   0.87291   0.00000  Uiso   1.00
O1156  O     0.79508   0.45491   0.79375   0.00000  Uiso   1.00
O1157  O     0.70491   0.45491   0.79375   0.00000  Uiso   1.00
O1158  O     0.79508   0.04509   0.87291   0.00000  Uiso   1.00
O1159  O     0.79508   0.04509   0.79375   0.00000  Uiso   1.00
O1160  O     0.70491   0.45491   0.87291   0.00000  Uiso   1.00
O1161  O     0.97339   0.11134   0.70400   0.00000  Uiso   1.00
O1162  O     0.54374   0.12505   0.71137   0.00000  Uiso   1.00
O1163  O     0.99948   0.13951   0.77957   0.00000  Uiso   1.00
O1164  O     0.95491   0.29509   0.79375   0.00000  Uiso   1.00
O1165  O     0.97339   0.38866   0.96267   0.00000  Uiso   1.00
O1166  O     0.54374   0.37495   0.95530   0.00000  Uiso   1.00
O1167  O     0.99948   0.36049   0.88710   0.00000  Uiso   1.00
O1168  O     0.52661   0.38866   0.70400   0.00000  Uiso   1.00
O1169  O     0.95626   0.37495   0.71137   0.00000  Uiso   1.00
O1170  O     0.50052   0.36049   0.77957   0.00000  Uiso   1.00
O1171  O     0.52661   0.11134   0.96267   0.00000  Uiso   1.00
O1172  O     0.95626   0.12505   0.95530   0.00000  Uiso   1.00
O1173  O     0.50052   0.13951   0.88710   0.00000  Uiso   1.00
O1174  O     0.72339   0.36134   0.70400   0.00000  Uiso   1.00
O1175  O     0.95491   0.29509   0.87291   0.00000  Uiso   1.00
O1176  O     0.79374   0.37505   0.71137   0.00000  Uiso   1.00
O1177  O     0.74948   0.38951   0.77957   0.00000  Uiso   1.00
O1178  O     0.72339   0.13866   0.96267   0.00000  Uiso   1.00
O1179  O     0.79374   0.12495   0.95530   0.00000  Uiso   1.00
O1180  O     0.74948   0.11049   0.88710   0.00000  Uiso   1.00
O1181  O     0.77661   0.13866   0.70400   0.00000  Uiso   1.00
O1182  O     0.70626   0.12495   0.71137   0.00000  Uiso   1.00
O1183  O     0.75052   0.11049   0.77957   0.00000  Uiso   1.00
O1184  O     0.77661   0.36134   0.96267   0.00000  Uiso   1.00
O1185  O     0.70626   0.37505   0.95530   0.00000  Uiso   1.00
O1186  O     0.54508   0.20491   0.79375   0.00000  Uiso   1.00
O1187  O     0.75052   0.38951   0.88710   0.00000  Uiso   1.00
O1188  O     0.95491   0.20491   0.79375   0.00000  Uiso   1.00
O1189  O     0.54508   0.29509   0.87291   0.00000  Uiso   1.00
O1190  O     0.54508   0.29509   0.79375   0.00000  Uiso   1.00
O1191  O     0.95491   0.20491   0.87291   0.00000  Uiso   1.00
O1192  O     0.79508   0.45491   0.87291   0.00000  Uiso   1.00
S1193  S     0.50396   0.14591   0.72212   0.00000  Uiso   1.00
S1194  S     0.50396   0.35409   0.94455   0.00000  Uiso   1.00
S1195  S     0.99603   0.35409   0.72212   0.00000  Uiso   1.00
S1196  S     0.99603   0.14591   0.94455   0.00000  Uiso   1.00
S1197  S     0.75397   0.39591   0.72212   0.00000  Uiso   1.00
S1198  S     0.75397   0.10409   0.94455   0.00000  Uiso   1.00
S1199  S     0.74603   0.10409   0.72212   0.00000  Uiso   1.00
S1200  S     0.74603   0.39591   0.94455   0.00000  Uiso   1.00
C1201  C     0.06131   0.69341   0.83352   0.00000  Uiso   1.00
C1202  C     0.00031   0.79442   0.97473   0.00000  Uiso   1.00
C1203  C     0.49969   0.79442   0.69193   0.00000  Uiso   1.00
C1204  C     0.49969   0.70558   0.97473   0.00000  Uiso   1.00
C1205  C     0.25031   0.95558   0.69193   0.00000  Uiso   1.00
C1206  C     0.25031   0.54442   0.97473   0.00000  Uiso   1.00
C1207  C     0.24969   0.54442   0.69193   0.00000  Uiso   1.00
C1208  C     0.24969   0.95558   0.97473   0.00000  Uiso   1.00
C1209  C     0.38835   0.64437   0.78968   0.00000  Uiso   1.00
C1210  C     0.11310   0.85435   0.87411   0.00000  Uiso   1.00
C1211  C     0.11165   0.85563   0.78968   0.00000  Uiso   1.00
C1212  C     0.43869   0.80659   0.83352   0.00000  Uiso   1.00
C1213  C     0.38690   0.64565   0.87411   0.00000  Uiso   1.00
C1214  C     0.11165   0.64437   0.87698   0.00000  Uiso   1.00
C1215  C     0.38690   0.85435   0.79256   0.00000  Uiso   1.00
C1216  C     0.38835   0.85563   0.87698   0.00000  Uiso   1.00
C1217  C     0.11310   0.64565   0.79256   0.00000  Uiso   1.00
C1218  C     0.13835   0.89437   0.78968   0.00000  Uiso   1.00
C1219  C     0.36310   0.60435   0.87411   0.00000  Uiso   1.00
C1220  C     0.36165   0.60563   0.78968   0.00000  Uiso   1.00
C1221  C     0.13690   0.89565   0.87411   0.00000  Uiso   1.00
C1222  C     0.36165   0.89437   0.87698   0.00000  Uiso   1.00
C1223  C     0.43869   0.69341   0.83314   0.00000  Uiso   1.00
C1224  C     0.13690   0.60435   0.79256   0.00000  Uiso   1.00
C1225  C     0.13835   0.60563   0.87698   0.00000  Uiso   1.00
C1226  C     0.36310   0.89565   0.79256   0.00000  Uiso   1.00
C1227  C     0.09668   0.83764   0.83223   0.00000  Uiso   1.00
C1228  C     0.40332   0.66236   0.83223   0.00000  Uiso   1.00
C1229  C     0.40332   0.83764   0.83444   0.00000  Uiso   1.00
C1230  C     0.09668   0.66236   0.83444   0.00000  Uiso   1.00
C1231  C     0.34668   0.58764   0.83223   0.00000  Uiso   1.00
C1232  C     0.15332   0.91236   0.83223   0.00000  Uiso   1.00
C1233  C     0.15332   0.58764   0.83444   0.00000  Uiso   1.00
C1234  C     0.06131   0.80659   0.83314   0.00000  Uiso   1.00
C1235  C     0.34668   0.91236   0.83444   0.00000  Uiso   1.00
C1236  C     0.31131   0.94341   0.83352   0.00000  Uiso   1.00
C1237  C     0.18869   0.55659   0.83352   0.00000  Uiso   1.00
C1238  C     0.18869   0.94341   0.83314   0.00000  Uiso   1.00
C1239  C     0.31131   0.55659   0.83314   0.00000  Uiso   1.00
C1240  C     0.00031   0.70558   0.69193   0.00000  Uiso   1.00
Cl1241 Cl    0.39825   0.67303   0.73560   0.00000  Uiso   1.00
Cl1242 Cl    0.36109   0.56914   0.92559   0.00000  Uiso   1.00
Cl1243 Cl    0.35175   0.57697   0.73560   0.00000  Uiso   1.00
Cl1244 Cl    0.13890   0.93086   0.92559   0.00000  Uiso   1.00
Cl1245 Cl    0.35175   0.92303   0.93106   0.00000  Uiso   1.00
Cl1246 Cl    0.13891   0.56914   0.74108   0.00000  Uiso   1.00
Cl1247 Cl    0.14825   0.57697   0.93106   0.00000  Uiso   1.00
Cl1248 Cl    0.36109   0.93086   0.74108   0.00000  Uiso   1.00
Cl1249 Cl    0.11109   0.81914   0.92559   0.00000  Uiso   1.00
Cl1250 Cl    0.10175   0.82697   0.73560   0.00000  Uiso   1.00
Cl1251 Cl    0.38891   0.68086   0.92559   0.00000  Uiso   1.00
Cl1252 Cl    0.10175   0.67303   0.93106   0.00000  Uiso   1.00
Cl1253 Cl    0.38891   0.81914   0.74108   0.00000  Uiso   1.00
Cl1254 Cl    0.39825   0.82697   0.93106   0.00000  Uiso   1.00
Cl1255 Cl    0.11109   0.68086   0.74108   0.00000  Uiso   1.00
Cl1256 Cl    0.14825   0.92303   0.73560   0.00000  Uiso   1.00
Cu1257 Cu   -0.00000   0.75000   0.88022   0.00000  Uiso   1.00
Cu1258 Cu    0.00000   0.75000   0.78645   0.00000  Uiso   1.00
Cu1259 Cu    0.25000   0.50000   0.88022   0.00000  Uiso   1.00
Cu1260 Cu    0.25000   0.50000   0.78645   0.00000  Uiso   1.00
H1261  H     0.00584   0.60476   0.78613   0.00000  Uiso   1.00
H1262  H     0.00584   0.89524   0.88054   0.00000  Uiso   1.00
H1263  H     0.49416   0.89524   0.78613   0.00000  Uiso   1.00
H1264  H     0.49416   0.60476   0.88054   0.00000  Uiso   1.00
H1265  H     0.25584   0.85476   0.78613   0.00000  Uiso   1.00
H1266  H     0.25584   0.64524   0.88054   0.00000  Uiso   1.00
H1267  H     0.24416   0.64524   0.78613   0.00000  Uiso   1.00
H1268  H     0.24416   0.85476   0.88054   0.00000  Uiso   1.00
N1269  N     0.00000   0.75000   0.95069   0.00000  Uiso   1.00
N1270  N     0.00000   0.75000   0.71598   0.00000  Uiso   1.00
N1271  N     0.25000   0.50000   0.95069   0.00000  Uiso   1.00
N1272  N     0.25000   0.50000   0.71598   0.00000  Uiso   1.00
O1273  O     0.04508   0.70491   0.87291   0.00000  Uiso   1.00
O1274  O     0.20491   0.54509   0.79375   0.00000  Uiso   1.00
O1275  O     0.20491   0.54509   0.87291   0.00000  Uiso   1.00
O1276  O     0.29508   0.95491   0.79375   0.00000  Uiso   1.00
O1277  O     0.20491   0.95491   0.79375   0.00000  Uiso   1.00
O1278  O     0.29508   0.54509   0.87291   0.00000  Uiso   1.00
O1279  O     0.29508   0.54509   0.79375   0.00000  Uiso   1.00
O1280  O     0.20491   0.95491   0.87291   0.00000  Uiso   1.00
O1281  O     0.47339   0.61134   0.70400   0.00000  Uiso   1.00
O1282  O     0.04374   0.62505   0.71137   0.00000  Uiso   1.00
O1283  O     0.49948   0.63951   0.77957   0.00000  Uiso   1.00
O1284  O     0.45491   0.79509   0.79375   0.00000  Uiso   1.00
O1285  O     0.47339   0.88866   0.96267   0.00000  Uiso   1.00
O1286  O     0.04374   0.87495   0.95530   0.00000  Uiso   1.00
O1287  O     0.49948   0.86049   0.88710   0.00000  Uiso   1.00
O1288  O     0.02661   0.88866   0.70400   0.00000  Uiso   1.00
O1289  O     0.45626   0.87495   0.71137   0.00000  Uiso   1.00
O1290  O     0.00052   0.86049   0.77957   0.00000  Uiso   1.00
O1291  O     0.02661   0.61134   0.96267   0.00000  Uiso   1.00
O1292  O     0.45626   0.62505   0.95530   0.00000  Uiso   1.00
O1293  O     0.00052   0.63951   0.88710   0.00000  Uiso   1.00
O1294  O     0.22339   0.86134   0.70400   0.00000  Uiso   1.00
O1295  O     0.45491   0.79509   0.87291   0.00000  Uiso   1.00
O1296  O     0.29374   0.87505   0.71137   0.00000  Uiso   1.00
O1297  O     0.24948   0.88951   0.77957   0.00000  Uiso   1.00
O1298  O     0.22339   0.63866   0.96267   0.00000  Uiso   1.00
O1299  O     0.29374   0.62495   0.95530   0.00000  Uiso   1.00
O1300  O     0.24948   0.61049   0.88710   0.00000  Uiso   1.00
O1301  O     0.27661   0.63866   0.70400   0.00000  Uiso   1.00
O1302  O     0.20626   0.62495   0.71137   0.00000  Uiso   1.00
O1303  O     0.25052   0.61049   0.77957   0.00000  Uiso   1.00
O1304  O     0.27661   0.86134   0.96267   0.00000  Uiso   1.00
O1305  O     0.20626   0.87505   0.95530   0.00000  Uiso   1.00
O1306  O     0.04508   0.70491   0.79375   0.00000  Uiso   1.00
O1307  O     0.25052   0.88951   0.88710   0.00000  Uiso   1.00
O1308  O     0.45491   0.70491   0.79375   0.00000  Uiso   1.00
O1309  O     0.04508   0.79509   0.87291   0.00000  Uiso   1.00
O1310  O     0.04508   0.79509   0.79375   0.00000  Uiso   1.00
O1311  O     0.45491   0.70491   0.87291   0.00000  Uiso   1.00
O1312  O     0.29508   0.95491   0.87291   0.00000  Uiso   1.00
S1313  S     0.00396   0.64591   0.72212   0.00000  Uiso   1.00
S1314  S     0.00396   0.85409   0.94455   0.00000  Uiso   1.00
S1315  S     0.49603   0.85409   0.72212   0.00000  Uiso   1.00
S1316  S     0.49603   0.64591   0.94455   0.00000  Uiso   1.00
S1317  S     0.25397   0.89591   0.72212   0.00000  Uiso   1.00
S1318  S     0.25397   0.60409   0.94455   0.00000  Uiso   1.00
S1319  S     0.24603   0.60409   0.72212   0.00000  Uiso   1.00
S1320  S     0.24603   0.89591   0.94455   0.00000  Uiso   1.00
C1321  C     0.56131   0.69341   0.83352   0.00000  Uiso   1.00
C1322  C     0.50031   0.79442   0.97473   0.00000  Uiso   1.00
C1323  C     0.99969   0.79442   0.69193   0.00000  Uiso   1.00
C1324  C     0.99969   0.70558   0.97473   0.00000  Uiso   1.00
C1325  C     0.75031   0.95558   0.69193   0.00000  Uiso   1.00
C1326  C     0.75031   0.54442   0.97473   0.00000  Uiso   1.00
C1327  C     0.74969   0.54442   0.69193   0.00000  Uiso   1.00
C1328  C     0.74969   0.95558   0.97473   0.00000  Uiso   1.00
C1329  C     0.88835   0.64437   0.78968   0.00000  Uiso   1.00
C1330  C     0.61310   0.85435   0.87411   0.00000  Uiso   1.00
C1331  C     0.61165   0.85563   0.78968   0.00000  Uiso   1.00
C1332  C     0.93869   0.80659   0.83352   0.00000  Uiso   1.00
C1333  C     0.88690   0.64565   0.87411   0.00000  Uiso   1.00
C1334  C     0.61165   0.64437   0.87698   0.00000  Uiso   1.00
C1335  C     0.88690   0.85435   0.79256   0.00000  Uiso   1.00
C1336  C     0.88835   0.85563   0.87698   0.00000  Uiso   1.00
C1337  C     0.61310   0.64565   0.79256   0.00000  Uiso   1.00
C1338  C     0.63835   0.89437   0.78968   0.00000  Uiso   1.00
C1339  C     0.86310   0.60435   0.87411   0.00000  Uiso   1.00
C1340  C     0.86165   0.60563   0.78968   0.00000  Uiso   1.00
C1341  C     0.63690   0.89565   0.87411   0.00000  Uiso   1.00
C1342  C     0.86165   0.89437   0.87698   0.00000  Uiso   1.00
C1343  C     0.93869   0.69341   0.83314   0.00000  Uiso   1.00
C1344  C     0.63690   0.60435   0.79256   0.00000  Uiso   1.00
C1345  C     0.63835   0.60563   0.87698   0.00000  Uiso   1.00
C1346  C     0.86310   0.89565   0.79256   0.00000  Uiso   1.00
C1347  C     0.59668   0.83764   0.83223   0.00000  Uiso   1.00
C1348  C     0.90332   0.66236   0.83223   0.00000  Uiso   1.00
C1349  C     0.90332   0.83764   0.83444   0.00000  Uiso   1.00
C1350  C     0.59668   0.66236   0.83444   0.00000  Uiso   1.00
C1351  C     0.84668   0.58764   0.83223   0.00000  Uiso   1.00
C1352  C     0.65332   0.91236   0.83223   0.00000  Uiso   1.00
C1353  C     0.65332   0.58764   0.83444   0.00000  Uiso   1.00
C1354  C     0.56131   0.80659   0.83314   0.00000  Uiso   1.00
C1355  C     0.84668   0.91236   0.83444   0.00000  Uiso   1.00
C1356  C     0.81131   0.94341   0.83352   0.00000  Uiso   1.00
C1357  C     0.68869   0.55659   0.83352   0.00000  Uiso   1.00
C1358  C     0.68869   0.94341   0.83314   0.00000  Uiso   1.00
C1359  C     0.81131   0.55659   0.83314   0.00000  Uiso   1.00
C1360  C     0.50031   0.70558   0.69193   0.00000  Uiso   1.00
Cl1361 Cl    0.89825   0.67303   0.73560   0.00000  Uiso   1.00
Cl1362 Cl    0.86109   0.56914   0.92559   0.00000  Uiso   1.00
Cl1363 Cl    0.85175   0.57697   0.73560   0.00000  Uiso   1.00
Cl1364 Cl    0.63890   0.93086   0.92559   0.00000  Uiso   1.00
Cl1365 Cl    0.85175   0.92303   0.93106   0.00000  Uiso   1.00
Cl1366 Cl    0.63891   0.56914   0.74108   0.00000  Uiso   1.00
Cl1367 Cl    0.64825   0.57697   0.93106   0.00000  Uiso   1.00
Cl1368 Cl    0.86109   0.93086   0.74108   0.00000  Uiso   1.00
Cl1369 Cl    0.61109   0.81914   0.92559   0.00000  Uiso   1.00
Cl1370 Cl    0.60175   0.82697   0.73560   0.00000  Uiso   1.00
Cl1371 Cl    0.88891   0.68086   0.92559   0.00000  Uiso   1.00
Cl1372 Cl    0.60175   0.67303   0.93106   0.00000  Uiso   1.00
Cl1373 Cl    0.88891   0.81914   0.74108   0.00000  Uiso   1.00
Cl1374 Cl    0.89825   0.82697   0.93106   0.00000  Uiso   1.00
Cl1375 Cl    0.61109   0.68086   0.74108   0.00000  Uiso   1.00
Cl1376 Cl    0.64825   0.92303   0.73560   0.00000  Uiso   1.00
Cu1377 Cu    0.50000   0.75000   0.88022   0.00000  Uiso   1.00
Cu1378 Cu    0.50000   0.75000   0.78645   0.00000  Uiso   1.00
Cu1379 Cu    0.75000   0.50000   0.88022   0.00000  Uiso   1.00
Cu1380 Cu    0.75000   0.50000   0.78645   0.00000  Uiso   1.00
H1381  H     0.50584   0.60476   0.78613   0.00000  Uiso   1.00
H1382  H     0.50584   0.89524   0.88054   0.00000  Uiso   1.00
H1383  H     0.99416   0.89524   0.78613   0.00000  Uiso   1.00
H1384  H     0.99416   0.60476   0.88054   0.00000  Uiso   1.00
H1385  H     0.75584   0.85476   0.78613   0.00000  Uiso   1.00
H1386  H     0.75584   0.64524   0.88054   0.00000  Uiso   1.00
H1387  H     0.74416   0.64524   0.78613   0.00000  Uiso   1.00
H1388  H     0.74416   0.85476   0.88054   0.00000  Uiso   1.00
N1389  N     0.50000   0.75000   0.95069   0.00000  Uiso   1.00
N1390  N     0.50000   0.75000   0.71598   0.00000  Uiso   1.00
N1391  N     0.75000   0.50000   0.95069   0.00000  Uiso   1.00
N1392  N     0.75000   0.50000   0.71598   0.00000  Uiso   1.00
O1393  O     0.54508   0.70491   0.87291   0.00000  Uiso   1.00
O1394  O     0.70491   0.54509   0.79375   0.00000  Uiso   1.00
O1395  O     0.70491   0.54509   0.87291   0.00000  Uiso   1.00
O1396  O     0.79508   0.95491   0.79375   0.00000  Uiso   1.00
O1397  O     0.70491   0.95491   0.79375   0.00000  Uiso   1.00
O1398  O     0.79508   0.54509   0.87291   0.00000  Uiso   1.00
O1399  O     0.79508   0.54509   0.79375   0.00000  Uiso   1.00
O1400  O     0.70491   0.95491   0.87291   0.00000  Uiso   1.00
O1401  O     0.97339   0.61134   0.70400   0.00000  Uiso   1.00
O1402  O     0.54374   0.62505   0.71137   0.00000  Uiso   1.00
O1403  O     0.99948   0.63951   0.77957   0.00000  Uiso   1.00
O1404  O     0.95491   0.79509   0.79375   0.00000  Uiso   1.00
O1405  O     0.97339   0.88866   0.96267   0.00000  Uiso   1.00
O1406  O     0.54374   0.87495   0.95530   0.00000  Uiso   1.00
O1407  O     0.99948   0.86049   0.88710   0.00000  Uiso   1.00
O1408  O     0.52661   0.88866   0.70400   0.00000  Uiso   1.00
O1409  O     0.95626   0.87495   0.71137   0.00000  Uiso   1.00
O1410  O     0.50052   0.86049   0.77957   0.00000  Uiso   1.00
O1411  O     0.52661   0.61134   0.96267   0.00000  Uiso   1.00
O1412  O     0.95626   0.62505   0.95530   0.00000  Uiso   1.00
O1413  O     0.50052   0.63951   0.88710   0.00000  Uiso   1.00
O1414  O     0.72339   0.86134   0.70400   0.00000  Uiso   1.00
O1415  O     0.95491   0.79509   0.87291   0.00000  Uiso   1.00
O1416  O     0.79374   0.87505   0.71137   0.00000  Uiso   1.00
O1417  O     0.74948   0.88951   0.77957   0.00000  Uiso   1.00
O1418  O     0.72339   0.63866   0.96267   0.00000  Uiso   1.00
O1419  O     0.79374   0.62495   0.95530   0.00000  Uiso   1.00
O1420  O     0.74948   0.61049   0.88710   0.00000  Uiso   1.00
O1421  O     0.77661   0.63866   0.70400   0.00000  Uiso   1.00
O1422  O     0.70626   0.62495   0.71137   0.00000  Uiso   1.00
O1423  O     0.75052   0.61049   0.77957   0.00000  Uiso   1.00
O1424  O     0.77661   0.86134   0.96267   0.00000  Uiso   1.00
O1425  O     0.70626   0.87505   0.95530   0.00000  Uiso   1.00
O1426  O     0.54508   0.70491   0.79375   0.00000  Uiso   1.00
O1427  O     0.75052   0.88951   0.88710   0.00000  Uiso   1.00
O1428  O     0.95491   0.70491   0.79375   0.00000  Uiso   1.00
O1429  O     0.54508   0.79509   0.87291   0.00000  Uiso   1.00
O1430  O     0.54508   0.79509   0.79375   0.00000  Uiso   1.00
O1431  O     0.95491   0.70491   0.87291   0.00000  Uiso   1.00
O1432  O     0.79508   0.95491   0.87291   0.00000  Uiso   1.00
S1433  S     0.50396   0.64591   0.72212   0.00000  Uiso   1.00
S1434  S     0.50396   0.85409   0.94455   0.00000  Uiso   1.00
S1435  S     0.99603   0.85409   0.72212   0.00000  Uiso   1.00
S1436  S     0.99603   0.64591   0.94455   0.00000  Uiso   1.00
S1437  S     0.75397   0.89591   0.72212   0.00000  Uiso   1.00
S1438  S     0.75397   0.60409   0.94455   0.00000  Uiso   1.00
S1439  S     0.74603   0.60409   0.72212   0.00000  Uiso   1.00
S1440  S     0.74603   0.89591   0.94455   0.00000  Uiso   1.00
loop_
_geom_bond_atom_site_label_1
_geom_bond_atom_site_label_2
_geom_bond_distance
_geom_bond_site_symmetry_2
_ccdc_geom_bond_type
C1     O106    1.311   .     A
C1     O73     1.302   .     A
C1     C30     1.472   .     S
C2     N69     1.397   .     A
C2     S114    1.851   .     S
C2     C603    1.458   1_455 S
C3     S115    1.851   .     S
C3     C1082   1.458   1_554 S
C3     N190    1.397   .     S
C4     S116    1.851   .     S
C4     C640    1.458   .     S
C4     N189    1.397   .     S
C5     S117    1.851   .     S
C5     C968    1.458   1_554 S
C5     N312    1.397   .     S
C6     N71     1.397   .     A
C6     S118    1.851   .     S
C6     C487    1.458   .     S
C7     S119    1.851   .     S
C7     N72     1.397   .     A
C7     C966    1.458   1_554 S
C8     S120    1.851   .     S
C8     C485    1.458   .     S
C8     N311    1.397   .     S
C9     C20     1.394   .     A
C9     Cl41    1.778   .     S
C9     C28     1.417   .     A
C10    C27     1.407   .     A
C10    C21     1.388   .     A
C10    Cl49    1.771   .     S
C11    C18     1.394   .     A
C11    C27     1.417   .     A
C11    Cl50    1.778   .     S
C12    C29     1.472   .     S
C12    O84     1.311   .     A
C12    O95     1.302   .     A
C13    Cl51    1.771   .     S
C13    C19     1.388   .     A
C13    C28     1.407   .     A
C14    Cl52    1.778   .     S
C14    C30     1.417   .     A
C14    C25     1.394   .     A
C15    Cl53    1.771   .     S
C15    C29     1.407   .     A
C15    C26     1.388   .     A
C16    C29     1.417   .     A
C16    C22     1.394   .     A
C16    Cl54    1.778   .     S
C17    C30     1.407   .     A
C17    C24     1.388   .     A
C17    Cl55    1.771   .     S
C18    Cl56    1.778   .     S
C18    C32     1.417   .     A
C19    C31     1.407   .     A
C19    Cl42    1.771   .     S
C20    Cl43    1.778   .     S
C20    C31     1.417   .     A
C21    C32     1.407   .     A
C21    Cl44    1.771   .     S
C22    C35     1.417   .     A
C22    Cl45    1.778   .     S
C23    C28     1.472   .     S
C23    O111    1.311   .     A
C23    O108    1.302   .     A
C24    C33     1.407   .     A
C24    Cl46    1.771   .     S
C25    Cl47    1.778   .     S
C25    C33     1.417   .     A
C26    Cl48    1.771   .     S
C26    C35     1.407   .     A
C27    C34     1.472   .     S
C31    C39     1.472   .     S
C32    C38     1.472   .     S
C33    C37     1.472   .     S
C34    O110    1.302   .     A
C34    O109    1.311   .     A
C35    C36     1.472   .     S
C36    O76     1.311   .     A
C36    O112    1.302   .     A
C37    O74     1.311   .     A
C37    O75     1.302   .     A
C38    O77     1.302   .     A
C38    O80     1.311   .     A
C39    O78     1.311   .     A
C39    O79     1.302   .     A
C40    N70     1.397   .     A
C40    S113    1.851   .     S
C40    C1084   1.458   1_454 S
Cu57   O231    1.977   1_455 S
Cu57   O215    1.977   1_455 S
Cu57   Cu58    2.706   .     S
Cu57   N69     2.033   .     S
Cu57   O73     1.977   .     S
Cu57   O109    1.977   .     S
Cu58   N70     2.033   .     S
Cu58   O106    1.977   .     S
Cu58   O110    1.977   .     S
Cu58   O204    1.977   1_455 S
Cu58   O228    1.977   1_455 S
Cu59   N71     2.033   .     S
Cu59   Cu60    2.706   .     S
Cu59   O78     1.977   .     S
Cu59   O75     1.977   .     S
Cu59   O320    1.977   1_545 S
Cu59   O352    1.977   1_545 S
Cu60   O79     1.977   .     S
Cu60   N72     2.033   .     S
Cu60   O74     1.977   .     S
Cu60   O316    1.977   1_545 S
Cu60   O317    1.977   1_545 S
H61    O203    0.991   1_455 S
H62    O207    0.991   1_455 S
H63    O210    0.991   .     S
H64    O213    0.991   .     S
H65    O97     0.991   .     S
H66    O100    0.991   .     S
H67    O103    0.991   .     S
H68    O107    0.991   .     S
N69    C124    1.397   1_455 S
N70    C123    1.397   1_455 S
N71    C248    1.397   1_545 S
N72    C245    1.397   1_545 S
O76    Cu300   1.977   .     S
O77    Cu300   1.977   .     S
O80    Cu299   1.977   .     S
O81    S233    1.498   .     S
O82    S113    1.500   .     D
O83    H181    0.991   .     S
O83    S233    1.674   .     S
O84    Cu178   1.977   .     S
O85    S234    1.498   .     S
O86    S114    1.500   .     D
O87    H182    0.991   .     S
O87    S234    1.674   .     S
O88    S235    1.498   1_455 S
O89    S115    1.500   .     D
O90    H183    0.991   1_455 S
O90    S235    1.674   1_455 S
O91    S236    1.498   1_455 S
O92    S116    1.500   .     D
O93    H184    0.991   1_455 S
O93    S236    1.674   1_455 S
O94    S117    1.498   .     D
O95    Cu177   1.977   .     S
O96    S117    1.500   .     D
O97    S117    1.674   .     S
O98    S118    1.498   .     D
O99    S118    1.500   .     D
O100   S118    1.674   .     S
O101   S119    1.498   .     D
O102   S119    1.500   .     D
O103   S119    1.674   .     S
O104   S120    1.498   .     D
O105   S120    1.500   .     D
O107   S120    1.674   .     S
O108   Cu178   1.977   .     S
O111   Cu177   1.977   .     S
O112   Cu299   1.977   .     S
S113   O201    1.498   1_455 S
S113   O203    1.674   1_455 S
S114   O207    1.674   1_455 S
S114   O205    1.498   1_455 S
S115   O208    1.498   .     S
S115   O210    1.674   .     S
S116   O213    1.674   .     S
S116   O211    1.498   .     S
C121   O226    1.311   .     A
C121   O193    1.302   .     A
C121   C150    1.472   .     S
C122   N189    1.397   .     A
C122   S234    1.851   .     S
C122   C483    1.458   .     S
C123   S235    1.851   .     S
C123   C962    1.458   1_654 S
C123   N70     1.397   1_655 S
C124   S236    1.851   .     S
C124   C520    1.458   1_655 S
C124   N69     1.397   1_655 S
C125   S237    1.851   .     S
C125   C1088   1.458   1_554 S
C125   N432    1.397   .     S
C126   N191    1.397   .     A
C126   S238    1.851   .     S
C126   C607    1.458   .     S
C127   S239    1.851   .     S
C127   N192    1.397   .     A
C127   C1086   1.458   1_554 S
C128   S240    1.851   .     S
C128   C605    1.458   .     S
C128   N431    1.397   .     S
C129   C140    1.394   .     A
C129   Cl161   1.778   .     S
C129   C148    1.417   .     A
C130   C147    1.407   .     A
C130   C141    1.388   .     A
C130   Cl169   1.771   .     S
C131   C138    1.394   .     A
C131   C147    1.417   .     A
C131   Cl170   1.778   .     S
C132   C149    1.472   .     S
C132   O204    1.311   .     A
C132   O215    1.302   .     A
C133   Cl171   1.771   .     S
C133   C139    1.388   .     A
C133   C148    1.407   .     A
C134   Cl172   1.778   .     S
C134   C150    1.417   .     A
C134   C145    1.394   .     A
C135   Cl173   1.771   .     S
C135   C149    1.407   .     A
C135   C146    1.388   .     A
C136   C149    1.417   .     A
C136   C142    1.394   .     A
C136   Cl174   1.778   .     S
C137   C150    1.407   .     A
C137   C144    1.388   .     A
C137   Cl175   1.771   .     S
C138   Cl176   1.778   .     S
C138   C152    1.417   .     A
C139   C151    1.407   .     A
C139   Cl162   1.771   .     S
C140   Cl163   1.778   .     S
C140   C151    1.417   .     A
C141   C152    1.407   .     A
C141   Cl164   1.771   .     S
C142   C155    1.417   .     A
C142   Cl165   1.778   .     S
C143   C148    1.472   .     S
C143   O231    1.311   .     A
C143   O228    1.302   .     A
C144   C153    1.407   .     A
C144   Cl166   1.771   .     S
C145   Cl167   1.778   .     S
C145   C153    1.417   .     A
C146   Cl168   1.771   .     S
C146   C155    1.407   .     A
C147   C154    1.472   .     S
C151   C159    1.472   .     S
C152   C158    1.472   .     S
C153   C157    1.472   .     S
C154   O230    1.302   .     A
C154   O229    1.311   .     A
C155   C156    1.472   .     S
C156   O196    1.311   .     A
C156   O232    1.302   .     A
C157   O194    1.311   .     A
C157   O195    1.302   .     A
C158   O197    1.302   .     A
C158   O200    1.311   .     A
C159   O198    1.311   .     A
C159   O199    1.302   .     A
C160   N190    1.397   .     A
C160   S233    1.851   .     S
C160   C964    1.458   1_554 S
Cu177  Cu178   2.706   .     S
Cu177  N189    2.033   .     S
Cu177  O193    1.977   .     S
Cu177  O229    1.977   .     S
Cu178  N190    2.033   .     S
Cu178  O226    1.977   .     S
Cu178  O230    1.977   .     S
Cu179  N191    2.033   .     S
Cu179  Cu180   2.706   .     S
Cu179  O198    1.977   .     S
Cu179  O195    1.977   .     S
Cu179  O440    1.977   1_545 S
Cu179  O472    1.977   1_545 S
Cu180  O199    1.977   .     S
Cu180  N192    2.033   .     S
Cu180  O194    1.977   .     S
Cu180  O436    1.977   1_545 S
Cu180  O437    1.977   1_545 S
H183   O90     0.991   1_655 S
H184   O93     0.991   1_655 S
H185   O217    0.991   .     S
H186   O220    0.991   .     S
H187   O223    0.991   .     S
H188   O227    0.991   .     S
N191   C368    1.397   1_545 S
N192   C365    1.397   1_545 S
O196   Cu420   1.977   .     S
O197   Cu420   1.977   .     S
O200   Cu419   1.977   .     S
O201   S113    1.498   1_655 S
O202   S233    1.500   .     D
O203   H61     0.991   1_655 S
O203   S113    1.674   1_655 S
O204   Cu58    1.977   1_655 S
O205   S114    1.498   1_655 S
O206   S234    1.500   .     D
O207   H62     0.991   1_655 S
O207   S114    1.674   1_655 S
O209   S235    1.500   .     D
O212   S236    1.500   .     D
O214   S237    1.498   .     D
O215   Cu57    1.977   1_655 S
O216   S237    1.500   .     D
O217   S237    1.674   .     S
O218   S238    1.498   .     D
O219   S238    1.500   .     D
O220   S238    1.674   .     S
O221   S239    1.498   .     D
O222   S239    1.500   .     D
O223   S239    1.674   .     S
O224   S240    1.498   .     D
O225   S240    1.500   .     D
O227   S240    1.674   .     S
O228   Cu58    1.977   1_655 S
O231   Cu57    1.977   1_655 S
O232   Cu419   1.977   .     S
S235   O88     1.498   1_655 S
S235   O90     1.674   1_655 S
S236   O93     1.674   1_655 S
S236   O91     1.498   1_655 S
C241   O346    1.311   .     A
C241   O313    1.302   .     A
C241   C270    1.472   .     S
C242   N309    1.397   .     A
C242   S354    1.851   .     S
C242   C843    1.458   1_455 S
C243   S355    1.851   .     S
C243   C1322   1.458   1_554 S
C243   N430    1.397   .     S
C244   S356    1.851   .     S
C244   C880    1.458   .     S
C244   N429    1.397   .     S
C245   S357    1.851   .     S
C245   C1208   1.458   1_554 S
C245   N72     1.397   1_565 S
C246   N311    1.397   .     A
C246   S358    1.851   .     S
C246   C727    1.458   .     S
C247   S359    1.851   .     S
C247   N312    1.397   .     A
C247   C1206   1.458   1_554 S
C248   S360    1.851   .     S
C248   C725    1.458   .     S
C248   N71     1.397   1_565 S
C249   C260    1.394   .     A
C249   Cl281   1.778   .     S
C249   C268    1.417   .     A
C250   C267    1.407   .     A
C250   C261    1.388   .     A
C250   Cl289   1.771   .     S
C251   C258    1.394   .     A
C251   C267    1.417   .     A
C251   Cl290   1.778   .     S
C252   C269    1.472   .     S
C252   O324    1.311   .     A
C252   O335    1.302   .     A
C253   Cl291   1.771   .     S
C253   C259    1.388   .     A
C253   C268    1.407   .     A
C254   Cl292   1.778   .     S
C254   C270    1.417   .     A
C254   C265    1.394   .     A
C255   Cl293   1.771   .     S
C255   C269    1.407   .     A
C255   C266    1.388   .     A
C256   C269    1.417   .     A
C256   C262    1.394   .     A
C256   Cl294   1.778   .     S
C257   C270    1.407   .     A
C257   C264    1.388   .     A
C257   Cl295   1.771   .     S
C258   Cl296   1.778   .     S
C258   C272    1.417   .     A
C259   C271    1.407   .     A
C259   Cl282   1.771   .     S
C260   Cl283   1.778   .     S
C260   C271    1.417   .     A
C261   C272    1.407   .     A
C261   Cl284   1.771   .     S
C262   C275    1.417   .     A
C262   Cl285   1.778   .     S
C263   C268    1.472   .     S
C263   O351    1.311   .     A
C263   O348    1.302   .     A
C264   C273    1.407   .     A
C264   Cl286   1.771   .     S
C265   Cl287   1.778   .     S
C265   C273    1.417   .     A
C266   Cl288   1.771   .     S
C266   C275    1.407   .     A
C267   C274    1.472   .     S
C271   C279    1.472   .     S
C272   C278    1.472   .     S
C273   C277    1.472   .     S
C274   O350    1.302   .     A
C274   O349    1.311   .     A
C275   C276    1.472   .     S
C276   O316    1.311   .     A
C276   O352    1.302   .     A
C277   O314    1.311   .     A
C277   O315    1.302   .     A
C278   O317    1.302   .     A
C278   O320    1.311   .     A
C279   O318    1.311   .     A
C279   O319    1.302   .     A
C280   N310    1.397   .     A
C280   S353    1.851   .     S
C280   C1324   1.458   1_454 S
Cu297  O471    1.977   1_455 S
Cu297  O455    1.977   1_455 S
Cu297  Cu298   2.706   .     S
Cu297  N309    2.033   .     S
Cu297  O313    1.977   .     S
Cu297  O349    1.977   .     S
Cu298  N310    2.033   .     S
Cu298  O346    1.977   .     S
Cu298  O350    1.977   .     S
Cu298  O444    1.977   1_455 S
Cu298  O468    1.977   1_455 S
Cu299  N311    2.033   .     S
Cu299  Cu300   2.706   .     S
Cu299  O318    1.977   .     S
Cu299  O315    1.977   .     S
Cu300  O319    1.977   .     S
Cu300  N312    2.033   .     S
Cu300  O314    1.977   .     S
H301   O443    0.991   1_455 S
H302   O447    0.991   1_455 S
H303   O450    0.991   .     S
H304   O453    0.991   .     S
H305   O337    0.991   .     S
H306   O340    0.991   .     S
H307   O343    0.991   .     S
H308   O347    0.991   .     S
N309   C364    1.397   1_455 S
N310   C363    1.397   1_455 S
O316   Cu60    1.977   1_565 S
O317   Cu60    1.977   1_565 S
O320   Cu59    1.977   1_565 S
O321   S473    1.498   .     S
O322   S353    1.500   .     D
O323   H421    0.991   .     S
O323   S473    1.674   .     S
O324   Cu418   1.977   .     S
O325   S474    1.498   .     S
O326   S354    1.500   .     D
O327   H422    0.991   .     S
O327   S474    1.674   .     S
O328   S475    1.498   1_455 S
O329   S355    1.500   .     D
O330   H423    0.991   1_455 S
O330   S475    1.674   1_455 S
O331   S476    1.498   1_455 S
O332   S356    1.500   .     D
O333   H424    0.991   1_455 S
O333   S476    1.674   1_455 S
O334   S357    1.498   .     D
O335   Cu417   1.977   .     S
O336   S357    1.500   .     D
O337   S357    1.674   .     S
O338   S358    1.498   .     D
O339   S358    1.500   .     D
O340   S358    1.674   .     S
O341   S359    1.498   .     D
O342   S359    1.500   .     D
O343   S359    1.674   .     S
O344   S360    1.498   .     D
O345   S360    1.500   .     D
O347   S360    1.674   .     S
O348   Cu418   1.977   .     S
O351   Cu417   1.977   .     S
O352   Cu59    1.977   1_565 S
S353   O441    1.498   1_455 S
S353   O443    1.674   1_455 S
S354   O447    1.674   1_455 S
S354   O445    1.498   1_455 S
S355   O448    1.498   .     S
S355   O450    1.674   .     S
S356   O453    1.674   .     S
S356   O451    1.498   .     S
C361   O466    1.311   .     A
C361   O433    1.302   .     A
C361   C390    1.472   .     S
C362   N429    1.397   .     A
C362   S474    1.851   .     S
C362   C723    1.458   .     S
C363   S475    1.851   .     S
C363   C1202   1.458   1_654 S
C363   N310    1.397   1_655 S
C364   S476    1.851   .     S
C364   C760    1.458   1_655 S
C364   N309    1.397   1_655 S
C365   S477    1.851   .     S
C365   C1328   1.458   1_554 S
C365   N192    1.397   1_565 S
C366   N431    1.397   .     A
C366   S478    1.851   .     S
C366   C847    1.458   .     S
C367   S479    1.851   .     S
C367   N432    1.397   .     A
C367   C1326   1.458   1_554 S
C368   S480    1.851   .     S
C368   C845    1.458   .     S
C368   N191    1.397   1_565 S
C369   C380    1.394   .     A
C369   Cl401   1.778   .     S
C369   C388    1.417   .     A
C370   C387    1.407   .     A
C370   C381    1.388   .     A
C370   Cl409   1.771   .     S
C371   C378    1.394   .     A
C371   C387    1.417   .     A
C371   Cl410   1.778   .     S
C372   C389    1.472   .     S
C372   O444    1.311   .     A
C372   O455    1.302   .     A
C373   Cl411   1.771   .     S
C373   C379    1.388   .     A
C373   C388    1.407   .     A
C374   Cl412   1.778   .     S
C374   C390    1.417   .     A
C374   C385    1.394   .     A
C375   Cl413   1.771   .     S
C375   C389    1.407   .     A
C375   C386    1.388   .     A
C376   C389    1.417   .     A
C376   C382    1.394   .     A
C376   Cl414   1.778   .     S
C377   C390    1.407   .     A
C377   C384    1.388   .     A
C377   Cl415   1.771   .     S
C378   Cl416   1.778   .     S
C378   C392    1.417   .     A
C379   C391    1.407   .     A
C379   Cl402   1.771   .     S
C380   Cl403   1.778   .     S
C380   C391    1.417   .     A
C381   C392    1.407   .     A
C381   Cl404   1.771   .     S
C382   C395    1.417   .     A
C382   Cl405   1.778   .     S
C383   C388    1.472   .     S
C383   O471    1.311   .     A
C383   O468    1.302   .     A
C384   C393    1.407   .     A
C384   Cl406   1.771   .     S
C385   Cl407   1.778   .     S
C385   C393    1.417   .     A
C386   Cl408   1.771   .     S
C386   C395    1.407   .     A
C387   C394    1.472   .     S
C391   C399    1.472   .     S
C392   C398    1.472   .     S
C393   C397    1.472   .     S
C394   O470    1.302   .     A
C394   O469    1.311   .     A
C395   C396    1.472   .     S
C396   O436    1.311   .     A
C396   O472    1.302   .     A
C397   O434    1.311   .     A
C397   O435    1.302   .     A
C398   O437    1.302   .     A
C398   O440    1.311   .     A
C399   O438    1.311   .     A
C399   O439    1.302   .     A
C400   N430    1.397   .     A
C400   S473    1.851   .     S
C400   C1204   1.458   1_554 S
Cu417  Cu418   2.706   .     S
Cu417  N429    2.033   .     S
Cu417  O433    1.977   .     S
Cu417  O469    1.977   .     S
Cu418  N430    2.033   .     S
Cu418  O466    1.977   .     S
Cu418  O470    1.977   .     S
Cu419  N431    2.033   .     S
Cu419  Cu420   2.706   .     S
Cu419  O438    1.977   .     S
Cu419  O435    1.977   .     S
Cu420  O439    1.977   .     S
Cu420  N432    2.033   .     S
Cu420  O434    1.977   .     S
H423   O330    0.991   1_655 S
H424   O333    0.991   1_655 S
H425   O457    0.991   .     S
H426   O460    0.991   .     S
H427   O463    0.991   .     S
H428   O467    0.991   .     S
O436   Cu180   1.977   1_565 S
O437   Cu180   1.977   1_565 S
O440   Cu179   1.977   1_565 S
O441   S353    1.498   1_655 S
O442   S473    1.500   .     D
O443   H301    0.991   1_655 S
O443   S353    1.674   1_655 S
O444   Cu298   1.977   1_655 S
O445   S354    1.498   1_655 S
O446   S474    1.500   .     D
O447   H302    0.991   1_655 S
O447   S354    1.674   1_655 S
O449   S475    1.500   .     D
O452   S476    1.500   .     D
O454   S477    1.498   .     D
O455   Cu297   1.977   1_655 S
O456   S477    1.500   .     D
O457   S477    1.674   .     S
O458   S478    1.498   .     D
O459   S478    1.500   .     D
O460   S478    1.674   .     S
O461   S479    1.498   .     D
O462   S479    1.500   .     D
O463   S479    1.674   .     S
O464   S480    1.498   .     D
O465   S480    1.500   .     D
O467   S480    1.674   .     S
O468   Cu298   1.977   1_655 S
O471   Cu297   1.977   1_655 S
O472   Cu179   1.977   1_565 S
S475   O328    1.498   1_655 S
S475   O330    1.674   1_655 S
S476   O333    1.674   1_655 S
S476   O331    1.498   1_655 S
C481   O586    1.311   .     A
C481   O553    1.302   .     A
C481   C510    1.472   .     S
C482   N549    1.397   .     A
C482   S594    1.851   .     S
C482   C1083   1.458   1_455 S
C483   S595    1.851   .     S
C483   N670    1.397   .     S
C484   S596    1.851   .     S
C484   C1120   1.458   .     S
C484   N669    1.397   .     S
C485   S597    1.851   .     S
C485   N792    1.397   .     S
C486   N551    1.397   .     A
C486   S598    1.851   .     S
C486   C967    1.458   .     S
C487   S599    1.851   .     S
C487   N552    1.397   .     A
C488   S600    1.851   .     S
C488   C965    1.458   .     S
C488   N791    1.397   .     S
C489   C500    1.394   .     A
C489   Cl521   1.778   .     S
C489   C508    1.417   .     A
C490   C507    1.407   .     A
C490   C501    1.388   .     A
C490   Cl529   1.771   .     S
C491   C498    1.394   .     A
C491   C507    1.417   .     A
C491   Cl530   1.778   .     S
C492   C509    1.472   .     S
C492   O564    1.311   .     A
C492   O575    1.302   .     A
C493   Cl531   1.771   .     S
C493   C499    1.388   .     A
C493   C508    1.407   .     A
C494   Cl532   1.778   .     S
C494   C510    1.417   .     A
C494   C505    1.394   .     A
C495   Cl533   1.771   .     S
C495   C509    1.407   .     A
C495   C506    1.388   .     A
C496   C509    1.417   .     A
C496   C502    1.394   .     A
C496   Cl534   1.778   .     S
C497   C510    1.407   .     A
C497   C504    1.388   .     A
C497   Cl535   1.771   .     S
C498   Cl536   1.778   .     S
C498   C512    1.417   .     A
C499   C511    1.407   .     A
C499   Cl522   1.771   .     S
C500   Cl523   1.778   .     S
C500   C511    1.417   .     A
C501   C512    1.407   .     A
C501   Cl524   1.771   .     S
C502   C515    1.417   .     A
C502   Cl525   1.778   .     S
C503   C508    1.472   .     S
C503   O591    1.311   .     A
C503   O588    1.302   .     A
C504   C513    1.407   .     A
C504   Cl526   1.771   .     S
C505   Cl527   1.778   .     S
C505   C513    1.417   .     A
C506   Cl528   1.771   .     S
C506   C515    1.407   .     A
C507   C514    1.472   .     S
C511   C519    1.472   .     S
C512   C518    1.472   .     S
C513   C517    1.472   .     S
C514   O590    1.302   .     A
C514   O589    1.311   .     A
C515   C516    1.472   .     S
C516   O556    1.311   .     A
C516   O592    1.302   .     A
C517   O554    1.311   .     A
C517   O555    1.302   .     A
C518   O557    1.302   .     A
C518   O560    1.311   .     A
C519   O558    1.311   .     A
C519   O559    1.302   .     A
C520   N550    1.397   .     A
C520   S593    1.851   .     S
C520   C124    1.458   1_455 S
Cu537  O711    1.977   1_455 S
Cu537  O695    1.977   1_455 S
Cu537  Cu538   2.706   .     S
Cu537  N549    2.033   .     S
Cu537  O553    1.977   .     S
Cu537  O589    1.977   .     S
Cu538  N550    2.033   .     S
Cu538  O586    1.977   .     S
Cu538  O590    1.977   .     S
Cu538  O684    1.977   1_455 S
Cu538  O708    1.977   1_455 S
Cu539  N551    2.033   .     S
Cu539  Cu540   2.706   .     S
Cu539  O558    1.977   .     S
Cu539  O555    1.977   .     S
Cu539  O800    1.977   1_545 S
Cu539  O832    1.977   1_545 S
Cu540  O559    1.977   .     S
Cu540  N552    2.033   .     S
Cu540  O554    1.977   .     S
Cu540  O796    1.977   1_545 S
Cu540  O797    1.977   1_545 S
H541   O683    0.991   1_455 S
H542   O687    0.991   1_455 S
H543   O690    0.991   .     S
H544   O693    0.991   .     S
H545   O577    0.991   .     S
H546   O580    0.991   .     S
H547   O583    0.991   .     S
H548   O587    0.991   .     S
N549   C604    1.397   1_455 S
N550   C603    1.397   1_455 S
N551   C728    1.397   1_545 S
N552   C725    1.397   1_545 S
O556   Cu780   1.977   .     S
O557   Cu780   1.977   .     S
O560   Cu779   1.977   .     S
O561   S713    1.498   .     S
O562   S593    1.500   .     D
O563   H661    0.991   .     S
O563   S713    1.674   .     S
O564   Cu658   1.977   .     S
O565   S714    1.498   .     S
O566   S594    1.500   .     D
O567   H662    0.991   .     S
O567   S714    1.674   .     S
O568   S715    1.498   1_455 S
O569   S595    1.500   .     D
O570   H663    0.991   1_455 S
O570   S715    1.674   1_455 S
O571   S716    1.498   1_455 S
O572   S596    1.500   .     D
O573   H664    0.991   1_455 S
O573   S716    1.674   1_455 S
O574   S597    1.498   .     D
O575   Cu657   1.977   .     S
O576   S597    1.500   .     D
O577   S597    1.674   .     S
O578   S598    1.498   .     D
O579   S598    1.500   .     D
O580   S598    1.674   .     S
O581   S599    1.498   .     D
O582   S599    1.500   .     D
O583   S599    1.674   .     S
O584   S600    1.498   .     D
O585   S600    1.500   .     D
O587   S600    1.674   .     S
O588   Cu658   1.977   .     S
O591   Cu657   1.977   .     S
O592   Cu779   1.977   .     S
S593   O681    1.498   1_455 S
S593   O683    1.674   1_455 S
S594   O687    1.674   1_455 S
S594   O685    1.498   1_455 S
S595   O688    1.498   .     S
S595   O690    1.674   .     S
S596   O693    1.674   .     S
S596   O691    1.498   .     S
C601   O706    1.311   .     A
C601   O673    1.302   .     A
C601   C630    1.472   .     S
C602   N669    1.397   .     A
C602   S714    1.851   .     S
C602   C963    1.458   .     S
C603   S715    1.851   .     S
C603   C2      1.458   1_655 S
C603   N550    1.397   1_655 S
C604   S716    1.851   .     S
C604   C1000   1.458   1_655 S
C604   N549    1.397   1_655 S
C605   S717    1.851   .     S
C605   N912    1.397   .     S
C606   N671    1.397   .     A
C606   S718    1.851   .     S
C606   C1087   1.458   .     S
C607   S719    1.851   .     S
C607   N672    1.397   .     A
C608   S720    1.851   .     S
C608   C1085   1.458   .     S
C608   N911    1.397   .     S
C609   C620    1.394   .     A
C609   Cl641   1.778   .     S
C609   C628    1.417   .     A
C610   C627    1.407   .     A
C610   C621    1.388   .     A
C610   Cl649   1.771   .     S
C611   C618    1.394   .     A
C611   C627    1.417   .     A
C611   Cl650   1.778   .     S
C612   C629    1.472   .     S
C612   O684    1.311   .     A
C612   O695    1.302   .     A
C613   Cl651   1.771   .     S
C613   C619    1.388   .     A
C613   C628    1.407   .     A
C614   Cl652   1.778   .     S
C614   C630    1.417   .     A
C614   C625    1.394   .     A
C615   Cl653   1.771   .     S
C615   C629    1.407   .     A
C615   C626    1.388   .     A
C616   C629    1.417   .     A
C616   C622    1.394   .     A
C616   Cl654   1.778   .     S
C617   C630    1.407   .     A
C617   C624    1.388   .     A
C617   Cl655   1.771   .     S
C618   Cl656   1.778   .     S
C618   C632    1.417   .     A
C619   C631    1.407   .     A
C619   Cl642   1.771   .     S
C620   Cl643   1.778   .     S
C620   C631    1.417   .     A
C621   C632    1.407   .     A
C621   Cl644   1.771   .     S
C622   C635    1.417   .     A
C622   Cl645   1.778   .     S
C623   C628    1.472   .     S
C623   O711    1.311   .     A
C623   O708    1.302   .     A
C624   C633    1.407   .     A
C624   Cl646   1.771   .     S
C625   Cl647   1.778   .     S
C625   C633    1.417   .     A
C626   Cl648   1.771   .     S
C626   C635    1.407   .     A
C627   C634    1.472   .     S
C631   C639    1.472   .     S
C632   C638    1.472   .     S
C633   C637    1.472   .     S
C634   O710    1.302   .     A
C634   O709    1.311   .     A
C635   C636    1.472   .     S
C636   O676    1.311   .     A
C636   O712    1.302   .     A
C637   O674    1.311   .     A
C637   O675    1.302   .     A
C638   O677    1.302   .     A
C638   O680    1.311   .     A
C639   O678    1.311   .     A
C639   O679    1.302   .     A
C640   N670    1.397   .     A
C640   S713    1.851   .     S
Cu657  Cu658   2.706   .     S
Cu657  N669    2.033   .     S
Cu657  O673    1.977   .     S
Cu657  O709    1.977   .     S
Cu658  N670    2.033   .     S
Cu658  O706    1.977   .     S
Cu658  O710    1.977   .     S
Cu659  N671    2.033   .     S
Cu659  Cu660   2.706   .     S
Cu659  O678    1.977   .     S
Cu659  O675    1.977   .     S
Cu659  O920    1.977   1_545 S
Cu659  O952    1.977   1_545 S
Cu660  O679    1.977   .     S
Cu660  N672    2.033   .     S
Cu660  O674    1.977   .     S
Cu660  O916    1.977   1_545 S
Cu660  O917    1.977   1_545 S
H663   O570    0.991   1_655 S
H664   O573    0.991   1_655 S
H665   O697    0.991   .     S
H666   O700    0.991   .     S
H667   O703    0.991   .     S
H668   O707    0.991   .     S
N671   C848    1.397   1_545 S
N672   C845    1.397   1_545 S
O676   Cu900   1.977   .     S
O677   Cu900   1.977   .     S
O680   Cu899   1.977   .     S
O681   S593    1.498   1_655 S
O682   S713    1.500   .     D
O683   H541    0.991   1_655 S
O683   S593    1.674   1_655 S
O684   Cu538   1.977   1_655 S
O685   S594    1.498   1_655 S
O686   S714    1.500   .     D
O687   H542    0.991   1_655 S
O687   S594    1.674   1_655 S
O689   S715    1.500   .     D
O692   S716    1.500   .     D
O694   S717    1.498   .     D
O695   Cu537   1.977   1_655 S
O696   S717    1.500   .     D
O697   S717    1.674   .     S
O698   S718    1.498   .     D
O699   S718    1.500   .     D
O700   S718    1.674   .     S
O701   S719    1.498   .     D
O702   S719    1.500   .     D
O703   S719    1.674   .     S
O704   S720    1.498   .     D
O705   S720    1.500   .     D
O707   S720    1.674   .     S
O708   Cu538   1.977   1_655 S
O711   Cu537   1.977   1_655 S
O712   Cu899   1.977   .     S
S715   O568    1.498   1_655 S
S715   O570    1.674   1_655 S
S716   O573    1.674   1_655 S
S716   O571    1.498   1_655 S
C721   O826    1.311   .     A
C721   O793    1.302   .     A
C721   C750    1.472   .     S
C722   N789    1.397   .     A
C722   S834    1.851   .     S
C722   C1323   1.458   1_455 S
C723   S835    1.851   .     S
C723   N910    1.397   .     S
C724   S836    1.851   .     S
C724   C1360   1.458   .     S
C724   N909    1.397   .     S
C725   S837    1.851   .     S
C725   N552    1.397   1_565 S
C726   N791    1.397   .     A
C726   S838    1.851   .     S
C726   C1207   1.458   .     S
C727   S839    1.851   .     S
C727   N792    1.397   .     A
C728   S840    1.851   .     S
C728   C1205   1.458   .     S
C728   N551    1.397   1_565 S
C729   C740    1.394   .     A
C729   Cl761   1.778   .     S
C729   C748    1.417   .     A
C730   C747    1.407   .     A
C730   C741    1.388   .     A
C730   Cl769   1.771   .     S
C731   C738    1.394   .     A
C731   C747    1.417   .     A
C731   Cl770   1.778   .     S
C732   C749    1.472   .     S
C732   O804    1.311   .     A
C732   O815    1.302   .     A
C733   Cl771   1.771   .     S
C733   C739    1.388   .     A
C733   C748    1.407   .     A
C734   Cl772   1.778   .     S
C734   C750    1.417   .     A
C734   C745    1.394   .     A
C735   Cl773   1.771   .     S
C735   C749    1.407   .     A
C735   C746    1.388   .     A
C736   C749    1.417   .     A
C736   C742    1.394   .     A
C736   Cl774   1.778   .     S
C737   C750    1.407   .     A
C737   C744    1.388   .     A
C737   Cl775   1.771   .     S
C738   Cl776   1.778   .     S
C738   C752    1.417   .     A
C739   C751    1.407   .     A
C739   Cl762   1.771   .     S
C740   Cl763   1.778   .     S
C740   C751    1.417   .     A
C741   C752    1.407   .     A
C741   Cl764   1.771   .     S
C742   C755    1.417   .     A
C742   Cl765   1.778   .     S
C743   C748    1.472   .     S
C743   O831    1.311   .     A
C743   O828    1.302   .     A
C744   C753    1.407   .     A
C744   Cl766   1.771   .     S
C745   Cl767   1.778   .     S
C745   C753    1.417   .     A
C746   Cl768   1.771   .     S
C746   C755    1.407   .     A
C747   C754    1.472   .     S
C751   C759    1.472   .     S
C752   C758    1.472   .     S
C753   C757    1.472   .     S
C754   O830    1.302   .     A
C754   O829    1.311   .     A
C755   C756    1.472   .     S
C756   O796    1.311   .     A
C756   O832    1.302   .     A
C757   O794    1.311   .     A
C757   O795    1.302   .     A
C758   O797    1.302   .     A
C758   O800    1.311   .     A
C759   O798    1.311   .     A
C759   O799    1.302   .     A
C760   N790    1.397   .     A
C760   S833    1.851   .     S
C760   C364    1.458   1_455 S
Cu777  O951    1.977   1_455 S
Cu777  O935    1.977   1_455 S
Cu777  Cu778   2.706   .     S
Cu777  N789    2.033   .     S
Cu777  O793    1.977   .     S
Cu777  O829    1.977   .     S
Cu778  N790    2.033   .     S
Cu778  O826    1.977   .     S
Cu778  O830    1.977   .     S
Cu778  O924    1.977   1_455 S
Cu778  O948    1.977   1_455 S
Cu779  N791    2.033   .     S
Cu779  Cu780   2.706   .     S
Cu779  O798    1.977   .     S
Cu779  O795    1.977   .     S
Cu780  O799    1.977   .     S
Cu780  N792    2.033   .     S
Cu780  O794    1.977   .     S
H781   O923    0.991   1_455 S
H782   O927    0.991   1_455 S
H783   O930    0.991   .     S
H784   O933    0.991   .     S
H785   O817    0.991   .     S
H786   O820    0.991   .     S
H787   O823    0.991   .     S
H788   O827    0.991   .     S
N789   C844    1.397   1_455 S
N790   C843    1.397   1_455 S
O796   Cu540   1.977   1_565 S
O797   Cu540   1.977   1_565 S
O800   Cu539   1.977   1_565 S
O801   S953    1.498   .     S
O802   S833    1.500   .     D
O803   H901    0.991   .     S
O803   S953    1.674   .     S
O804   Cu898   1.977   .     S
O805   S954    1.498   .     S
O806   S834    1.500   .     D
O807   H902    0.991   .     S
O807   S954    1.674   .     S
O808   S955    1.498   1_455 S
O809   S835    1.500   .     D
O810   H903    0.991   1_455 S
O810   S955    1.674   1_455 S
O811   S956    1.498   1_455 S
O812   S836    1.500   .     D
O813   H904    0.991   1_455 S
O813   S956    1.674   1_455 S
O814   S837    1.498   .     D
O815   Cu897   1.977   .     S
O816   S837    1.500   .     D
O817   S837    1.674   .     S
O818   S838    1.498   .     D
O819   S838    1.500   .     D
O820   S838    1.674   .     S
O821   S839    1.498   .     D
O822   S839    1.500   .     D
O823   S839    1.674   .     S
O824   S840    1.498   .     D
O825   S840    1.500   .     D
O827   S840    1.674   .     S
O828   Cu898   1.977   .     S
O831   Cu897   1.977   .     S
O832   Cu539   1.977   1_565 S
S833   O921    1.498   1_455 S
S833   O923    1.674   1_455 S
S834   O927    1.674   1_455 S
S834   O925    1.498   1_455 S
S835   O928    1.498   .     S
S835   O930    1.674   .     S
S836   O933    1.674   .     S
S836   O931    1.498   .     S
C841   O946    1.311   .     A
C841   O913    1.302   .     A
C841   C870    1.472   .     S
C842   N909    1.397   .     A
C842   S954    1.851   .     S
C842   C1203   1.458   .     S
C843   S955    1.851   .     S
C843   C242    1.458   1_655 S
C843   N790    1.397   1_655 S
C844   S956    1.851   .     S
C844   C1240   1.458   1_655 S
C844   N789    1.397   1_655 S
C845   S957    1.851   .     S
C845   N672    1.397   1_565 S
C846   N911    1.397   .     A
C846   S958    1.851   .     S
C846   C1327   1.458   .     S
C847   S959    1.851   .     S
C847   N912    1.397   .     A
C848   S960    1.851   .     S
C848   C1325   1.458   .     S
C848   N671    1.397   1_565 S
C849   C860    1.394   .     A
C849   Cl881   1.778   .     S
C849   C868    1.417   .     A
C850   C867    1.407   .     A
C850   C861    1.388   .     A
C850   Cl889   1.771   .     S
C851   C858    1.394   .     A
C851   C867    1.417   .     A
C851   Cl890   1.778   .     S
C852   C869    1.472   .     S
C852   O924    1.311   .     A
C852   O935    1.302   .     A
C853   Cl891   1.771   .     S
C853   C859    1.388   .     A
C853   C868    1.407   .     A
C854   Cl892   1.778   .     S
C854   C870    1.417   .     A
C854   C865    1.394   .     A
C855   Cl893   1.771   .     S
C855   C869    1.407   .     A
C855   C866    1.388   .     A
C856   C869    1.417   .     A
C856   C862    1.394   .     A
C856   Cl894   1.778   .     S
C857   C870    1.407   .     A
C857   C864    1.388   .     A
C857   Cl895   1.771   .     S
C858   Cl896   1.778   .     S
C858   C872    1.417   .     A
C859   C871    1.407   .     A
C859   Cl882   1.771   .     S
C860   Cl883   1.778   .     S
C860   C871    1.417   .     A
C861   C872    1.407   .     A
C861   Cl884   1.771   .     S
C862   C875    1.417   .     A
C862   Cl885   1.778   .     S
C863   C868    1.472   .     S
C863   O951    1.311   .     A
C863   O948    1.302   .     A
C864   C873    1.407   .     A
C864   Cl886   1.771   .     S
C865   Cl887   1.778   .     S
C865   C873    1.417   .     A
C866   Cl888   1.771   .     S
C866   C875    1.407   .     A
C867   C874    1.472   .     S
C871   C879    1.472   .     S
C872   C878    1.472   .     S
C873   C877    1.472   .     S
C874   O950    1.302   .     A
C874   O949    1.311   .     A
C875   C876    1.472   .     S
C876   O916    1.311   .     A
C876   O952    1.302   .     A
C877   O914    1.311   .     A
C877   O915    1.302   .     A
C878   O917    1.302   .     A
C878   O920    1.311   .     A
C879   O918    1.311   .     A
C879   O919    1.302   .     A
C880   N910    1.397   .     A
C880   S953    1.851   .     S
Cu897  Cu898   2.706   .     S
Cu897  N909    2.033   .     S
Cu897  O913    1.977   .     S
Cu897  O949    1.977   .     S
Cu898  N910    2.033   .     S
Cu898  O946    1.977   .     S
Cu898  O950    1.977   .     S
Cu899  N911    2.033   .     S
Cu899  Cu900   2.706   .     S
Cu899  O918    1.977   .     S
Cu899  O915    1.977   .     S
Cu900  O919    1.977   .     S
Cu900  N912    2.033   .     S
Cu900  O914    1.977   .     S
H903   O810    0.991   1_655 S
H904   O813    0.991   1_655 S
H905   O937    0.991   .     S
H906   O940    0.991   .     S
H907   O943    0.991   .     S
H908   O947    0.991   .     S
O916   Cu660   1.977   1_565 S
O917   Cu660   1.977   1_565 S
O920   Cu659   1.977   1_565 S
O921   S833    1.498   1_655 S
O922   S953    1.500   .     D
O923   H781    0.991   1_655 S
O923   S833    1.674   1_655 S
O924   Cu778   1.977   1_655 S
O925   S834    1.498   1_655 S
O926   S954    1.500   .     D
O927   H782    0.991   1_655 S
O927   S834    1.674   1_655 S
O929   S955    1.500   .     D
O932   S956    1.500   .     D
O934   S957    1.498   .     D
O935   Cu777   1.977   1_655 S
O936   S957    1.500   .     D
O937   S957    1.674   .     S
O938   S958    1.498   .     D
O939   S958    1.500   .     D
O940   S958    1.674   .     S
O941   S959    1.498   .     D
O942   S959    1.500   .     D
O943   S959    1.674   .     S
O944   S960    1.498   .     D
O945   S960    1.500   .     D
O947   S960    1.674   .     S
O948   Cu778   1.977   1_655 S
O951   Cu777   1.977   1_655 S
O952   Cu659   1.977   1_565 S
S955   O808    1.498   1_655 S
S955   O810    1.674   1_655 S
S956   O813    1.674   1_655 S
S956   O811    1.498   1_655 S
C961   O1066   1.311   .     A
C961   O1033   1.302   .     A
C961   C990    1.472   .     S
C962   N1029   1.397   .     A
C962   S1074   1.851   .     S
C962   C123    1.458   1_456 S
C963   S1075   1.851   .     S
C963   N1150   1.397   .     S
C964   S1076   1.851   .     S
C964   C160    1.458   1_556 S
C964   N1149   1.397   .     S
C965   S1077   1.851   .     S
C965   N1272   1.397   .     S
C966   N1031   1.397   .     A
C966   S1078   1.851   .     S
C966   C7      1.458   1_556 S
C967   S1079   1.851   .     S
C967   N1032   1.397   .     A
C968   S1080   1.851   .     S
C968   C5      1.458   1_556 S
C968   N1271   1.397   .     S
C969   C980    1.394   .     A
C969   Cl1001  1.778   .     S
C969   C988    1.417   .     A
C970   C987    1.407   .     A
C970   C981    1.388   .     A
C970   Cl1009  1.771   .     S
C971   C978    1.394   .     A
C971   C987    1.417   .     A
C971   Cl1010  1.778   .     S
C972   C989    1.472   .     S
C972   O1044   1.311   .     A
C972   O1055   1.302   .     A
C973   Cl1011  1.771   .     S
C973   C979    1.388   .     A
C973   C988    1.407   .     A
C974   Cl1012  1.778   .     S
C974   C990    1.417   .     A
C974   C985    1.394   .     A
C975   Cl1013  1.771   .     S
C975   C989    1.407   .     A
C975   C986    1.388   .     A
C976   C989    1.417   .     A
C976   C982    1.394   .     A
C976   Cl1014  1.778   .     S
C977   C990    1.407   .     A
C977   C984    1.388   .     A
C977   Cl1015  1.771   .     S
C978   Cl1016  1.778   .     S
C978   C992    1.417   .     A
C979   C991    1.407   .     A
C979   Cl1002  1.771   .     S
C980   Cl1003  1.778   .     S
C980   C991    1.417   .     A
C981   C992    1.407   .     A
C981   Cl1004  1.771   .     S
C982   C995    1.417   .     A
C982   Cl1005  1.778   .     S
C983   C988    1.472   .     S
C983   O1071   1.311   .     A
C983   O1068   1.302   .     A
C984   C993    1.407   .     A
C984   Cl1006  1.771   .     S
C985   Cl1007  1.778   .     S
C985   C993    1.417   .     A
C986   Cl1008  1.771   .     S
C986   C995    1.407   .     A
C987   C994    1.472   .     S
C991   C999    1.472   .     S
C992   C998    1.472   .     S
C993   C997    1.472   .     S
C994   O1070   1.302   .     A
C994   O1069   1.311   .     A
C995   C996    1.472   .     S
C996   O1036   1.311   .     A
C996   O1072   1.302   .     A
C997   O1034   1.311   .     A
C997   O1035   1.302   .     A
C998   O1037   1.302   .     A
C998   O1040   1.311   .     A
C999   O1038   1.311   .     A
C999   O1039   1.302   .     A
C1000  N1030   1.397   .     A
C1000  S1073   1.851   .     S
C1000  C604    1.458   1_455 S
Cu1017 O1191   1.977   1_455 S
Cu1017 O1175   1.977   1_455 S
Cu1017 Cu1018  2.706   .     S
Cu1017 N1029   2.033   .     S
Cu1017 O1033   1.977   .     S
Cu1017 O1069   1.977   .     S
Cu1018 N1030   2.033   .     S
Cu1018 O1066   1.977   .     S
Cu1018 O1070   1.977   .     S
Cu1018 O1164   1.977   1_455 S
Cu1018 O1188   1.977   1_455 S
Cu1019 N1031   2.033   .     S
Cu1019 Cu1020  2.706   .     S
Cu1019 O1038   1.977   .     S
Cu1019 O1035   1.977   .     S
Cu1019 O1280   1.977   1_545 S
Cu1019 O1312   1.977   1_545 S
Cu1020 O1039   1.977   .     S
Cu1020 N1032   2.033   .     S
Cu1020 O1034   1.977   .     S
Cu1020 O1276   1.977   1_545 S
Cu1020 O1277   1.977   1_545 S
H1021  O1163   0.991   1_455 S
H1022  O1167   0.991   1_455 S
H1023  O1170   0.991   .     S
H1024  O1173   0.991   .     S
H1025  O1057   0.991   .     S
H1026  O1060   0.991   .     S
H1027  O1063   0.991   .     S
H1028  O1067   0.991   .     S
N1029  C1084   1.397   1_455 S
N1030  C1083   1.397   1_455 S
N1031  C1208   1.397   1_545 S
N1032  C1205   1.397   1_545 S
O1036  Cu1260  1.977   .     S
O1037  Cu1260  1.977   .     S
O1040  Cu1259  1.977   .     S
O1041  S1193   1.498   .     S
O1042  S1073   1.500   .     D
O1043  H1141   0.991   .     S
O1043  S1193   1.674   .     S
O1044  Cu1138  1.977   .     S
O1045  S1194   1.498   .     S
O1046  S1074   1.500   .     D
O1047  H1142   0.991   .     S
O1047  S1194   1.674   .     S
O1048  S1195   1.498   1_455 S
O1049  S1075   1.500   .     D
O1050  H1143   0.991   1_455 S
O1050  S1195   1.674   1_455 S
O1051  S1196   1.498   1_455 S
O1052  S1076   1.500   .     D
O1053  H1144   0.991   1_455 S
O1053  S1196   1.674   1_455 S
O1054  S1077   1.498   .     D
O1055  Cu1137  1.977   .     S
O1056  S1077   1.500   .     D
O1057  S1077   1.674   .     S
O1058  S1078   1.498   .     D
O1059  S1078   1.500   .     D
O1060  S1078   1.674   .     S
O1061  S1079   1.498   .     D
O1062  S1079   1.500   .     D
O1063  S1079   1.674   .     S
O1064  S1080   1.498   .     D
O1065  S1080   1.500   .     D
O1067  S1080   1.674   .     S
O1068  Cu1138  1.977   .     S
O1071  Cu1137  1.977   .     S
O1072  Cu1259  1.977   .     S
S1073  O1161   1.498   1_455 S
S1073  O1163   1.674   1_455 S
S1074  O1167   1.674   1_455 S
S1074  O1165   1.498   1_455 S
S1075  O1168   1.498   .     S
S1075  O1170   1.674   .     S
S1076  O1173   1.674   .     S
S1076  O1171   1.498   .     S
C1081  O1186   1.311   .     A
C1081  O1153   1.302   .     A
C1081  C1110   1.472   .     S
C1082  N1149   1.397   .     A
C1082  S1194   1.851   .     S
C1082  C3      1.458   1_556 S
C1083  S1195   1.851   .     S
C1083  C482    1.458   1_655 S
C1083  N1030   1.397   1_655 S
C1084  S1196   1.851   .     S
C1084  C40     1.458   1_656 S
C1084  N1029   1.397   1_655 S
C1085  S1197   1.851   .     S
C1085  N1392   1.397   .     S
C1086  N1151   1.397   .     A
C1086  S1198   1.851   .     S
C1086  C127    1.458   1_556 S
C1087  S1199   1.851   .     S
C1087  N1152   1.397   .     A
C1088  S1200   1.851   .     S
C1088  C125    1.458   1_556 S
C1088  N1391   1.397   .     S
C1089  C1100   1.394   .     A
C1089  Cl1121  1.778   .     S
C1089  C1108   1.417   .     A
C1090  C1107   1.407   .     A
C1090  C1101   1.388   .     A
C1090  Cl1129  1.771   .     S
C1091  C1098   1.394   .     A
C1091  C1107   1.417   .     A
C1091  Cl1130  1.778   .     S
C1092  C1109   1.472   .     S
C1092  O1164   1.311   .     A
C1092  O1175   1.302   .     A
C1093  Cl1131  1.771   .     S
C1093  C1099   1.388   .     A
C1093  C1108   1.407   .     A
C1094  Cl1132  1.778   .     S
C1094  C1110   1.417   .     A
C1094  C1105   1.394   .     A
C1095  Cl1133  1.771   .     S
C1095  C1109   1.407   .     A
C1095  C1106   1.388   .     A
C1096  C1109   1.417   .     A
C1096  C1102   1.394   .     A
C1096  Cl1134  1.778   .     S
C1097  C1110   1.407   .     A
C1097  C1104   1.388   .     A
C1097  Cl1135  1.771   .     S
C1098  Cl1136  1.778   .     S
C1098  C1112   1.417   .     A
C1099  C1111   1.407   .     A
C1099  Cl1122  1.771   .     S
C1100  Cl1123  1.778   .     S
C1100  C1111   1.417   .     A
C1101  C1112   1.407   .     A
C1101  Cl1124  1.771   .     S
C1102  C1115   1.417   .     A
C1102  Cl1125  1.778   .     S
C1103  C1108   1.472   .     S
C1103  O1191   1.311   .     A
C1103  O1188   1.302   .     A
C1104  C1113   1.407   .     A
C1104  Cl1126  1.771   .     S
C1105  Cl1127  1.778   .     S
C1105  C1113   1.417   .     A
C1106  Cl1128  1.771   .     S
C1106  C1115   1.407   .     A
C1107  C1114   1.472   .     S
C1111  C1119   1.472   .     S
C1112  C1118   1.472   .     S
C1113  C1117   1.472   .     S
C1114  O1190   1.302   .     A
C1114  O1189   1.311   .     A
C1115  C1116   1.472   .     S
C1116  O1156   1.311   .     A
C1116  O1192   1.302   .     A
C1117  O1154   1.311   .     A
C1117  O1155   1.302   .     A
C1118  O1157   1.302   .     A
C1118  O1160   1.311   .     A
C1119  O1158   1.311   .     A
C1119  O1159   1.302   .     A
C1120  N1150   1.397   .     A
C1120  S1193   1.851   .     S
Cu1137 Cu1138  2.706   .     S
Cu1137 N1149   2.033   .     S
Cu1137 O1153   1.977   .     S
Cu1137 O1189   1.977   .     S
Cu1138 N1150   2.033   .     S
Cu1138 O1186   1.977   .     S
Cu1138 O1190   1.977   .     S
Cu1139 N1151   2.033   .     S
Cu1139 Cu1140  2.706   .     S
Cu1139 O1158   1.977   .     S
Cu1139 O1155   1.977   .     S
Cu1139 O1400   1.977   1_545 S
Cu1139 O1432   1.977   1_545 S
Cu1140 O1159   1.977   .     S
Cu1140 N1152   2.033   .     S
Cu1140 O1154   1.977   .     S
Cu1140 O1396   1.977   1_545 S
Cu1140 O1397   1.977   1_545 S
H1143  O1050   0.991   1_655 S
H1144  O1053   0.991   1_655 S
H1145  O1177   0.991   .     S
H1146  O1180   0.991   .     S
H1147  O1183   0.991   .     S
H1148  O1187   0.991   .     S
N1151  C1328   1.397   1_545 S
N1152  C1325   1.397   1_545 S
O1156  Cu1380  1.977   .     S
O1157  Cu1380  1.977   .     S
O1160  Cu1379  1.977   .     S
O1161  S1073   1.498   1_655 S
O1162  S1193   1.500   .     D
O1163  H1021   0.991   1_655 S
O1163  S1073   1.674   1_655 S
O1164  Cu1018  1.977   1_655 S
O1165  S1074   1.498   1_655 S
O1166  S1194   1.500   .     D
O1167  H1022   0.991   1_655 S
O1167  S1074   1.674   1_655 S
O1169  S1195   1.500   .     D
O1172  S1196   1.500   .     D
O1174  S1197   1.498   .     D
O1175  Cu1017  1.977   1_655 S
O1176  S1197   1.500   .     D
O1177  S1197   1.674   .     S
O1178  S1198   1.498   .     D
O1179  S1198   1.500   .     D
O1180  S1198   1.674   .     S
O1181  S1199   1.498   .     D
O1182  S1199   1.500   .     D
O1183  S1199   1.674   .     S
O1184  S1200   1.498   .     D
O1185  S1200   1.500   .     D
O1187  S1200   1.674   .     S
O1188  Cu1018  1.977   1_655 S
O1191  Cu1017  1.977   1_655 S
O1192  Cu1379  1.977   .     S
S1195  O1048   1.498   1_655 S
S1195  O1050   1.674   1_655 S
S1196  O1053   1.674   1_655 S
S1196  O1051   1.498   1_655 S
C1201  O1306   1.311   .     A
C1201  O1273   1.302   .     A
C1201  C1230   1.472   .     S
C1202  N1269   1.397   .     A
C1202  S1314   1.851   .     S
C1202  C363    1.458   1_456 S
C1203  S1315   1.851   .     S
C1203  N1390   1.397   .     S
C1204  S1316   1.851   .     S
C1204  C400    1.458   1_556 S
C1204  N1389   1.397   .     S
C1205  S1317   1.851   .     S
C1205  N1032   1.397   1_565 S
C1206  N1271   1.397   .     A
C1206  S1318   1.851   .     S
C1206  C247    1.458   1_556 S
C1207  S1319   1.851   .     S
C1207  N1272   1.397   .     A
C1208  S1320   1.851   .     S
C1208  C245    1.458   1_556 S
C1208  N1031   1.397   1_565 S
C1209  C1220   1.394   .     A
C1209  Cl1241  1.778   .     S
C1209  C1228   1.417   .     A
C1210  C1227   1.407   .     A
C1210  C1221   1.388   .     A
C1210  Cl1249  1.771   .     S
C1211  C1218   1.394   .     A
C1211  C1227   1.417   .     A
C1211  Cl1250  1.778   .     S
C1212  C1229   1.472   .     S
C1212  O1284   1.311   .     A
C1212  O1295   1.302   .     A
C1213  Cl1251  1.771   .     S
C1213  C1219   1.388   .     A
C1213  C1228   1.407   .     A
C1214  Cl1252  1.778   .     S
C1214  C1230   1.417   .     A
C1214  C1225   1.394   .     A
C1215  Cl1253  1.771   .     S
C1215  C1229   1.407   .     A
C1215  C1226   1.388   .     A
C1216  C1229   1.417   .     A
C1216  C1222   1.394   .     A
C1216  Cl1254  1.778   .     S
C1217  C1230   1.407   .     A
C1217  C1224   1.388   .     A
C1217  Cl1255  1.771   .     S
C1218  Cl1256  1.778   .     S
C1218  C1232   1.417   .     A
C1219  C1231   1.407   .     A
C1219  Cl1242  1.771   .     S
C1220  Cl1243  1.778   .     S
C1220  C1231   1.417   .     A
C1221  C1232   1.407   .     A
C1221  Cl1244  1.771   .     S
C1222  C1235   1.417   .     A
C1222  Cl1245  1.778   .     S
C1223  C1228   1.472   .     S
C1223  O1311   1.311   .     A
C1223  O1308   1.302   .     A
C1224  C1233   1.407   .     A
C1224  Cl1246  1.771   .     S
C1225  Cl1247  1.778   .     S
C1225  C1233   1.417   .     A
C1226  Cl1248  1.771   .     S
C1226  C1235   1.407   .     A
C1227  C1234   1.472   .     S
C1231  C1239   1.472   .     S
C1232  C1238   1.472   .     S
C1233  C1237   1.472   .     S
C1234  O1310   1.302   .     A
C1234  O1309   1.311   .     A
C1235  C1236   1.472   .     S
C1236  O1276   1.311   .     A
C1236  O1312   1.302   .     A
C1237  O1274   1.311   .     A
C1237  O1275   1.302   .     A
C1238  O1277   1.302   .     A
C1238  O1280   1.311   .     A
C1239  O1278   1.311   .     A
C1239  O1279   1.302   .     A
C1240  N1270   1.397   .     A
C1240  S1313   1.851   .     S
C1240  C844    1.458   1_455 S
Cu1257 O1431   1.977   1_455 S
Cu1257 O1415   1.977   1_455 S
Cu1257 Cu1258  2.706   .     S
Cu1257 N1269   2.033   .     S
Cu1257 O1273   1.977   .     S
Cu1257 O1309   1.977   .     S
Cu1258 N1270   2.033   .     S
Cu1258 O1306   1.977   .     S
Cu1258 O1310   1.977   .     S
Cu1258 O1404   1.977   1_455 S
Cu1258 O1428   1.977   1_455 S
Cu1259 N1271   2.033   .     S
Cu1259 Cu1260  2.706   .     S
Cu1259 O1278   1.977   .     S
Cu1259 O1275   1.977   .     S
Cu1260 O1279   1.977   .     S
Cu1260 N1272   2.033   .     S
Cu1260 O1274   1.977   .     S
H1261  O1403   0.991   1_455 S
H1262  O1407   0.991   1_455 S
H1263  O1410   0.991   .     S
H1264  O1413   0.991   .     S
H1265  O1297   0.991   .     S
H1266  O1300   0.991   .     S
H1267  O1303   0.991   .     S
H1268  O1307   0.991   .     S
N1269  C1324   1.397   1_455 S
N1270  C1323   1.397   1_455 S
O1276  Cu1020  1.977   1_565 S
O1277  Cu1020  1.977   1_565 S
O1280  Cu1019  1.977   1_565 S
O1281  S1433   1.498   .     S
O1282  S1313   1.500   .     D
O1283  H1381   0.991   .     S
O1283  S1433   1.674   .     S
O1284  Cu1378  1.977   .     S
O1285  S1434   1.498   .     S
O1286  S1314   1.500   .     D
O1287  H1382   0.991   .     S
O1287  S1434   1.674   .     S
O1288  S1435   1.498   1_455 S
O1289  S1315   1.500   .     D
O1290  H1383   0.991   1_455 S
O1290  S1435   1.674   1_455 S
O1291  S1436   1.498   1_455 S
O1292  S1316   1.500   .     D
O1293  H1384   0.991   1_455 S
O1293  S1436   1.674   1_455 S
O1294  S1317   1.498   .     D
O1295  Cu1377  1.977   .     S
O1296  S1317   1.500   .     D
O1297  S1317   1.674   .     S
O1298  S1318   1.498   .     D
O1299  S1318   1.500   .     D
O1300  S1318   1.674   .     S
O1301  S1319   1.498   .     D
O1302  S1319   1.500   .     D
O1303  S1319   1.674   .     S
O1304  S1320   1.498   .     D
O1305  S1320   1.500   .     D
O1307  S1320   1.674   .     S
O1308  Cu1378  1.977   .     S
O1311  Cu1377  1.977   .     S
O1312  Cu1019  1.977   1_565 S
S1313  O1401   1.498   1_455 S
S1313  O1403   1.674   1_455 S
S1314  O1407   1.674   1_455 S
S1314  O1405   1.498   1_455 S
S1315  O1408   1.498   .     S
S1315  O1410   1.674   .     S
S1316  O1413   1.674   .     S
S1316  O1411   1.498   .     S
C1321  O1426   1.311   .     A
C1321  O1393   1.302   .     A
C1321  C1350   1.472   .     S
C1322  N1389   1.397   .     A
C1322  S1434   1.851   .     S
C1322  C243    1.458   1_556 S
C1323  S1435   1.851   .     S
C1323  C722    1.458   1_655 S
C1323  N1270   1.397   1_655 S
C1324  S1436   1.851   .     S
C1324  C280    1.458   1_656 S
C1324  N1269   1.397   1_655 S
C1325  S1437   1.851   .     S
C1325  N1152   1.397   1_565 S
C1326  N1391   1.397   .     A
C1326  S1438   1.851   .     S
C1326  C367    1.458   1_556 S
C1327  S1439   1.851   .     S
C1327  N1392   1.397   .     A
C1328  S1440   1.851   .     S
C1328  C365    1.458   1_556 S
C1328  N1151   1.397   1_565 S
C1329  C1340   1.394   .     A
C1329  Cl1361  1.778   .     S
C1329  C1348   1.417   .     A
C1330  C1347   1.407   .     A
C1330  C1341   1.388   .     A
C1330  Cl1369  1.771   .     S
C1331  C1338   1.394   .     A
C1331  C1347   1.417   .     A
C1331  Cl1370  1.778   .     S
C1332  C1349   1.472   .     S
C1332  O1404   1.311   .     A
C1332  O1415   1.302   .     A
C1333  Cl1371  1.771   .     S
C1333  C1339   1.388   .     A
C1333  C1348   1.407   .     A
C1334  Cl1372  1.778   .     S
C1334  C1350   1.417   .     A
C1334  C1345   1.394   .     A
C1335  Cl1373  1.771   .     S
C1335  C1349   1.407   .     A
C1335  C1346   1.388   .     A
C1336  C1349   1.417   .     A
C1336  C1342   1.394   .     A
C1336  Cl1374  1.778   .     S
C1337  C1350   1.407   .     A
C1337  C1344   1.388   .     A
C1337  Cl1375  1.771   .     S
C1338  Cl1376  1.778   .     S
C1338  C1352   1.417   .     A
C1339  C1351   1.407   .     A
C1339  Cl1362  1.771   .     S
C1340  Cl1363  1.778   .     S
C1340  C1351   1.417   .     A
C1341  C1352   1.407   .     A
C1341  Cl1364  1.771   .     S
C1342  C1355   1.417   .     A
C1342  Cl1365  1.778   .     S
C1343  C1348   1.472   .     S
C1343  O1431   1.311   .     A
C1343  O1428   1.302   .     A
C1344  C1353   1.407   .     A
C1344  Cl1366  1.771   .     S
C1345  Cl1367  1.778   .     S
C1345  C1353   1.417   .     A
C1346  Cl1368  1.771   .     S
C1346  C1355   1.407   .     A
C1347  C1354   1.472   .     S
C1351  C1359   1.472   .     S
C1352  C1358   1.472   .     S
C1353  C1357   1.472   .     S
C1354  O1430   1.302   .     A
C1354  O1429   1.311   .     A
C1355  C1356   1.472   .     S
C1356  O1396   1.311   .     A
C1356  O1432   1.302   .     A
C1357  O1394   1.311   .     A
C1357  O1395   1.302   .     A
C1358  O1397   1.302   .     A
C1358  O1400   1.311   .     A
C1359  O1398   1.311   .     A
C1359  O1399   1.302   .     A
C1360  N1390   1.397   .     A
C1360  S1433   1.851   .     S
Cu1377 Cu1378  2.706   .     S
Cu1377 N1389   2.033   .     S
Cu1377 O1393   1.977   .     S
Cu1377 O1429   1.977   .     S
Cu1378 N1390   2.033   .     S
Cu1378 O1426   1.977   .     S
Cu1378 O1430   1.977   .     S
Cu1379 N1391   2.033   .     S
Cu1379 Cu1380  2.706   .     S
Cu1379 O1398   1.977   .     S
Cu1379 O1395   1.977   .     S
Cu1380 O1399   1.977   .     S
Cu1380 N1392   2.033   .     S
Cu1380 O1394   1.977   .     S
H1383  O1290   0.991   1_655 S
H1384  O1293   0.991   1_655 S
H1385  O1417   0.991   .     S
H1386  O1420   0.991   .     S
H1387  O1423   0.991   .     S
H1388  O1427   0.991   .     S
O1396  Cu1140  1.977   1_565 S
O1397  Cu1140  1.977   1_565 S
O1400  Cu1139  1.977   1_565 S
O1401  S1313   1.498   1_655 S
O1402  S1433   1.500   .     D
O1403  H1261   0.991   1_655 S
O1403  S1313   1.674   1_655 S
O1404  Cu1258  1.977   1_655 S
O1405  S1314   1.498   1_655 S
O1406  S1434   1.500   .     D
O1407  H1262   0.991   1_655 S
O1407  S1314   1.674   1_655 S
O1409  S1435   1.500   .     D
O1412  S1436   1.500   .     D
O1414  S1437   1.498   .     D
O1415  Cu1257  1.977   1_655 S
O1416  S1437   1.500   .     D
O1417  S1437   1.674   .     S
O1418  S1438   1.498   .     D
O1419  S1438   1.500   .     D
O1420  S1438   1.674   .     S
O1421  S1439   1.498   .     D
O1422  S1439   1.500   .     D
O1423  S1439   1.674   .     S
O1424  S1440   1.498   .     D
O1425  S1440   1.500   .     D
O1427  S1440   1.674   .     S
O1428  Cu1258  1.977   1_655 S
O1431  Cu1257  1.977   1_655 S
O1432  Cu1139  1.977   1_565 S
S1435  O1288   1.498   1_655 S
S1435  O1290   1.674   1_655 S
S1436  O1293   1.674   1_655 S
S1436  O1291   1.498   1_655 S
