data_str_m2_o1_o17_pcu_sym.214
_audit_creation_date              2020-01-03
_audit_creation_method            'Materials Studio'
_symmetry_space_group_name_H-M    'P1'
_symmetry_Int_Tables_number       1
_symmetry_cell_setting            triclinic
loop_
_symmetry_equiv_pos_as_xyz
  x,y,z
_cell_length_a                    32.4548
_cell_length_b                    28.5704
_cell_length_c                    30.0918
_cell_angle_alpha                 89.9464
_cell_angle_beta                  90.2461
_cell_angle_gamma                 89.9819
loop_
_atom_site_label
_atom_site_type_symbol
_atom_site_fract_x
_atom_site_fract_y
_atom_site_fract_z
_atom_site_U_iso_or_equiv
_atom_site_adp_type
_atom_site_occupancy
C1     C     0.08736   0.16667   0.24996   0.00000  Uiso   1.00
C2     C     0.24597   0.16666   0.25004   0.00000  Uiso   1.00
C3     C     0.09228   0.16133   0.02374   0.00000  Uiso   1.00
C4     C     0.24105   0.17201   0.47626   0.00000  Uiso   1.00
C5     C     0.02131   0.12413   0.24966   0.00000  Uiso   1.00
C6     C     0.31203   0.20921   0.25034   0.00000  Uiso   1.00
C7     C     0.31205   0.12413   0.24972   0.00000  Uiso   1.00
C8     C     0.02129   0.20921   0.25028   0.00000  Uiso   1.00
C9     C     0.29059   0.16666   0.25004   0.00000  Uiso   1.00
C10    C     0.04275   0.16667   0.24996   0.00000  Uiso   1.00
C11    C     0.14035   0.02484   0.22309   0.00000  Uiso   1.00
C12    C     0.19298   0.30850   0.27691   0.00000  Uiso   1.00
C13    C     0.19298   0.02477   0.27691   0.00000  Uiso   1.00
C14    C     0.14035   0.30857   0.22309   0.00000  Uiso   1.00
C15    C     0.16678   0.16670   0.16457   0.00000  Uiso   1.00
C16    C     0.16655   0.16664   0.33543   0.00000  Uiso   1.00
C17    C     0.20380   0.16487   0.40641   0.00000  Uiso   1.00
C18    C     0.12954   0.16846   0.09359   0.00000  Uiso   1.00
C19    C     0.16624   0.16647   0.38358   0.00000  Uiso   1.00
C20    C     0.16710   0.16687   0.11642   0.00000  Uiso   1.00
C21    C     0.12849   0.16868   0.40609   0.00000  Uiso   1.00
C22    C     0.20484   0.16465   0.09391   0.00000  Uiso   1.00
C23    C     0.12797   0.16447   0.45298   0.00000  Uiso   1.00
C24    C     0.20536   0.16887   0.04702   0.00000  Uiso   1.00
C25    C     0.16627   0.16627   0.47645   0.00000  Uiso   1.00
C26    C     0.16706   0.16707   0.02355   0.00000  Uiso   1.00
C27    C     0.20394   0.16720   0.45294   0.00000  Uiso   1.00
C28    C     0.12939   0.16613   0.04706   0.00000  Uiso   1.00
C29    C     0.09118   0.15871   0.47771   0.00000  Uiso   1.00
C30    C     0.24215   0.17462   0.02229   0.00000  Uiso   1.00
Cu31   Cu    0.16667   0.21355   0.25000   0.00000  Uiso   1.00
Cu32   Cu    0.16667   0.11978   0.25000   0.00000  Uiso   1.00
H33    H     0.06345   0.15722   0.04115   0.00000  Uiso   1.00
H34    H     0.26988   0.17611   0.45885   0.00000  Uiso   1.00
H35    H     0.03735   0.09087   0.24937   0.00000  Uiso   1.00
H36    H     0.29599   0.24246   0.25063   0.00000  Uiso   1.00
H37    H     0.29602   0.09087   0.24948   0.00000  Uiso   1.00
H38    H     0.03731   0.24246   0.25052   0.00000  Uiso   1.00
H39    H     0.11928   0.04355   0.20153   0.00000  Uiso   1.00
H40    H     0.21406   0.28978   0.29847   0.00000  Uiso   1.00
H41    H     0.21406   0.04343   0.29847   0.00000  Uiso   1.00
H42    H     0.11928   0.28991   0.20153   0.00000  Uiso   1.00
N43    N     0.16667   0.28402   0.25000   0.00000  Uiso   1.00
N44    N     0.16667   0.04931   0.25000   0.00000  Uiso   1.00
O45    O     0.10655   0.20625   0.24999   0.00000  Uiso   1.00
O46    O     0.22679   0.12709   0.25000   0.00000  Uiso   1.00
O47    O     0.22679   0.20625   0.25000   0.00000  Uiso   1.00
O48    O     0.10655   0.12709   0.24999   0.00000  Uiso   1.00
O49    O     0.16666   0.20627   0.18513   0.00000  Uiso   1.00
O50    O     0.16668   0.12707   0.31487   0.00000  Uiso   1.00
O51    O     0.16668   0.20627   0.31487   0.00000  Uiso   1.00
O52    O     0.16666   0.12707   0.18513   0.00000  Uiso   1.00
Br53   Br    0.25464   0.16114   0.37285   0.00000  Uiso   1.00
Br54   Br    0.07870   0.17219   0.12715   0.00000  Uiso   1.00
Br55   Br    0.08053   0.18613   0.37113   0.00000  Uiso   1.00
Br56   Br    0.25280   0.14720   0.12887   0.00000  Uiso   1.00
Br57   Br    0.03890   0.13795   0.45435   0.00000  Uiso   1.00
Br58   Br    0.29443   0.19538   0.04565   0.00000  Uiso   1.00
C59    C     0.42070   0.16667   0.24996   0.00000  Uiso   1.00
C60    C     0.57930   0.16666   0.25004   0.00000  Uiso   1.00
C61    C     0.42561   0.16133   0.02374   0.00000  Uiso   1.00
C62    C     0.57439   0.17201   0.47626   0.00000  Uiso   1.00
C63    C     0.35464   0.12413   0.24966   0.00000  Uiso   1.00
C64    C     0.64536   0.20921   0.25034   0.00000  Uiso   1.00
C65    C     0.64538   0.12413   0.24972   0.00000  Uiso   1.00
C66    C     0.35462   0.20921   0.25028   0.00000  Uiso   1.00
C67    C     0.62392   0.16666   0.25004   0.00000  Uiso   1.00
C68    C     0.37608   0.16667   0.24996   0.00000  Uiso   1.00
C69    C     0.47369   0.02484   0.22309   0.00000  Uiso   1.00
C70    C     0.52631   0.30850   0.27691   0.00000  Uiso   1.00
C71    C     0.52631   0.02477   0.27691   0.00000  Uiso   1.00
C72    C     0.47369   0.30857   0.22309   0.00000  Uiso   1.00
C73    C     0.50012   0.16670   0.16457   0.00000  Uiso   1.00
C74    C     0.49988   0.16664   0.33543   0.00000  Uiso   1.00
C75    C     0.53713   0.16487   0.40641   0.00000  Uiso   1.00
C76    C     0.46287   0.16846   0.09359   0.00000  Uiso   1.00
C77    C     0.49957   0.16647   0.38358   0.00000  Uiso   1.00
C78    C     0.50043   0.16687   0.11642   0.00000  Uiso   1.00
C79    C     0.46183   0.16868   0.40609   0.00000  Uiso   1.00
C80    C     0.53817   0.16465   0.09391   0.00000  Uiso   1.00
C81    C     0.46130   0.16447   0.45298   0.00000  Uiso   1.00
C82    C     0.53870   0.16887   0.04702   0.00000  Uiso   1.00
C83    C     0.49961   0.16627   0.47645   0.00000  Uiso   1.00
C84    C     0.50039   0.16707   0.02355   0.00000  Uiso   1.00
C85    C     0.53727   0.16720   0.45294   0.00000  Uiso   1.00
C86    C     0.46273   0.16613   0.04706   0.00000  Uiso   1.00
C87    C     0.42451   0.15871   0.47771   0.00000  Uiso   1.00
C88    C     0.57549   0.17462   0.02229   0.00000  Uiso   1.00
Cu89   Cu    0.50000   0.21355   0.25000   0.00000  Uiso   1.00
Cu90   Cu    0.50000   0.11978   0.25000   0.00000  Uiso   1.00
H91    H     0.39679   0.15722   0.04115   0.00000  Uiso   1.00
H92    H     0.60321   0.17611   0.45885   0.00000  Uiso   1.00
H93    H     0.37068   0.09087   0.24937   0.00000  Uiso   1.00
H94    H     0.62932   0.24246   0.25063   0.00000  Uiso   1.00
H95    H     0.62935   0.09087   0.24948   0.00000  Uiso   1.00
H96    H     0.37065   0.24246   0.25052   0.00000  Uiso   1.00
H97    H     0.45261   0.04355   0.20153   0.00000  Uiso   1.00
H98    H     0.54739   0.28978   0.29847   0.00000  Uiso   1.00
H99    H     0.54739   0.04343   0.29847   0.00000  Uiso   1.00
H100   H     0.45261   0.28991   0.20153   0.00000  Uiso   1.00
N101   N     0.50000   0.28402   0.25000   0.00000  Uiso   1.00
N102   N     0.50000   0.04931   0.25000   0.00000  Uiso   1.00
O103   O     0.43988   0.20625   0.24999   0.00000  Uiso   1.00
O104   O     0.56012   0.12709   0.25000   0.00000  Uiso   1.00
O105   O     0.56012   0.20625   0.25000   0.00000  Uiso   1.00
O106   O     0.43988   0.12709   0.24999   0.00000  Uiso   1.00
O107   O     0.49999   0.20627   0.18513   0.00000  Uiso   1.00
O108   O     0.50001   0.12707   0.31487   0.00000  Uiso   1.00
O109   O     0.50001   0.20627   0.31487   0.00000  Uiso   1.00
O110   O     0.49999   0.12707   0.18513   0.00000  Uiso   1.00
Br111  Br    0.58797   0.16114   0.37285   0.00000  Uiso   1.00
Br112  Br    0.41203   0.17219   0.12715   0.00000  Uiso   1.00
Br113  Br    0.41386   0.18613   0.37113   0.00000  Uiso   1.00
Br114  Br    0.58614   0.14720   0.12887   0.00000  Uiso   1.00
Br115  Br    0.37223   0.13795   0.45435   0.00000  Uiso   1.00
Br116  Br    0.62777   0.19538   0.04565   0.00000  Uiso   1.00
C117   C     0.75403   0.16667   0.24996   0.00000  Uiso   1.00
C118   C     0.91264   0.16666   0.25004   0.00000  Uiso   1.00
C119   C     0.75895   0.16133   0.02374   0.00000  Uiso   1.00
C120   C     0.90772   0.17201   0.47626   0.00000  Uiso   1.00
C121   C     0.68797   0.12413   0.24966   0.00000  Uiso   1.00
C122   C     0.97869   0.20921   0.25034   0.00000  Uiso   1.00
C123   C     0.97871   0.12413   0.24972   0.00000  Uiso   1.00
C124   C     0.68795   0.20921   0.25028   0.00000  Uiso   1.00
C125   C     0.95725   0.16666   0.25004   0.00000  Uiso   1.00
C126   C     0.70941   0.16667   0.24996   0.00000  Uiso   1.00
C127   C     0.80702   0.02484   0.22309   0.00000  Uiso   1.00
C128   C     0.85965   0.30850   0.27691   0.00000  Uiso   1.00
C129   C     0.85965   0.02477   0.27691   0.00000  Uiso   1.00
C130   C     0.80702   0.30857   0.22309   0.00000  Uiso   1.00
C131   C     0.83345   0.16670   0.16457   0.00000  Uiso   1.00
C132   C     0.83322   0.16664   0.33543   0.00000  Uiso   1.00
C133   C     0.87046   0.16487   0.40641   0.00000  Uiso   1.00
C134   C     0.79620   0.16846   0.09359   0.00000  Uiso   1.00
C135   C     0.83291   0.16647   0.38358   0.00000  Uiso   1.00
C136   C     0.83376   0.16687   0.11642   0.00000  Uiso   1.00
C137   C     0.79516   0.16868   0.40609   0.00000  Uiso   1.00
C138   C     0.87151   0.16465   0.09391   0.00000  Uiso   1.00
C139   C     0.79464   0.16447   0.45298   0.00000  Uiso   1.00
C140   C     0.87203   0.16887   0.04702   0.00000  Uiso   1.00
C141   C     0.83294   0.16627   0.47645   0.00000  Uiso   1.00
C142   C     0.83373   0.16707   0.02355   0.00000  Uiso   1.00
C143   C     0.87061   0.16720   0.45294   0.00000  Uiso   1.00
C144   C     0.79606   0.16613   0.04706   0.00000  Uiso   1.00
C145   C     0.75785   0.15871   0.47771   0.00000  Uiso   1.00
C146   C     0.90882   0.17462   0.02229   0.00000  Uiso   1.00
Cu147  Cu    0.83333   0.21355   0.25000   0.00000  Uiso   1.00
Cu148  Cu    0.83333   0.11978   0.25000   0.00000  Uiso   1.00
H149   H     0.73012   0.15722   0.04115   0.00000  Uiso   1.00
H150   H     0.93655   0.17611   0.45885   0.00000  Uiso   1.00
H151   H     0.70401   0.09087   0.24937   0.00000  Uiso   1.00
H152   H     0.96265   0.24246   0.25063   0.00000  Uiso   1.00
H153   H     0.96269   0.09087   0.24948   0.00000  Uiso   1.00
H154   H     0.70398   0.24246   0.25052   0.00000  Uiso   1.00
H155   H     0.78594   0.04355   0.20153   0.00000  Uiso   1.00
H156   H     0.88072   0.28978   0.29847   0.00000  Uiso   1.00
H157   H     0.88073   0.04343   0.29847   0.00000  Uiso   1.00
H158   H     0.78594   0.28991   0.20153   0.00000  Uiso   1.00
N159   N     0.83333   0.28402   0.25000   0.00000  Uiso   1.00
N160   N     0.83333   0.04931   0.25000   0.00000  Uiso   1.00
O161   O     0.77321   0.20625   0.24999   0.00000  Uiso   1.00
O162   O     0.89345   0.12709   0.25000   0.00000  Uiso   1.00
O163   O     0.89345   0.20625   0.25000   0.00000  Uiso   1.00
O164   O     0.77321   0.12709   0.24999   0.00000  Uiso   1.00
O165   O     0.83332   0.20627   0.18513   0.00000  Uiso   1.00
O166   O     0.83334   0.12707   0.31487   0.00000  Uiso   1.00
O167   O     0.83334   0.20627   0.31487   0.00000  Uiso   1.00
O168   O     0.83332   0.12707   0.18513   0.00000  Uiso   1.00
Br169  Br    0.92131   0.16114   0.37285   0.00000  Uiso   1.00
Br170  Br    0.74536   0.17219   0.12715   0.00000  Uiso   1.00
Br171  Br    0.74720   0.18613   0.37113   0.00000  Uiso   1.00
Br172  Br    0.91947   0.14720   0.12887   0.00000  Uiso   1.00
Br173  Br    0.70557   0.13795   0.45435   0.00000  Uiso   1.00
Br174  Br    0.96110   0.19538   0.04565   0.00000  Uiso   1.00
C175   C     0.08736   0.50000   0.24996   0.00000  Uiso   1.00
C176   C     0.24597   0.50000   0.25004   0.00000  Uiso   1.00
C177   C     0.09228   0.49466   0.02374   0.00000  Uiso   1.00
C178   C     0.24105   0.50534   0.47626   0.00000  Uiso   1.00
C179   C     0.02131   0.45746   0.24966   0.00000  Uiso   1.00
C180   C     0.31203   0.54254   0.25034   0.00000  Uiso   1.00
C181   C     0.31205   0.45746   0.24972   0.00000  Uiso   1.00
C182   C     0.02129   0.54254   0.25028   0.00000  Uiso   1.00
C183   C     0.29059   0.50000   0.25004   0.00000  Uiso   1.00
C184   C     0.04275   0.50000   0.24996   0.00000  Uiso   1.00
C185   C     0.14035   0.35817   0.22309   0.00000  Uiso   1.00
C186   C     0.19298   0.64183   0.27691   0.00000  Uiso   1.00
C187   C     0.19298   0.35810   0.27691   0.00000  Uiso   1.00
C188   C     0.14035   0.64190   0.22309   0.00000  Uiso   1.00
C189   C     0.16678   0.50003   0.16457   0.00000  Uiso   1.00
C190   C     0.16655   0.49997   0.33543   0.00000  Uiso   1.00
C191   C     0.20380   0.49820   0.40641   0.00000  Uiso   1.00
C192   C     0.12954   0.50180   0.09359   0.00000  Uiso   1.00
C193   C     0.16624   0.49980   0.38358   0.00000  Uiso   1.00
C194   C     0.16710   0.50020   0.11642   0.00000  Uiso   1.00
C195   C     0.12849   0.50202   0.40609   0.00000  Uiso   1.00
C196   C     0.20484   0.49798   0.09391   0.00000  Uiso   1.00
C197   C     0.12797   0.49780   0.45298   0.00000  Uiso   1.00
C198   C     0.20536   0.50220   0.04702   0.00000  Uiso   1.00
C199   C     0.16627   0.49960   0.47645   0.00000  Uiso   1.00
C200   C     0.16706   0.50040   0.02355   0.00000  Uiso   1.00
C201   C     0.20394   0.50053   0.45294   0.00000  Uiso   1.00
C202   C     0.12939   0.49947   0.04706   0.00000  Uiso   1.00
C203   C     0.09118   0.49205   0.47771   0.00000  Uiso   1.00
C204   C     0.24215   0.50796   0.02229   0.00000  Uiso   1.00
Cu205  Cu    0.16667   0.54689   0.25000   0.00000  Uiso   1.00
Cu206  Cu    0.16667   0.45311   0.25000   0.00000  Uiso   1.00
H207   H     0.06345   0.49056   0.04115   0.00000  Uiso   1.00
H208   H     0.26988   0.50945   0.45885   0.00000  Uiso   1.00
H209   H     0.03735   0.42421   0.24937   0.00000  Uiso   1.00
H210   H     0.29599   0.57579   0.25063   0.00000  Uiso   1.00
H211   H     0.29602   0.42421   0.24948   0.00000  Uiso   1.00
H212   H     0.03731   0.57579   0.25052   0.00000  Uiso   1.00
H213   H     0.11928   0.37688   0.20153   0.00000  Uiso   1.00
H214   H     0.21406   0.62312   0.29847   0.00000  Uiso   1.00
H215   H     0.21406   0.37676   0.29847   0.00000  Uiso   1.00
H216   H     0.11928   0.62324   0.20153   0.00000  Uiso   1.00
N217   N     0.16667   0.61736   0.25000   0.00000  Uiso   1.00
N218   N     0.16667   0.38264   0.25000   0.00000  Uiso   1.00
O219   O     0.10655   0.53958   0.24999   0.00000  Uiso   1.00
O220   O     0.22679   0.46042   0.25000   0.00000  Uiso   1.00
O221   O     0.22679   0.53958   0.25000   0.00000  Uiso   1.00
O222   O     0.10655   0.46042   0.24999   0.00000  Uiso   1.00
O223   O     0.16666   0.53960   0.18513   0.00000  Uiso   1.00
O224   O     0.16668   0.46040   0.31487   0.00000  Uiso   1.00
O225   O     0.16668   0.53960   0.31487   0.00000  Uiso   1.00
O226   O     0.16666   0.46040   0.18513   0.00000  Uiso   1.00
Br227  Br    0.25464   0.49448   0.37285   0.00000  Uiso   1.00
Br228  Br    0.07870   0.50552   0.12715   0.00000  Uiso   1.00
Br229  Br    0.08053   0.51947   0.37113   0.00000  Uiso   1.00
Br230  Br    0.25280   0.48054   0.12887   0.00000  Uiso   1.00
Br231  Br    0.03890   0.47129   0.45435   0.00000  Uiso   1.00
Br232  Br    0.29443   0.52872   0.04565   0.00000  Uiso   1.00
C233   C     0.42070   0.50000   0.24996   0.00000  Uiso   1.00
C234   C     0.57930   0.50000   0.25004   0.00000  Uiso   1.00
C235   C     0.42561   0.49466   0.02374   0.00000  Uiso   1.00
C236   C     0.57439   0.50534   0.47626   0.00000  Uiso   1.00
C237   C     0.35464   0.45746   0.24966   0.00000  Uiso   1.00
C238   C     0.64536   0.54254   0.25034   0.00000  Uiso   1.00
C239   C     0.64538   0.45746   0.24972   0.00000  Uiso   1.00
C240   C     0.35462   0.54254   0.25028   0.00000  Uiso   1.00
C241   C     0.62392   0.50000   0.25004   0.00000  Uiso   1.00
C242   C     0.37608   0.50000   0.24996   0.00000  Uiso   1.00
C243   C     0.47369   0.35817   0.22309   0.00000  Uiso   1.00
C244   C     0.52631   0.64183   0.27691   0.00000  Uiso   1.00
C245   C     0.52631   0.35810   0.27691   0.00000  Uiso   1.00
C246   C     0.47369   0.64190   0.22309   0.00000  Uiso   1.00
C247   C     0.50012   0.50003   0.16457   0.00000  Uiso   1.00
C248   C     0.49988   0.49997   0.33543   0.00000  Uiso   1.00
C249   C     0.53713   0.49820   0.40641   0.00000  Uiso   1.00
C250   C     0.46287   0.50180   0.09359   0.00000  Uiso   1.00
C251   C     0.49957   0.49980   0.38358   0.00000  Uiso   1.00
C252   C     0.50043   0.50020   0.11642   0.00000  Uiso   1.00
C253   C     0.46183   0.50202   0.40609   0.00000  Uiso   1.00
C254   C     0.53817   0.49798   0.09391   0.00000  Uiso   1.00
C255   C     0.46130   0.49780   0.45298   0.00000  Uiso   1.00
C256   C     0.53870   0.50220   0.04702   0.00000  Uiso   1.00
C257   C     0.49961   0.49960   0.47645   0.00000  Uiso   1.00
C258   C     0.50039   0.50040   0.02355   0.00000  Uiso   1.00
C259   C     0.53727   0.50053   0.45294   0.00000  Uiso   1.00
C260   C     0.46273   0.49947   0.04706   0.00000  Uiso   1.00
C261   C     0.42451   0.49205   0.47771   0.00000  Uiso   1.00
C262   C     0.57549   0.50796   0.02229   0.00000  Uiso   1.00
Cu263  Cu    0.50000   0.54689   0.25000   0.00000  Uiso   1.00
Cu264  Cu    0.50000   0.45311   0.25000   0.00000  Uiso   1.00
H265   H     0.39679   0.49056   0.04115   0.00000  Uiso   1.00
H266   H     0.60321   0.50945   0.45885   0.00000  Uiso   1.00
H267   H     0.37068   0.42421   0.24937   0.00000  Uiso   1.00
H268   H     0.62932   0.57579   0.25063   0.00000  Uiso   1.00
H269   H     0.62935   0.42421   0.24948   0.00000  Uiso   1.00
H270   H     0.37065   0.57579   0.25052   0.00000  Uiso   1.00
H271   H     0.45261   0.37688   0.20153   0.00000  Uiso   1.00
H272   H     0.54739   0.62312   0.29847   0.00000  Uiso   1.00
H273   H     0.54739   0.37676   0.29847   0.00000  Uiso   1.00
H274   H     0.45261   0.62324   0.20153   0.00000  Uiso   1.00
N275   N     0.50000   0.61736   0.25000   0.00000  Uiso   1.00
N276   N     0.50000   0.38264   0.25000   0.00000  Uiso   1.00
O277   O     0.43988   0.53958   0.24999   0.00000  Uiso   1.00
O278   O     0.56012   0.46042   0.25000   0.00000  Uiso   1.00
O279   O     0.56012   0.53958   0.25000   0.00000  Uiso   1.00
O280   O     0.43988   0.46042   0.24999   0.00000  Uiso   1.00
O281   O     0.49999   0.53960   0.18513   0.00000  Uiso   1.00
O282   O     0.50001   0.46040   0.31487   0.00000  Uiso   1.00
O283   O     0.50001   0.53960   0.31487   0.00000  Uiso   1.00
O284   O     0.49999   0.46040   0.18513   0.00000  Uiso   1.00
Br285  Br    0.58797   0.49448   0.37285   0.00000  Uiso   1.00
Br286  Br    0.41203   0.50552   0.12715   0.00000  Uiso   1.00
Br287  Br    0.41386   0.51947   0.37113   0.00000  Uiso   1.00
Br288  Br    0.58614   0.48054   0.12887   0.00000  Uiso   1.00
Br289  Br    0.37223   0.47129   0.45435   0.00000  Uiso   1.00
Br290  Br    0.62777   0.52872   0.04565   0.00000  Uiso   1.00
C291   C     0.75403   0.50000   0.24996   0.00000  Uiso   1.00
C292   C     0.91264   0.50000   0.25004   0.00000  Uiso   1.00
C293   C     0.75895   0.49466   0.02374   0.00000  Uiso   1.00
C294   C     0.90772   0.50534   0.47626   0.00000  Uiso   1.00
C295   C     0.68797   0.45746   0.24966   0.00000  Uiso   1.00
C296   C     0.97869   0.54254   0.25034   0.00000  Uiso   1.00
C297   C     0.97871   0.45746   0.24972   0.00000  Uiso   1.00
C298   C     0.68795   0.54254   0.25028   0.00000  Uiso   1.00
C299   C     0.95725   0.50000   0.25004   0.00000  Uiso   1.00
C300   C     0.70941   0.50000   0.24996   0.00000  Uiso   1.00
C301   C     0.80702   0.35817   0.22309   0.00000  Uiso   1.00
C302   C     0.85965   0.64183   0.27691   0.00000  Uiso   1.00
C303   C     0.85965   0.35810   0.27691   0.00000  Uiso   1.00
C304   C     0.80702   0.64190   0.22309   0.00000  Uiso   1.00
C305   C     0.83345   0.50003   0.16457   0.00000  Uiso   1.00
C306   C     0.83322   0.49997   0.33543   0.00000  Uiso   1.00
C307   C     0.87046   0.49820   0.40641   0.00000  Uiso   1.00
C308   C     0.79620   0.50180   0.09359   0.00000  Uiso   1.00
C309   C     0.83291   0.49980   0.38358   0.00000  Uiso   1.00
C310   C     0.83376   0.50020   0.11642   0.00000  Uiso   1.00
C311   C     0.79516   0.50202   0.40609   0.00000  Uiso   1.00
C312   C     0.87151   0.49798   0.09391   0.00000  Uiso   1.00
C313   C     0.79464   0.49780   0.45298   0.00000  Uiso   1.00
C314   C     0.87203   0.50220   0.04702   0.00000  Uiso   1.00
C315   C     0.83294   0.49960   0.47645   0.00000  Uiso   1.00
C316   C     0.83373   0.50040   0.02355   0.00000  Uiso   1.00
C317   C     0.87061   0.50053   0.45294   0.00000  Uiso   1.00
C318   C     0.79606   0.49947   0.04706   0.00000  Uiso   1.00
C319   C     0.75785   0.49205   0.47771   0.00000  Uiso   1.00
C320   C     0.90882   0.50796   0.02229   0.00000  Uiso   1.00
Cu321  Cu    0.83333   0.54689   0.25000   0.00000  Uiso   1.00
Cu322  Cu    0.83333   0.45311   0.25000   0.00000  Uiso   1.00
H323   H     0.73012   0.49056   0.04115   0.00000  Uiso   1.00
H324   H     0.93655   0.50945   0.45885   0.00000  Uiso   1.00
H325   H     0.70401   0.42421   0.24937   0.00000  Uiso   1.00
H326   H     0.96265   0.57579   0.25063   0.00000  Uiso   1.00
H327   H     0.96269   0.42421   0.24948   0.00000  Uiso   1.00
H328   H     0.70398   0.57579   0.25052   0.00000  Uiso   1.00
H329   H     0.78594   0.37688   0.20153   0.00000  Uiso   1.00
H330   H     0.88072   0.62312   0.29847   0.00000  Uiso   1.00
H331   H     0.88073   0.37676   0.29847   0.00000  Uiso   1.00
H332   H     0.78594   0.62324   0.20153   0.00000  Uiso   1.00
N333   N     0.83333   0.61736   0.25000   0.00000  Uiso   1.00
N334   N     0.83333   0.38264   0.25000   0.00000  Uiso   1.00
O335   O     0.77321   0.53958   0.24999   0.00000  Uiso   1.00
O336   O     0.89345   0.46042   0.25000   0.00000  Uiso   1.00
O337   O     0.89345   0.53958   0.25000   0.00000  Uiso   1.00
O338   O     0.77321   0.46042   0.24999   0.00000  Uiso   1.00
O339   O     0.83332   0.53960   0.18513   0.00000  Uiso   1.00
O340   O     0.83334   0.46040   0.31487   0.00000  Uiso   1.00
O341   O     0.83334   0.53960   0.31487   0.00000  Uiso   1.00
O342   O     0.83332   0.46040   0.18513   0.00000  Uiso   1.00
Br343  Br    0.92131   0.49448   0.37285   0.00000  Uiso   1.00
Br344  Br    0.74536   0.50552   0.12715   0.00000  Uiso   1.00
Br345  Br    0.74720   0.51947   0.37113   0.00000  Uiso   1.00
Br346  Br    0.91947   0.48054   0.12887   0.00000  Uiso   1.00
Br347  Br    0.70557   0.47129   0.45435   0.00000  Uiso   1.00
Br348  Br    0.96110   0.52872   0.04565   0.00000  Uiso   1.00
C349   C     0.08736   0.83334   0.24996   0.00000  Uiso   1.00
C350   C     0.24597   0.83333   0.25004   0.00000  Uiso   1.00
C351   C     0.09228   0.82799   0.02374   0.00000  Uiso   1.00
C352   C     0.24105   0.83867   0.47626   0.00000  Uiso   1.00
C353   C     0.02131   0.79079   0.24966   0.00000  Uiso   1.00
C354   C     0.31203   0.87587   0.25034   0.00000  Uiso   1.00
C355   C     0.31205   0.79079   0.24972   0.00000  Uiso   1.00
C356   C     0.02129   0.87587   0.25028   0.00000  Uiso   1.00
C357   C     0.29059   0.83333   0.25004   0.00000  Uiso   1.00
C358   C     0.04275   0.83334   0.24996   0.00000  Uiso   1.00
C359   C     0.14035   0.69150   0.22309   0.00000  Uiso   1.00
C360   C     0.19298   0.97516   0.27691   0.00000  Uiso   1.00
C361   C     0.19298   0.69143   0.27691   0.00000  Uiso   1.00
C362   C     0.14035   0.97523   0.22309   0.00000  Uiso   1.00
C363   C     0.16678   0.83336   0.16457   0.00000  Uiso   1.00
C364   C     0.16655   0.83330   0.33543   0.00000  Uiso   1.00
C365   C     0.20380   0.83154   0.40641   0.00000  Uiso   1.00
C366   C     0.12954   0.83513   0.09359   0.00000  Uiso   1.00
C367   C     0.16624   0.83313   0.38358   0.00000  Uiso   1.00
C368   C     0.16710   0.83353   0.11642   0.00000  Uiso   1.00
C369   C     0.12849   0.83535   0.40609   0.00000  Uiso   1.00
C370   C     0.20484   0.83132   0.09391   0.00000  Uiso   1.00
C371   C     0.12797   0.83113   0.45298   0.00000  Uiso   1.00
C372   C     0.20536   0.83554   0.04702   0.00000  Uiso   1.00
C373   C     0.16627   0.83293   0.47645   0.00000  Uiso   1.00
C374   C     0.16706   0.83373   0.02355   0.00000  Uiso   1.00
C375   C     0.20394   0.83387   0.45294   0.00000  Uiso   1.00
C376   C     0.12939   0.83280   0.04706   0.00000  Uiso   1.00
C377   C     0.09118   0.82538   0.47771   0.00000  Uiso   1.00
C378   C     0.24215   0.84129   0.02229   0.00000  Uiso   1.00
Cu379  Cu    0.16667   0.88022   0.25000   0.00000  Uiso   1.00
Cu380  Cu    0.16667   0.78645   0.25000   0.00000  Uiso   1.00
H381   H     0.06345   0.82389   0.04115   0.00000  Uiso   1.00
H382   H     0.26988   0.84278   0.45885   0.00000  Uiso   1.00
H383   H     0.03735   0.75754   0.24937   0.00000  Uiso   1.00
H384   H     0.29599   0.90913   0.25063   0.00000  Uiso   1.00
H385   H     0.29602   0.75754   0.24948   0.00000  Uiso   1.00
H386   H     0.03731   0.90913   0.25052   0.00000  Uiso   1.00
H387   H     0.11928   0.71022   0.20153   0.00000  Uiso   1.00
H388   H     0.21406   0.95645   0.29847   0.00000  Uiso   1.00
H389   H     0.21406   0.71009   0.29847   0.00000  Uiso   1.00
H390   H     0.11928   0.95657   0.20153   0.00000  Uiso   1.00
N391   N     0.16667   0.95069   0.25000   0.00000  Uiso   1.00
N392   N     0.16667   0.71598   0.25000   0.00000  Uiso   1.00
O393   O     0.10655   0.87291   0.24999   0.00000  Uiso   1.00
O394   O     0.22679   0.79375   0.25000   0.00000  Uiso   1.00
O395   O     0.22679   0.87291   0.25000   0.00000  Uiso   1.00
O396   O     0.10655   0.79375   0.24999   0.00000  Uiso   1.00
O397   O     0.16666   0.87293   0.18513   0.00000  Uiso   1.00
O398   O     0.16668   0.79373   0.31487   0.00000  Uiso   1.00
O399   O     0.16668   0.87293   0.31487   0.00000  Uiso   1.00
O400   O     0.16666   0.79373   0.18513   0.00000  Uiso   1.00
Br401  Br    0.25464   0.82781   0.37285   0.00000  Uiso   1.00
Br402  Br    0.07870   0.83885   0.12715   0.00000  Uiso   1.00
Br403  Br    0.08053   0.85280   0.37113   0.00000  Uiso   1.00
Br404  Br    0.25280   0.81387   0.12887   0.00000  Uiso   1.00
Br405  Br    0.03890   0.80462   0.45435   0.00000  Uiso   1.00
Br406  Br    0.29443   0.86205   0.04565   0.00000  Uiso   1.00
C407   C     0.42070   0.83334   0.24996   0.00000  Uiso   1.00
C408   C     0.57930   0.83333   0.25004   0.00000  Uiso   1.00
C409   C     0.42561   0.82799   0.02374   0.00000  Uiso   1.00
C410   C     0.57439   0.83867   0.47626   0.00000  Uiso   1.00
C411   C     0.35464   0.79079   0.24966   0.00000  Uiso   1.00
C412   C     0.64536   0.87587   0.25034   0.00000  Uiso   1.00
C413   C     0.64538   0.79079   0.24972   0.00000  Uiso   1.00
C414   C     0.35462   0.87587   0.25028   0.00000  Uiso   1.00
C415   C     0.62392   0.83333   0.25004   0.00000  Uiso   1.00
C416   C     0.37608   0.83334   0.24996   0.00000  Uiso   1.00
C417   C     0.47369   0.69150   0.22309   0.00000  Uiso   1.00
C418   C     0.52631   0.97516   0.27691   0.00000  Uiso   1.00
C419   C     0.52631   0.69143   0.27691   0.00000  Uiso   1.00
C420   C     0.47369   0.97523   0.22309   0.00000  Uiso   1.00
C421   C     0.50012   0.83336   0.16457   0.00000  Uiso   1.00
C422   C     0.49988   0.83330   0.33543   0.00000  Uiso   1.00
C423   C     0.53713   0.83154   0.40641   0.00000  Uiso   1.00
C424   C     0.46287   0.83513   0.09359   0.00000  Uiso   1.00
C425   C     0.49957   0.83313   0.38358   0.00000  Uiso   1.00
C426   C     0.50043   0.83353   0.11642   0.00000  Uiso   1.00
C427   C     0.46183   0.83535   0.40609   0.00000  Uiso   1.00
C428   C     0.53817   0.83132   0.09391   0.00000  Uiso   1.00
C429   C     0.46130   0.83113   0.45298   0.00000  Uiso   1.00
C430   C     0.53870   0.83554   0.04702   0.00000  Uiso   1.00
C431   C     0.49961   0.83293   0.47645   0.00000  Uiso   1.00
C432   C     0.50039   0.83373   0.02355   0.00000  Uiso   1.00
C433   C     0.53727   0.83387   0.45294   0.00000  Uiso   1.00
C434   C     0.46273   0.83280   0.04706   0.00000  Uiso   1.00
C435   C     0.42451   0.82538   0.47771   0.00000  Uiso   1.00
C436   C     0.57549   0.84129   0.02229   0.00000  Uiso   1.00
Cu437  Cu    0.50000   0.88022   0.25000   0.00000  Uiso   1.00
Cu438  Cu    0.50000   0.78645   0.25000   0.00000  Uiso   1.00
H439   H     0.39679   0.82389   0.04115   0.00000  Uiso   1.00
H440   H     0.60321   0.84278   0.45885   0.00000  Uiso   1.00
H441   H     0.37068   0.75754   0.24937   0.00000  Uiso   1.00
H442   H     0.62932   0.90913   0.25063   0.00000  Uiso   1.00
H443   H     0.62935   0.75754   0.24948   0.00000  Uiso   1.00
H444   H     0.37065   0.90913   0.25052   0.00000  Uiso   1.00
H445   H     0.45261   0.71022   0.20153   0.00000  Uiso   1.00
H446   H     0.54739   0.95645   0.29847   0.00000  Uiso   1.00
H447   H     0.54739   0.71009   0.29847   0.00000  Uiso   1.00
H448   H     0.45261   0.95657   0.20153   0.00000  Uiso   1.00
N449   N     0.50000   0.95069   0.25000   0.00000  Uiso   1.00
N450   N     0.50000   0.71598   0.25000   0.00000  Uiso   1.00
O451   O     0.43988   0.87291   0.24999   0.00000  Uiso   1.00
O452   O     0.56012   0.79375   0.25000   0.00000  Uiso   1.00
O453   O     0.56012   0.87291   0.25000   0.00000  Uiso   1.00
O454   O     0.43988   0.79375   0.24999   0.00000  Uiso   1.00
O455   O     0.49999   0.87293   0.18513   0.00000  Uiso   1.00
O456   O     0.50001   0.79373   0.31487   0.00000  Uiso   1.00
O457   O     0.50001   0.87293   0.31487   0.00000  Uiso   1.00
O458   O     0.49999   0.79373   0.18513   0.00000  Uiso   1.00
Br459  Br    0.58797   0.82781   0.37285   0.00000  Uiso   1.00
Br460  Br    0.41203   0.83885   0.12715   0.00000  Uiso   1.00
Br461  Br    0.41386   0.85280   0.37113   0.00000  Uiso   1.00
Br462  Br    0.58614   0.81387   0.12887   0.00000  Uiso   1.00
Br463  Br    0.37223   0.80462   0.45435   0.00000  Uiso   1.00
Br464  Br    0.62777   0.86205   0.04565   0.00000  Uiso   1.00
C465   C     0.75403   0.83334   0.24996   0.00000  Uiso   1.00
C466   C     0.91264   0.83333   0.25004   0.00000  Uiso   1.00
C467   C     0.75895   0.82799   0.02374   0.00000  Uiso   1.00
C468   C     0.90772   0.83867   0.47626   0.00000  Uiso   1.00
C469   C     0.68797   0.79079   0.24966   0.00000  Uiso   1.00
C470   C     0.97869   0.87587   0.25034   0.00000  Uiso   1.00
C471   C     0.97871   0.79079   0.24972   0.00000  Uiso   1.00
C472   C     0.68795   0.87587   0.25028   0.00000  Uiso   1.00
C473   C     0.95725   0.83333   0.25004   0.00000  Uiso   1.00
C474   C     0.70941   0.83334   0.24996   0.00000  Uiso   1.00
C475   C     0.80702   0.69150   0.22309   0.00000  Uiso   1.00
C476   C     0.85965   0.97516   0.27691   0.00000  Uiso   1.00
C477   C     0.85965   0.69143   0.27691   0.00000  Uiso   1.00
C478   C     0.80702   0.97523   0.22309   0.00000  Uiso   1.00
C479   C     0.83345   0.83336   0.16457   0.00000  Uiso   1.00
C480   C     0.83322   0.83330   0.33543   0.00000  Uiso   1.00
C481   C     0.87046   0.83154   0.40641   0.00000  Uiso   1.00
C482   C     0.79620   0.83513   0.09359   0.00000  Uiso   1.00
C483   C     0.83291   0.83313   0.38358   0.00000  Uiso   1.00
C484   C     0.83376   0.83353   0.11642   0.00000  Uiso   1.00
C485   C     0.79516   0.83535   0.40609   0.00000  Uiso   1.00
C486   C     0.87151   0.83132   0.09391   0.00000  Uiso   1.00
C487   C     0.79464   0.83113   0.45298   0.00000  Uiso   1.00
C488   C     0.87203   0.83554   0.04702   0.00000  Uiso   1.00
C489   C     0.83294   0.83293   0.47645   0.00000  Uiso   1.00
C490   C     0.83373   0.83373   0.02355   0.00000  Uiso   1.00
C491   C     0.87061   0.83387   0.45294   0.00000  Uiso   1.00
C492   C     0.79606   0.83280   0.04706   0.00000  Uiso   1.00
C493   C     0.75785   0.82538   0.47771   0.00000  Uiso   1.00
C494   C     0.90882   0.84129   0.02229   0.00000  Uiso   1.00
Cu495  Cu    0.83333   0.88022   0.25000   0.00000  Uiso   1.00
Cu496  Cu    0.83333   0.78645   0.25000   0.00000  Uiso   1.00
H497   H     0.73012   0.82389   0.04115   0.00000  Uiso   1.00
H498   H     0.93655   0.84278   0.45885   0.00000  Uiso   1.00
H499   H     0.70401   0.75754   0.24937   0.00000  Uiso   1.00
H500   H     0.96265   0.90913   0.25063   0.00000  Uiso   1.00
H501   H     0.96269   0.75754   0.24948   0.00000  Uiso   1.00
H502   H     0.70398   0.90913   0.25052   0.00000  Uiso   1.00
H503   H     0.78594   0.71022   0.20153   0.00000  Uiso   1.00
H504   H     0.88072   0.95645   0.29847   0.00000  Uiso   1.00
H505   H     0.88073   0.71009   0.29847   0.00000  Uiso   1.00
H506   H     0.78594   0.95657   0.20153   0.00000  Uiso   1.00
N507   N     0.83333   0.95069   0.25000   0.00000  Uiso   1.00
N508   N     0.83333   0.71598   0.25000   0.00000  Uiso   1.00
O509   O     0.77321   0.87291   0.24999   0.00000  Uiso   1.00
O510   O     0.89345   0.79375   0.25000   0.00000  Uiso   1.00
O511   O     0.89345   0.87291   0.25000   0.00000  Uiso   1.00
O512   O     0.77321   0.79375   0.24999   0.00000  Uiso   1.00
O513   O     0.83332   0.87293   0.18513   0.00000  Uiso   1.00
O514   O     0.83334   0.79373   0.31487   0.00000  Uiso   1.00
O515   O     0.83334   0.87293   0.31487   0.00000  Uiso   1.00
O516   O     0.83332   0.79373   0.18513   0.00000  Uiso   1.00
Br517  Br    0.92131   0.82781   0.37285   0.00000  Uiso   1.00
Br518  Br    0.74536   0.83885   0.12715   0.00000  Uiso   1.00
Br519  Br    0.74720   0.85280   0.37113   0.00000  Uiso   1.00
Br520  Br    0.91947   0.81387   0.12887   0.00000  Uiso   1.00
Br521  Br    0.70557   0.80462   0.45435   0.00000  Uiso   1.00
Br522  Br    0.96110   0.86205   0.04565   0.00000  Uiso   1.00
C523   C     0.08736   0.16667   0.74996   0.00000  Uiso   1.00
C524   C     0.24597   0.16666   0.75004   0.00000  Uiso   1.00
C525   C     0.09228   0.16133   0.52374   0.00000  Uiso   1.00
C526   C     0.24105   0.17201   0.97626   0.00000  Uiso   1.00
C527   C     0.02131   0.12413   0.74966   0.00000  Uiso   1.00
C528   C     0.31203   0.20921   0.75034   0.00000  Uiso   1.00
C529   C     0.31205   0.12413   0.74972   0.00000  Uiso   1.00
C530   C     0.02129   0.20921   0.75028   0.00000  Uiso   1.00
C531   C     0.29059   0.16666   0.75004   0.00000  Uiso   1.00
C532   C     0.04275   0.16667   0.74996   0.00000  Uiso   1.00
C533   C     0.14035   0.02484   0.72309   0.00000  Uiso   1.00
C534   C     0.19298   0.30850   0.77691   0.00000  Uiso   1.00
C535   C     0.19298   0.02477   0.77691   0.00000  Uiso   1.00
C536   C     0.14035   0.30857   0.72309   0.00000  Uiso   1.00
C537   C     0.16678   0.16670   0.66457   0.00000  Uiso   1.00
C538   C     0.16655   0.16664   0.83543   0.00000  Uiso   1.00
C539   C     0.20380   0.16487   0.90641   0.00000  Uiso   1.00
C540   C     0.12954   0.16846   0.59359   0.00000  Uiso   1.00
C541   C     0.16624   0.16647   0.88358   0.00000  Uiso   1.00
C542   C     0.16710   0.16687   0.61642   0.00000  Uiso   1.00
C543   C     0.12849   0.16868   0.90609   0.00000  Uiso   1.00
C544   C     0.20484   0.16465   0.59391   0.00000  Uiso   1.00
C545   C     0.12797   0.16447   0.95298   0.00000  Uiso   1.00
C546   C     0.20536   0.16887   0.54702   0.00000  Uiso   1.00
C547   C     0.16627   0.16627   0.97645   0.00000  Uiso   1.00
C548   C     0.16706   0.16707   0.52355   0.00000  Uiso   1.00
C549   C     0.20394   0.16720   0.95294   0.00000  Uiso   1.00
C550   C     0.12939   0.16613   0.54706   0.00000  Uiso   1.00
C551   C     0.09118   0.15871   0.97771   0.00000  Uiso   1.00
C552   C     0.24215   0.17462   0.52229   0.00000  Uiso   1.00
Cu553  Cu    0.16667   0.21355   0.75000   0.00000  Uiso   1.00
Cu554  Cu    0.16667   0.11978   0.75000   0.00000  Uiso   1.00
H555   H     0.06345   0.15722   0.54115   0.00000  Uiso   1.00
H556   H     0.26988   0.17611   0.95885   0.00000  Uiso   1.00
H557   H     0.03735   0.09087   0.74937   0.00000  Uiso   1.00
H558   H     0.29599   0.24246   0.75063   0.00000  Uiso   1.00
H559   H     0.29602   0.09087   0.74948   0.00000  Uiso   1.00
H560   H     0.03731   0.24246   0.75052   0.00000  Uiso   1.00
H561   H     0.11928   0.04355   0.70153   0.00000  Uiso   1.00
H562   H     0.21406   0.28978   0.79847   0.00000  Uiso   1.00
H563   H     0.21406   0.04343   0.79847   0.00000  Uiso   1.00
H564   H     0.11928   0.28991   0.70153   0.00000  Uiso   1.00
N565   N     0.16667   0.28402   0.75000   0.00000  Uiso   1.00
N566   N     0.16667   0.04931   0.75000   0.00000  Uiso   1.00
O567   O     0.10655   0.20625   0.74999   0.00000  Uiso   1.00
O568   O     0.22679   0.12709   0.75000   0.00000  Uiso   1.00
O569   O     0.22679   0.20625   0.75000   0.00000  Uiso   1.00
O570   O     0.10655   0.12709   0.74999   0.00000  Uiso   1.00
O571   O     0.16666   0.20627   0.68513   0.00000  Uiso   1.00
O572   O     0.16668   0.12707   0.81487   0.00000  Uiso   1.00
O573   O     0.16668   0.20627   0.81487   0.00000  Uiso   1.00
O574   O     0.16666   0.12707   0.68513   0.00000  Uiso   1.00
Br575  Br    0.25464   0.16114   0.87285   0.00000  Uiso   1.00
Br576  Br    0.07870   0.17219   0.62715   0.00000  Uiso   1.00
Br577  Br    0.08053   0.18613   0.87113   0.00000  Uiso   1.00
Br578  Br    0.25280   0.14720   0.62887   0.00000  Uiso   1.00
Br579  Br    0.03890   0.13795   0.95435   0.00000  Uiso   1.00
Br580  Br    0.29443   0.19538   0.54565   0.00000  Uiso   1.00
C581   C     0.42070   0.16667   0.74996   0.00000  Uiso   1.00
C582   C     0.57930   0.16666   0.75004   0.00000  Uiso   1.00
C583   C     0.42561   0.16133   0.52374   0.00000  Uiso   1.00
C584   C     0.57439   0.17201   0.97626   0.00000  Uiso   1.00
C585   C     0.35464   0.12413   0.74966   0.00000  Uiso   1.00
C586   C     0.64536   0.20921   0.75034   0.00000  Uiso   1.00
C587   C     0.64538   0.12413   0.74972   0.00000  Uiso   1.00
C588   C     0.35462   0.20921   0.75028   0.00000  Uiso   1.00
C589   C     0.62392   0.16666   0.75004   0.00000  Uiso   1.00
C590   C     0.37608   0.16667   0.74996   0.00000  Uiso   1.00
C591   C     0.47369   0.02484   0.72309   0.00000  Uiso   1.00
C592   C     0.52631   0.30850   0.77691   0.00000  Uiso   1.00
C593   C     0.52631   0.02477   0.77691   0.00000  Uiso   1.00
C594   C     0.47369   0.30857   0.72309   0.00000  Uiso   1.00
C595   C     0.50012   0.16670   0.66457   0.00000  Uiso   1.00
C596   C     0.49988   0.16664   0.83543   0.00000  Uiso   1.00
C597   C     0.53713   0.16487   0.90641   0.00000  Uiso   1.00
C598   C     0.46287   0.16846   0.59359   0.00000  Uiso   1.00
C599   C     0.49957   0.16647   0.88358   0.00000  Uiso   1.00
C600   C     0.50043   0.16687   0.61642   0.00000  Uiso   1.00
C601   C     0.46183   0.16868   0.90609   0.00000  Uiso   1.00
C602   C     0.53817   0.16465   0.59391   0.00000  Uiso   1.00
C603   C     0.46130   0.16447   0.95298   0.00000  Uiso   1.00
C604   C     0.53870   0.16887   0.54702   0.00000  Uiso   1.00
C605   C     0.49961   0.16627   0.97645   0.00000  Uiso   1.00
C606   C     0.50039   0.16707   0.52355   0.00000  Uiso   1.00
C607   C     0.53727   0.16720   0.95294   0.00000  Uiso   1.00
C608   C     0.46273   0.16613   0.54706   0.00000  Uiso   1.00
C609   C     0.42451   0.15871   0.97771   0.00000  Uiso   1.00
C610   C     0.57549   0.17462   0.52229   0.00000  Uiso   1.00
Cu611  Cu    0.50000   0.21355   0.75000   0.00000  Uiso   1.00
Cu612  Cu    0.50000   0.11978   0.75000   0.00000  Uiso   1.00
H613   H     0.39679   0.15722   0.54115   0.00000  Uiso   1.00
H614   H     0.60321   0.17611   0.95885   0.00000  Uiso   1.00
H615   H     0.37068   0.09087   0.74937   0.00000  Uiso   1.00
H616   H     0.62932   0.24246   0.75063   0.00000  Uiso   1.00
H617   H     0.62935   0.09087   0.74948   0.00000  Uiso   1.00
H618   H     0.37065   0.24246   0.75052   0.00000  Uiso   1.00
H619   H     0.45261   0.04355   0.70153   0.00000  Uiso   1.00
H620   H     0.54739   0.28978   0.79847   0.00000  Uiso   1.00
H621   H     0.54739   0.04343   0.79847   0.00000  Uiso   1.00
H622   H     0.45261   0.28991   0.70153   0.00000  Uiso   1.00
N623   N     0.50000   0.28402   0.75000   0.00000  Uiso   1.00
N624   N     0.50000   0.04931   0.75000   0.00000  Uiso   1.00
O625   O     0.43988   0.20625   0.74999   0.00000  Uiso   1.00
O626   O     0.56012   0.12709   0.75000   0.00000  Uiso   1.00
O627   O     0.56012   0.20625   0.75000   0.00000  Uiso   1.00
O628   O     0.43988   0.12709   0.74999   0.00000  Uiso   1.00
O629   O     0.49999   0.20627   0.68513   0.00000  Uiso   1.00
O630   O     0.50001   0.12707   0.81487   0.00000  Uiso   1.00
O631   O     0.50001   0.20627   0.81487   0.00000  Uiso   1.00
O632   O     0.49999   0.12707   0.68513   0.00000  Uiso   1.00
Br633  Br    0.58797   0.16114   0.87285   0.00000  Uiso   1.00
Br634  Br    0.41203   0.17219   0.62715   0.00000  Uiso   1.00
Br635  Br    0.41386   0.18613   0.87113   0.00000  Uiso   1.00
Br636  Br    0.58614   0.14720   0.62887   0.00000  Uiso   1.00
Br637  Br    0.37223   0.13795   0.95435   0.00000  Uiso   1.00
Br638  Br    0.62777   0.19538   0.54565   0.00000  Uiso   1.00
C639   C     0.75403   0.16667   0.74996   0.00000  Uiso   1.00
C640   C     0.91264   0.16666   0.75004   0.00000  Uiso   1.00
C641   C     0.75895   0.16133   0.52374   0.00000  Uiso   1.00
C642   C     0.90772   0.17201   0.97626   0.00000  Uiso   1.00
C643   C     0.68797   0.12413   0.74966   0.00000  Uiso   1.00
C644   C     0.97869   0.20921   0.75034   0.00000  Uiso   1.00
C645   C     0.97871   0.12413   0.74972   0.00000  Uiso   1.00
C646   C     0.68795   0.20921   0.75028   0.00000  Uiso   1.00
C647   C     0.95725   0.16666   0.75004   0.00000  Uiso   1.00
C648   C     0.70941   0.16667   0.74996   0.00000  Uiso   1.00
C649   C     0.80702   0.02484   0.72309   0.00000  Uiso   1.00
C650   C     0.85965   0.30850   0.77691   0.00000  Uiso   1.00
C651   C     0.85965   0.02477   0.77691   0.00000  Uiso   1.00
C652   C     0.80702   0.30857   0.72309   0.00000  Uiso   1.00
C653   C     0.83345   0.16670   0.66457   0.00000  Uiso   1.00
C654   C     0.83322   0.16664   0.83543   0.00000  Uiso   1.00
C655   C     0.87046   0.16487   0.90641   0.00000  Uiso   1.00
C656   C     0.79620   0.16846   0.59359   0.00000  Uiso   1.00
C657   C     0.83291   0.16647   0.88358   0.00000  Uiso   1.00
C658   C     0.83376   0.16687   0.61642   0.00000  Uiso   1.00
C659   C     0.79516   0.16868   0.90609   0.00000  Uiso   1.00
C660   C     0.87151   0.16465   0.59391   0.00000  Uiso   1.00
C661   C     0.79464   0.16447   0.95298   0.00000  Uiso   1.00
C662   C     0.87203   0.16887   0.54702   0.00000  Uiso   1.00
C663   C     0.83294   0.16627   0.97645   0.00000  Uiso   1.00
C664   C     0.83373   0.16707   0.52355   0.00000  Uiso   1.00
C665   C     0.87061   0.16720   0.95294   0.00000  Uiso   1.00
C666   C     0.79606   0.16613   0.54706   0.00000  Uiso   1.00
C667   C     0.75785   0.15871   0.97771   0.00000  Uiso   1.00
C668   C     0.90882   0.17462   0.52229   0.00000  Uiso   1.00
Cu669  Cu    0.83333   0.21355   0.75000   0.00000  Uiso   1.00
Cu670  Cu    0.83333   0.11978   0.75000   0.00000  Uiso   1.00
H671   H     0.73012   0.15722   0.54115   0.00000  Uiso   1.00
H672   H     0.93655   0.17611   0.95885   0.00000  Uiso   1.00
H673   H     0.70401   0.09087   0.74937   0.00000  Uiso   1.00
H674   H     0.96265   0.24246   0.75063   0.00000  Uiso   1.00
H675   H     0.96269   0.09087   0.74948   0.00000  Uiso   1.00
H676   H     0.70398   0.24246   0.75052   0.00000  Uiso   1.00
H677   H     0.78594   0.04355   0.70153   0.00000  Uiso   1.00
H678   H     0.88072   0.28978   0.79847   0.00000  Uiso   1.00
H679   H     0.88073   0.04343   0.79847   0.00000  Uiso   1.00
H680   H     0.78594   0.28991   0.70153   0.00000  Uiso   1.00
N681   N     0.83333   0.28402   0.75000   0.00000  Uiso   1.00
N682   N     0.83333   0.04931   0.75000   0.00000  Uiso   1.00
O683   O     0.77321   0.20625   0.74999   0.00000  Uiso   1.00
O684   O     0.89345   0.12709   0.75000   0.00000  Uiso   1.00
O685   O     0.89345   0.20625   0.75000   0.00000  Uiso   1.00
O686   O     0.77321   0.12709   0.74999   0.00000  Uiso   1.00
O687   O     0.83332   0.20627   0.68513   0.00000  Uiso   1.00
O688   O     0.83334   0.12707   0.81487   0.00000  Uiso   1.00
O689   O     0.83334   0.20627   0.81487   0.00000  Uiso   1.00
O690   O     0.83332   0.12707   0.68513   0.00000  Uiso   1.00
Br691  Br    0.92131   0.16114   0.87285   0.00000  Uiso   1.00
Br692  Br    0.74536   0.17219   0.62715   0.00000  Uiso   1.00
Br693  Br    0.74720   0.18613   0.87113   0.00000  Uiso   1.00
Br694  Br    0.91947   0.14720   0.62887   0.00000  Uiso   1.00
Br695  Br    0.70557   0.13795   0.95435   0.00000  Uiso   1.00
Br696  Br    0.96110   0.19538   0.54565   0.00000  Uiso   1.00
C697   C     0.08736   0.50000   0.74996   0.00000  Uiso   1.00
C698   C     0.24597   0.50000   0.75004   0.00000  Uiso   1.00
C699   C     0.09228   0.49466   0.52374   0.00000  Uiso   1.00
C700   C     0.24105   0.50534   0.97626   0.00000  Uiso   1.00
C701   C     0.02131   0.45746   0.74966   0.00000  Uiso   1.00
C702   C     0.31203   0.54254   0.75034   0.00000  Uiso   1.00
C703   C     0.31205   0.45746   0.74972   0.00000  Uiso   1.00
C704   C     0.02129   0.54254   0.75028   0.00000  Uiso   1.00
C705   C     0.29059   0.50000   0.75004   0.00000  Uiso   1.00
C706   C     0.04275   0.50000   0.74996   0.00000  Uiso   1.00
C707   C     0.14035   0.35817   0.72309   0.00000  Uiso   1.00
C708   C     0.19298   0.64183   0.77691   0.00000  Uiso   1.00
C709   C     0.19298   0.35810   0.77691   0.00000  Uiso   1.00
C710   C     0.14035   0.64190   0.72309   0.00000  Uiso   1.00
C711   C     0.16678   0.50003   0.66457   0.00000  Uiso   1.00
C712   C     0.16655   0.49997   0.83543   0.00000  Uiso   1.00
C713   C     0.20380   0.49820   0.90641   0.00000  Uiso   1.00
C714   C     0.12954   0.50180   0.59359   0.00000  Uiso   1.00
C715   C     0.16624   0.49980   0.88358   0.00000  Uiso   1.00
C716   C     0.16710   0.50020   0.61642   0.00000  Uiso   1.00
C717   C     0.12849   0.50202   0.90609   0.00000  Uiso   1.00
C718   C     0.20484   0.49798   0.59391   0.00000  Uiso   1.00
C719   C     0.12797   0.49780   0.95298   0.00000  Uiso   1.00
C720   C     0.20536   0.50220   0.54702   0.00000  Uiso   1.00
C721   C     0.16627   0.49960   0.97645   0.00000  Uiso   1.00
C722   C     0.16706   0.50040   0.52355   0.00000  Uiso   1.00
C723   C     0.20394   0.50053   0.95294   0.00000  Uiso   1.00
C724   C     0.12939   0.49947   0.54706   0.00000  Uiso   1.00
C725   C     0.09118   0.49205   0.97771   0.00000  Uiso   1.00
C726   C     0.24215   0.50796   0.52229   0.00000  Uiso   1.00
Cu727  Cu    0.16667   0.54689   0.75000   0.00000  Uiso   1.00
Cu728  Cu    0.16667   0.45311   0.75000   0.00000  Uiso   1.00
H729   H     0.06345   0.49056   0.54115   0.00000  Uiso   1.00
H730   H     0.26988   0.50945   0.95885   0.00000  Uiso   1.00
H731   H     0.03735   0.42421   0.74937   0.00000  Uiso   1.00
H732   H     0.29599   0.57579   0.75063   0.00000  Uiso   1.00
H733   H     0.29602   0.42421   0.74948   0.00000  Uiso   1.00
H734   H     0.03731   0.57579   0.75052   0.00000  Uiso   1.00
H735   H     0.11928   0.37688   0.70153   0.00000  Uiso   1.00
H736   H     0.21406   0.62312   0.79847   0.00000  Uiso   1.00
H737   H     0.21406   0.37676   0.79847   0.00000  Uiso   1.00
H738   H     0.11928   0.62324   0.70153   0.00000  Uiso   1.00
N739   N     0.16667   0.61736   0.75000   0.00000  Uiso   1.00
N740   N     0.16667   0.38264   0.75000   0.00000  Uiso   1.00
O741   O     0.10655   0.53958   0.74999   0.00000  Uiso   1.00
O742   O     0.22679   0.46042   0.75000   0.00000  Uiso   1.00
O743   O     0.22679   0.53958   0.75000   0.00000  Uiso   1.00
O744   O     0.10655   0.46042   0.74999   0.00000  Uiso   1.00
O745   O     0.16666   0.53960   0.68513   0.00000  Uiso   1.00
O746   O     0.16668   0.46040   0.81487   0.00000  Uiso   1.00
O747   O     0.16668   0.53960   0.81487   0.00000  Uiso   1.00
O748   O     0.16666   0.46040   0.68513   0.00000  Uiso   1.00
Br749  Br    0.25464   0.49448   0.87285   0.00000  Uiso   1.00
Br750  Br    0.07870   0.50552   0.62715   0.00000  Uiso   1.00
Br751  Br    0.08053   0.51947   0.87113   0.00000  Uiso   1.00
Br752  Br    0.25280   0.48054   0.62887   0.00000  Uiso   1.00
Br753  Br    0.03890   0.47129   0.95435   0.00000  Uiso   1.00
Br754  Br    0.29443   0.52872   0.54565   0.00000  Uiso   1.00
C755   C     0.42070   0.50000   0.74996   0.00000  Uiso   1.00
C756   C     0.57930   0.50000   0.75004   0.00000  Uiso   1.00
C757   C     0.42561   0.49466   0.52374   0.00000  Uiso   1.00
C758   C     0.57439   0.50534   0.97626   0.00000  Uiso   1.00
C759   C     0.35464   0.45746   0.74966   0.00000  Uiso   1.00
C760   C     0.64536   0.54254   0.75034   0.00000  Uiso   1.00
C761   C     0.64538   0.45746   0.74972   0.00000  Uiso   1.00
C762   C     0.35462   0.54254   0.75028   0.00000  Uiso   1.00
C763   C     0.62392   0.50000   0.75004   0.00000  Uiso   1.00
C764   C     0.37608   0.50000   0.74996   0.00000  Uiso   1.00
C765   C     0.47369   0.35817   0.72309   0.00000  Uiso   1.00
C766   C     0.52631   0.64183   0.77691   0.00000  Uiso   1.00
C767   C     0.52631   0.35810   0.77691   0.00000  Uiso   1.00
C768   C     0.47369   0.64190   0.72309   0.00000  Uiso   1.00
C769   C     0.50012   0.50003   0.66457   0.00000  Uiso   1.00
C770   C     0.49988   0.49997   0.83543   0.00000  Uiso   1.00
C771   C     0.53713   0.49820   0.90641   0.00000  Uiso   1.00
C772   C     0.46287   0.50180   0.59359   0.00000  Uiso   1.00
C773   C     0.49957   0.49980   0.88358   0.00000  Uiso   1.00
C774   C     0.50043   0.50020   0.61642   0.00000  Uiso   1.00
C775   C     0.46183   0.50202   0.90609   0.00000  Uiso   1.00
C776   C     0.53817   0.49798   0.59391   0.00000  Uiso   1.00
C777   C     0.46130   0.49780   0.95298   0.00000  Uiso   1.00
C778   C     0.53870   0.50220   0.54702   0.00000  Uiso   1.00
C779   C     0.49961   0.49960   0.97645   0.00000  Uiso   1.00
C780   C     0.50039   0.50040   0.52355   0.00000  Uiso   1.00
C781   C     0.53727   0.50053   0.95294   0.00000  Uiso   1.00
C782   C     0.46273   0.49947   0.54706   0.00000  Uiso   1.00
C783   C     0.42451   0.49205   0.97771   0.00000  Uiso   1.00
C784   C     0.57549   0.50796   0.52229   0.00000  Uiso   1.00
Cu785  Cu    0.50000   0.54689   0.75000   0.00000  Uiso   1.00
Cu786  Cu    0.50000   0.45311   0.75000   0.00000  Uiso   1.00
H787   H     0.39679   0.49056   0.54115   0.00000  Uiso   1.00
H788   H     0.60321   0.50945   0.95885   0.00000  Uiso   1.00
H789   H     0.37068   0.42421   0.74937   0.00000  Uiso   1.00
H790   H     0.62932   0.57579   0.75063   0.00000  Uiso   1.00
H791   H     0.62935   0.42421   0.74948   0.00000  Uiso   1.00
H792   H     0.37065   0.57579   0.75052   0.00000  Uiso   1.00
H793   H     0.45261   0.37688   0.70153   0.00000  Uiso   1.00
H794   H     0.54739   0.62312   0.79847   0.00000  Uiso   1.00
H795   H     0.54739   0.37676   0.79847   0.00000  Uiso   1.00
H796   H     0.45261   0.62324   0.70153   0.00000  Uiso   1.00
N797   N     0.50000   0.61736   0.75000   0.00000  Uiso   1.00
N798   N     0.50000   0.38264   0.75000   0.00000  Uiso   1.00
O799   O     0.43988   0.53958   0.74999   0.00000  Uiso   1.00
O800   O     0.56012   0.46042   0.75000   0.00000  Uiso   1.00
O801   O     0.56012   0.53958   0.75000   0.00000  Uiso   1.00
O802   O     0.43988   0.46042   0.74999   0.00000  Uiso   1.00
O803   O     0.49999   0.53960   0.68513   0.00000  Uiso   1.00
O804   O     0.50001   0.46040   0.81487   0.00000  Uiso   1.00
O805   O     0.50001   0.53960   0.81487   0.00000  Uiso   1.00
O806   O     0.49999   0.46040   0.68513   0.00000  Uiso   1.00
Br807  Br    0.58797   0.49448   0.87285   0.00000  Uiso   1.00
Br808  Br    0.41203   0.50552   0.62715   0.00000  Uiso   1.00
Br809  Br    0.41386   0.51947   0.87113   0.00000  Uiso   1.00
Br810  Br    0.58614   0.48054   0.62887   0.00000  Uiso   1.00
Br811  Br    0.37223   0.47129   0.95435   0.00000  Uiso   1.00
Br812  Br    0.62777   0.52872   0.54565   0.00000  Uiso   1.00
C813   C     0.75403   0.50000   0.74996   0.00000  Uiso   1.00
C814   C     0.91264   0.50000   0.75004   0.00000  Uiso   1.00
C815   C     0.75895   0.49466   0.52374   0.00000  Uiso   1.00
C816   C     0.90772   0.50534   0.97626   0.00000  Uiso   1.00
C817   C     0.68797   0.45746   0.74966   0.00000  Uiso   1.00
C818   C     0.97869   0.54254   0.75034   0.00000  Uiso   1.00
C819   C     0.97871   0.45746   0.74972   0.00000  Uiso   1.00
C820   C     0.68795   0.54254   0.75028   0.00000  Uiso   1.00
C821   C     0.95725   0.50000   0.75004   0.00000  Uiso   1.00
C822   C     0.70941   0.50000   0.74996   0.00000  Uiso   1.00
C823   C     0.80702   0.35817   0.72309   0.00000  Uiso   1.00
C824   C     0.85965   0.64183   0.77691   0.00000  Uiso   1.00
C825   C     0.85965   0.35810   0.77691   0.00000  Uiso   1.00
C826   C     0.80702   0.64190   0.72309   0.00000  Uiso   1.00
C827   C     0.83345   0.50003   0.66457   0.00000  Uiso   1.00
C828   C     0.83322   0.49997   0.83543   0.00000  Uiso   1.00
C829   C     0.87046   0.49820   0.90641   0.00000  Uiso   1.00
C830   C     0.79620   0.50180   0.59359   0.00000  Uiso   1.00
C831   C     0.83291   0.49980   0.88358   0.00000  Uiso   1.00
C832   C     0.83376   0.50020   0.61642   0.00000  Uiso   1.00
C833   C     0.79516   0.50202   0.90609   0.00000  Uiso   1.00
C834   C     0.87151   0.49798   0.59391   0.00000  Uiso   1.00
C835   C     0.79464   0.49780   0.95298   0.00000  Uiso   1.00
C836   C     0.87203   0.50220   0.54702   0.00000  Uiso   1.00
C837   C     0.83294   0.49960   0.97645   0.00000  Uiso   1.00
C838   C     0.83373   0.50040   0.52355   0.00000  Uiso   1.00
C839   C     0.87061   0.50053   0.95294   0.00000  Uiso   1.00
C840   C     0.79606   0.49947   0.54706   0.00000  Uiso   1.00
C841   C     0.75785   0.49205   0.97771   0.00000  Uiso   1.00
C842   C     0.90882   0.50796   0.52229   0.00000  Uiso   1.00
Cu843  Cu    0.83333   0.54689   0.75000   0.00000  Uiso   1.00
Cu844  Cu    0.83333   0.45311   0.75000   0.00000  Uiso   1.00
H845   H     0.73012   0.49056   0.54115   0.00000  Uiso   1.00
H846   H     0.93655   0.50945   0.95885   0.00000  Uiso   1.00
H847   H     0.70401   0.42421   0.74937   0.00000  Uiso   1.00
H848   H     0.96265   0.57579   0.75063   0.00000  Uiso   1.00
H849   H     0.96269   0.42421   0.74948   0.00000  Uiso   1.00
H850   H     0.70398   0.57579   0.75052   0.00000  Uiso   1.00
H851   H     0.78594   0.37688   0.70153   0.00000  Uiso   1.00
H852   H     0.88072   0.62312   0.79847   0.00000  Uiso   1.00
H853   H     0.88073   0.37676   0.79847   0.00000  Uiso   1.00
H854   H     0.78594   0.62324   0.70153   0.00000  Uiso   1.00
N855   N     0.83333   0.61736   0.75000   0.00000  Uiso   1.00
N856   N     0.83333   0.38264   0.75000   0.00000  Uiso   1.00
O857   O     0.77321   0.53958   0.74999   0.00000  Uiso   1.00
O858   O     0.89345   0.46042   0.75000   0.00000  Uiso   1.00
O859   O     0.89345   0.53958   0.75000   0.00000  Uiso   1.00
O860   O     0.77321   0.46042   0.74999   0.00000  Uiso   1.00
O861   O     0.83332   0.53960   0.68513   0.00000  Uiso   1.00
O862   O     0.83334   0.46040   0.81487   0.00000  Uiso   1.00
O863   O     0.83334   0.53960   0.81487   0.00000  Uiso   1.00
O864   O     0.83332   0.46040   0.68513   0.00000  Uiso   1.00
Br865  Br    0.92131   0.49448   0.87285   0.00000  Uiso   1.00
Br866  Br    0.74536   0.50552   0.62715   0.00000  Uiso   1.00
Br867  Br    0.74720   0.51947   0.87113   0.00000  Uiso   1.00
Br868  Br    0.91947   0.48054   0.62887   0.00000  Uiso   1.00
Br869  Br    0.70557   0.47129   0.95435   0.00000  Uiso   1.00
Br870  Br    0.96110   0.52872   0.54565   0.00000  Uiso   1.00
C871   C     0.08736   0.83334   0.74996   0.00000  Uiso   1.00
C872   C     0.24597   0.83333   0.75004   0.00000  Uiso   1.00
C873   C     0.09228   0.82799   0.52374   0.00000  Uiso   1.00
C874   C     0.24105   0.83867   0.97626   0.00000  Uiso   1.00
C875   C     0.02131   0.79079   0.74966   0.00000  Uiso   1.00
C876   C     0.31203   0.87587   0.75034   0.00000  Uiso   1.00
C877   C     0.31205   0.79079   0.74972   0.00000  Uiso   1.00
C878   C     0.02129   0.87587   0.75028   0.00000  Uiso   1.00
C879   C     0.29059   0.83333   0.75004   0.00000  Uiso   1.00
C880   C     0.04275   0.83334   0.74996   0.00000  Uiso   1.00
C881   C     0.14035   0.69150   0.72309   0.00000  Uiso   1.00
C882   C     0.19298   0.97516   0.77691   0.00000  Uiso   1.00
C883   C     0.19298   0.69143   0.77691   0.00000  Uiso   1.00
C884   C     0.14035   0.97523   0.72309   0.00000  Uiso   1.00
C885   C     0.16678   0.83336   0.66457   0.00000  Uiso   1.00
C886   C     0.16655   0.83330   0.83543   0.00000  Uiso   1.00
C887   C     0.20380   0.83154   0.90641   0.00000  Uiso   1.00
C888   C     0.12954   0.83513   0.59359   0.00000  Uiso   1.00
C889   C     0.16624   0.83313   0.88358   0.00000  Uiso   1.00
C890   C     0.16710   0.83353   0.61642   0.00000  Uiso   1.00
C891   C     0.12849   0.83535   0.90609   0.00000  Uiso   1.00
C892   C     0.20484   0.83132   0.59391   0.00000  Uiso   1.00
C893   C     0.12797   0.83113   0.95298   0.00000  Uiso   1.00
C894   C     0.20536   0.83554   0.54702   0.00000  Uiso   1.00
C895   C     0.16627   0.83293   0.97645   0.00000  Uiso   1.00
C896   C     0.16706   0.83373   0.52355   0.00000  Uiso   1.00
C897   C     0.20394   0.83387   0.95294   0.00000  Uiso   1.00
C898   C     0.12939   0.83280   0.54706   0.00000  Uiso   1.00
C899   C     0.09118   0.82538   0.97771   0.00000  Uiso   1.00
C900   C     0.24215   0.84129   0.52229   0.00000  Uiso   1.00
Cu901  Cu    0.16667   0.88022   0.75000   0.00000  Uiso   1.00
Cu902  Cu    0.16667   0.78645   0.75000   0.00000  Uiso   1.00
H903   H     0.06345   0.82389   0.54115   0.00000  Uiso   1.00
H904   H     0.26988   0.84278   0.95885   0.00000  Uiso   1.00
H905   H     0.03735   0.75754   0.74937   0.00000  Uiso   1.00
H906   H     0.29599   0.90913   0.75063   0.00000  Uiso   1.00
H907   H     0.29602   0.75754   0.74948   0.00000  Uiso   1.00
H908   H     0.03731   0.90913   0.75052   0.00000  Uiso   1.00
H909   H     0.11928   0.71022   0.70153   0.00000  Uiso   1.00
H910   H     0.21406   0.95645   0.79847   0.00000  Uiso   1.00
H911   H     0.21406   0.71009   0.79847   0.00000  Uiso   1.00
H912   H     0.11928   0.95657   0.70153   0.00000  Uiso   1.00
N913   N     0.16667   0.95069   0.75000   0.00000  Uiso   1.00
N914   N     0.16667   0.71598   0.75000   0.00000  Uiso   1.00
O915   O     0.10655   0.87291   0.74999   0.00000  Uiso   1.00
O916   O     0.22679   0.79375   0.75000   0.00000  Uiso   1.00
O917   O     0.22679   0.87291   0.75000   0.00000  Uiso   1.00
O918   O     0.10655   0.79375   0.74999   0.00000  Uiso   1.00
O919   O     0.16666   0.87293   0.68513   0.00000  Uiso   1.00
O920   O     0.16668   0.79373   0.81487   0.00000  Uiso   1.00
O921   O     0.16668   0.87293   0.81487   0.00000  Uiso   1.00
O922   O     0.16666   0.79373   0.68513   0.00000  Uiso   1.00
Br923  Br    0.25464   0.82781   0.87285   0.00000  Uiso   1.00
Br924  Br    0.07870   0.83885   0.62715   0.00000  Uiso   1.00
Br925  Br    0.08053   0.85280   0.87113   0.00000  Uiso   1.00
Br926  Br    0.25280   0.81387   0.62887   0.00000  Uiso   1.00
Br927  Br    0.03890   0.80462   0.95435   0.00000  Uiso   1.00
Br928  Br    0.29443   0.86205   0.54565   0.00000  Uiso   1.00
C929   C     0.42070   0.83334   0.74996   0.00000  Uiso   1.00
C930   C     0.57930   0.83333   0.75004   0.00000  Uiso   1.00
C931   C     0.42561   0.82799   0.52374   0.00000  Uiso   1.00
C932   C     0.57439   0.83867   0.97626   0.00000  Uiso   1.00
C933   C     0.35464   0.79079   0.74966   0.00000  Uiso   1.00
C934   C     0.64536   0.87587   0.75034   0.00000  Uiso   1.00
C935   C     0.64538   0.79079   0.74972   0.00000  Uiso   1.00
C936   C     0.35462   0.87587   0.75028   0.00000  Uiso   1.00
C937   C     0.62392   0.83333   0.75004   0.00000  Uiso   1.00
C938   C     0.37608   0.83334   0.74996   0.00000  Uiso   1.00
C939   C     0.47369   0.69150   0.72309   0.00000  Uiso   1.00
C940   C     0.52631   0.97516   0.77691   0.00000  Uiso   1.00
C941   C     0.52631   0.69143   0.77691   0.00000  Uiso   1.00
C942   C     0.47369   0.97523   0.72309   0.00000  Uiso   1.00
C943   C     0.50012   0.83336   0.66457   0.00000  Uiso   1.00
C944   C     0.49988   0.83330   0.83543   0.00000  Uiso   1.00
C945   C     0.53713   0.83154   0.90641   0.00000  Uiso   1.00
C946   C     0.46287   0.83513   0.59359   0.00000  Uiso   1.00
C947   C     0.49957   0.83313   0.88358   0.00000  Uiso   1.00
C948   C     0.50043   0.83353   0.61642   0.00000  Uiso   1.00
C949   C     0.46183   0.83535   0.90609   0.00000  Uiso   1.00
C950   C     0.53817   0.83132   0.59391   0.00000  Uiso   1.00
C951   C     0.46130   0.83113   0.95298   0.00000  Uiso   1.00
C952   C     0.53870   0.83554   0.54702   0.00000  Uiso   1.00
C953   C     0.49961   0.83293   0.97645   0.00000  Uiso   1.00
C954   C     0.50039   0.83373   0.52355   0.00000  Uiso   1.00
C955   C     0.53727   0.83387   0.95294   0.00000  Uiso   1.00
C956   C     0.46273   0.83280   0.54706   0.00000  Uiso   1.00
C957   C     0.42451   0.82538   0.97771   0.00000  Uiso   1.00
C958   C     0.57549   0.84129   0.52229   0.00000  Uiso   1.00
Cu959  Cu    0.50000   0.88022   0.75000   0.00000  Uiso   1.00
Cu960  Cu    0.50000   0.78645   0.75000   0.00000  Uiso   1.00
H961   H     0.39679   0.82389   0.54115   0.00000  Uiso   1.00
H962   H     0.60321   0.84278   0.95885   0.00000  Uiso   1.00
H963   H     0.37068   0.75754   0.74937   0.00000  Uiso   1.00
H964   H     0.62932   0.90913   0.75063   0.00000  Uiso   1.00
H965   H     0.62935   0.75754   0.74948   0.00000  Uiso   1.00
H966   H     0.37065   0.90913   0.75052   0.00000  Uiso   1.00
H967   H     0.45261   0.71022   0.70153   0.00000  Uiso   1.00
H968   H     0.54739   0.95645   0.79847   0.00000  Uiso   1.00
H969   H     0.54739   0.71009   0.79847   0.00000  Uiso   1.00
H970   H     0.45261   0.95657   0.70153   0.00000  Uiso   1.00
N971   N     0.50000   0.95069   0.75000   0.00000  Uiso   1.00
N972   N     0.50000   0.71598   0.75000   0.00000  Uiso   1.00
O973   O     0.43988   0.87291   0.74999   0.00000  Uiso   1.00
O974   O     0.56012   0.79375   0.75000   0.00000  Uiso   1.00
O975   O     0.56012   0.87291   0.75000   0.00000  Uiso   1.00
O976   O     0.43988   0.79375   0.74999   0.00000  Uiso   1.00
O977   O     0.49999   0.87293   0.68513   0.00000  Uiso   1.00
O978   O     0.50001   0.79373   0.81487   0.00000  Uiso   1.00
O979   O     0.50001   0.87293   0.81487   0.00000  Uiso   1.00
O980   O     0.49999   0.79373   0.68513   0.00000  Uiso   1.00
Br981  Br    0.58797   0.82781   0.87285   0.00000  Uiso   1.00
Br982  Br    0.41203   0.83885   0.62715   0.00000  Uiso   1.00
Br983  Br    0.41386   0.85280   0.87113   0.00000  Uiso   1.00
Br984  Br    0.58614   0.81387   0.62887   0.00000  Uiso   1.00
Br985  Br    0.37223   0.80462   0.95435   0.00000  Uiso   1.00
Br986  Br    0.62777   0.86205   0.54565   0.00000  Uiso   1.00
C987   C     0.75403   0.83334   0.74996   0.00000  Uiso   1.00
C988   C     0.91264   0.83333   0.75004   0.00000  Uiso   1.00
C989   C     0.75895   0.82799   0.52374   0.00000  Uiso   1.00
C990   C     0.90772   0.83867   0.97626   0.00000  Uiso   1.00
C991   C     0.68797   0.79079   0.74966   0.00000  Uiso   1.00
C992   C     0.97869   0.87587   0.75034   0.00000  Uiso   1.00
C993   C     0.97871   0.79079   0.74972   0.00000  Uiso   1.00
C994   C     0.68795   0.87587   0.75028   0.00000  Uiso   1.00
C995   C     0.95725   0.83333   0.75004   0.00000  Uiso   1.00
C996   C     0.70941   0.83334   0.74996   0.00000  Uiso   1.00
C997   C     0.80702   0.69150   0.72309   0.00000  Uiso   1.00
C998   C     0.85965   0.97516   0.77691   0.00000  Uiso   1.00
C999   C     0.85965   0.69143   0.77691   0.00000  Uiso   1.00
C1000  C     0.80702   0.97523   0.72309   0.00000  Uiso   1.00
C1001  C     0.83345   0.83336   0.66457   0.00000  Uiso   1.00
C1002  C     0.83322   0.83330   0.83543   0.00000  Uiso   1.00
C1003  C     0.87046   0.83154   0.90641   0.00000  Uiso   1.00
C1004  C     0.79620   0.83513   0.59359   0.00000  Uiso   1.00
C1005  C     0.83291   0.83313   0.88358   0.00000  Uiso   1.00
C1006  C     0.83376   0.83353   0.61642   0.00000  Uiso   1.00
C1007  C     0.79516   0.83535   0.90609   0.00000  Uiso   1.00
C1008  C     0.87151   0.83132   0.59391   0.00000  Uiso   1.00
C1009  C     0.79464   0.83113   0.95298   0.00000  Uiso   1.00
C1010  C     0.87203   0.83554   0.54702   0.00000  Uiso   1.00
C1011  C     0.83294   0.83293   0.97645   0.00000  Uiso   1.00
C1012  C     0.83373   0.83373   0.52355   0.00000  Uiso   1.00
C1013  C     0.87061   0.83387   0.95294   0.00000  Uiso   1.00
C1014  C     0.79606   0.83280   0.54706   0.00000  Uiso   1.00
C1015  C     0.75785   0.82538   0.97771   0.00000  Uiso   1.00
C1016  C     0.90882   0.84129   0.52229   0.00000  Uiso   1.00
Cu1017 Cu    0.83333   0.88022   0.75000   0.00000  Uiso   1.00
Cu1018 Cu    0.83333   0.78645   0.75000   0.00000  Uiso   1.00
H1019  H     0.73012   0.82389   0.54115   0.00000  Uiso   1.00
H1020  H     0.93655   0.84278   0.95885   0.00000  Uiso   1.00
H1021  H     0.70401   0.75754   0.74937   0.00000  Uiso   1.00
H1022  H     0.96265   0.90913   0.75063   0.00000  Uiso   1.00
H1023  H     0.96269   0.75754   0.74948   0.00000  Uiso   1.00
H1024  H     0.70398   0.90913   0.75052   0.00000  Uiso   1.00
H1025  H     0.78594   0.71022   0.70153   0.00000  Uiso   1.00
H1026  H     0.88072   0.95645   0.79847   0.00000  Uiso   1.00
H1027  H     0.88073   0.71009   0.79847   0.00000  Uiso   1.00
H1028  H     0.78594   0.95657   0.70153   0.00000  Uiso   1.00
N1029  N     0.83333   0.95069   0.75000   0.00000  Uiso   1.00
N1030  N     0.83333   0.71598   0.75000   0.00000  Uiso   1.00
O1031  O     0.77321   0.87291   0.74999   0.00000  Uiso   1.00
O1032  O     0.89345   0.79375   0.75000   0.00000  Uiso   1.00
O1033  O     0.89345   0.87291   0.75000   0.00000  Uiso   1.00
O1034  O     0.77321   0.79375   0.74999   0.00000  Uiso   1.00
O1035  O     0.83332   0.87293   0.68513   0.00000  Uiso   1.00
O1036  O     0.83334   0.79373   0.81487   0.00000  Uiso   1.00
O1037  O     0.83334   0.87293   0.81487   0.00000  Uiso   1.00
O1038  O     0.83332   0.79373   0.68513   0.00000  Uiso   1.00
Br1039 Br    0.92131   0.82781   0.87285   0.00000  Uiso   1.00
Br1040 Br    0.74536   0.83885   0.62715   0.00000  Uiso   1.00
Br1041 Br    0.74720   0.85280   0.87113   0.00000  Uiso   1.00
Br1042 Br    0.91947   0.81387   0.62887   0.00000  Uiso   1.00
Br1043 Br    0.70557   0.80462   0.95435   0.00000  Uiso   1.00
Br1044 Br    0.96110   0.86205   0.54565   0.00000  Uiso   1.00
loop_
_geom_bond_atom_site_label_1
_geom_bond_atom_site_label_2
_geom_bond_distance
_geom_bond_site_symmetry_2
_ccdc_geom_bond_type
C1     O48     1.291   .     A
C1     O45     1.291   .     A
C1     C10     1.448   .     S
C2     O47     1.291   .     A
C2     O46     1.291   .     A
C2     C9      1.448   .     S
C3     C28     1.398   .     A
C3     H33     1.081   .     S
C3     C551    1.387   1_554 S
C4     H34     1.081   .     S
C4     C27     1.398   .     A
C4     C552    1.387   .     S
C5     H35     1.083   .     S
C5     C10     1.401   .     A
C5     C123    1.382   1_455 S
C6     H36     1.083   .     S
C6     C9      1.401   .     A
C6     C66     1.382   .     S
C7     C9      1.401   .     A
C7     H37     1.083   .     S
C7     C63     1.382   .     S
C8     H38     1.083   .     S
C8     C10     1.401   .     A
C8     C122    1.382   1_455 S
C11    N44     1.367   .     A
C11    H39     1.082   .     S
C11    C362    1.417   1_545 S
C12    H40     1.082   .     S
C12    N43     1.367   .     A
C12    C187    1.417   .     S
C13    H41     1.082   .     S
C13    N44     1.367   .     A
C13    C360    1.417   1_545 S
C14    H42     1.082   .     S
C14    N43     1.367   .     A
C14    C185    1.417   .     S
C15    O52     1.290   .     A
C15    O49     1.289   .     A
C15    C20     1.449   .     S
C16    O51     1.290   .     A
C16    C19     1.449   .     S
C16    O50     1.289   .     A
C17    C27     1.402   .     A
C17    Br53    1.941   .     S
C17    C19     1.397   .     A
C18    C20     1.397   .     A
C18    Br54    1.941   .     S
C18    C28     1.402   .     A
C19    C21     1.404   .     A
C20    C22     1.404   .     A
C21    Br55    1.940   .     S
C21    C23     1.416   .     A
C22    C24     1.416   .     A
C22    Br56    1.940   .     S
C23    C29     1.419   .     A
C23    C25     1.428   .     A
C24    C30     1.419   .     A
C24    C26     1.428   .     A
C25    C27     1.415   .     A
C25    C548    1.418   .     S
C26    C28     1.415   .     A
C26    C547    1.418   1_554 S
C29    Br57    1.928   .     S
C29    C525    1.387   .     S
C30    Br58    1.928   .     S
C30    C526    1.387   1_554 S
Cu31   Cu32    2.679   .     S
Cu31   O47     1.962   .     S
Cu31   N43     2.013   .     S
Cu31   O49     1.963   .     S
Cu31   O45     1.962   .     S
Cu31   O51     1.963   .     S
Cu32   O50     1.963   .     S
Cu32   N44     2.013   .     S
Cu32   O48     1.962   .     S
Cu32   O52     1.963   .     S
Cu32   O46     1.962   .     S
C59    O106    1.291   .     A
C59    O103    1.291   .     A
C59    C68     1.448   .     S
C60    O105    1.291   .     A
C60    O104    1.291   .     A
C60    C67     1.448   .     S
C61    C86     1.398   .     A
C61    H91     1.081   .     S
C61    C609    1.387   1_554 S
C62    H92     1.081   .     S
C62    C85     1.398   .     A
C62    C610    1.387   .     S
C63    H93     1.083   .     S
C63    C68     1.401   .     A
C64    H94     1.083   .     S
C64    C67     1.401   .     A
C64    C124    1.382   .     S
C65    C67     1.401   .     A
C65    H95     1.083   .     S
C65    C121    1.382   .     S
C66    H96     1.083   .     S
C66    C68     1.401   .     A
C69    N102    1.367   .     A
C69    H97     1.082   .     S
C69    C420    1.417   1_545 S
C70    H98     1.082   .     S
C70    N101    1.367   .     A
C70    C245    1.417   .     S
C71    H99     1.082   .     S
C71    N102    1.367   .     A
C71    C418    1.417   1_545 S
C72    H100    1.082   .     S
C72    N101    1.367   .     A
C72    C243    1.417   .     S
C73    O110    1.290   .     A
C73    O107    1.289   .     A
C73    C78     1.449   .     S
C74    O109    1.290   .     A
C74    C77     1.449   .     S
C74    O108    1.289   .     A
C75    C85     1.402   .     A
C75    Br111   1.941   .     S
C75    C77     1.397   .     A
C76    C78     1.397   .     A
C76    Br112   1.941   .     S
C76    C86     1.402   .     A
C77    C79     1.404   .     A
C78    C80     1.404   .     A
C79    Br113   1.940   .     S
C79    C81     1.416   .     A
C80    C82     1.416   .     A
C80    Br114   1.940   .     S
C81    C87     1.419   .     A
C81    C83     1.428   .     A
C82    C88     1.419   .     A
C82    C84     1.428   .     A
C83    C85     1.415   .     A
C83    C606    1.418   .     S
C84    C86     1.415   .     A
C84    C605    1.418   1_554 S
C87    Br115   1.928   .     S
C87    C583    1.387   .     S
C88    Br116   1.928   .     S
C88    C584    1.387   1_554 S
Cu89   Cu90    2.679   .     S
Cu89   O105    1.962   .     S
Cu89   N101    2.013   .     S
Cu89   O107    1.963   .     S
Cu89   O103    1.962   .     S
Cu89   O109    1.963   .     S
Cu90   O108    1.963   .     S
Cu90   N102    2.013   .     S
Cu90   O106    1.962   .     S
Cu90   O110    1.963   .     S
Cu90   O104    1.962   .     S
C117   O164    1.291   .     A
C117   O161    1.291   .     A
C117   C126    1.448   .     S
C118   O163    1.291   .     A
C118   O162    1.291   .     A
C118   C125    1.448   .     S
C119   C144    1.398   .     A
C119   H149    1.081   .     S
C119   C667    1.387   1_554 S
C120   H150    1.081   .     S
C120   C143    1.398   .     A
C120   C668    1.387   .     S
C121   H151    1.083   .     S
C121   C126    1.401   .     A
C122   H152    1.083   .     S
C122   C125    1.401   .     A
C122   C8      1.382   1_655 S
C123   C125    1.401   .     A
C123   H153    1.083   .     S
C123   C5      1.382   1_655 S
C124   H154    1.083   .     S
C124   C126    1.401   .     A
C127   N160    1.367   .     A
C127   H155    1.082   .     S
C127   C478    1.417   1_545 S
C128   H156    1.082   .     S
C128   N159    1.367   .     A
C128   C303    1.417   .     S
C129   H157    1.082   .     S
C129   N160    1.367   .     A
C129   C476    1.417   1_545 S
C130   H158    1.082   .     S
C130   N159    1.367   .     A
C130   C301    1.417   .     S
C131   O168    1.290   .     A
C131   O165    1.289   .     A
C131   C136    1.449   .     S
C132   O167    1.290   .     A
C132   C135    1.449   .     S
C132   O166    1.289   .     A
C133   C143    1.402   .     A
C133   Br169   1.941   .     S
C133   C135    1.397   .     A
C134   C136    1.397   .     A
C134   Br170   1.941   .     S
C134   C144    1.402   .     A
C135   C137    1.404   .     A
C136   C138    1.404   .     A
C137   Br171   1.940   .     S
C137   C139    1.416   .     A
C138   C140    1.416   .     A
C138   Br172   1.940   .     S
C139   C145    1.419   .     A
C139   C141    1.428   .     A
C140   C146    1.419   .     A
C140   C142    1.428   .     A
C141   C143    1.415   .     A
C141   C664    1.418   .     S
C142   C144    1.415   .     A
C142   C663    1.418   1_554 S
C145   Br173   1.928   .     S
C145   C641    1.387   .     S
C146   Br174   1.928   .     S
C146   C642    1.387   1_554 S
Cu147  Cu148   2.679   .     S
Cu147  O163    1.962   .     S
Cu147  N159    2.013   .     S
Cu147  O165    1.963   .     S
Cu147  O161    1.962   .     S
Cu147  O167    1.963   .     S
Cu148  O166    1.963   .     S
Cu148  N160    2.013   .     S
Cu148  O164    1.962   .     S
Cu148  O168    1.963   .     S
Cu148  O162    1.962   .     S
C175   O222    1.291   .     A
C175   O219    1.291   .     A
C175   C184    1.448   .     S
C176   O221    1.291   .     A
C176   O220    1.291   .     A
C176   C183    1.448   .     S
C177   C202    1.398   .     A
C177   H207    1.081   .     S
C177   C725    1.387   1_554 S
C178   H208    1.081   .     S
C178   C201    1.398   .     A
C178   C726    1.387   .     S
C179   H209    1.083   .     S
C179   C184    1.401   .     A
C179   C297    1.382   1_455 S
C180   H210    1.083   .     S
C180   C183    1.401   .     A
C180   C240    1.382   .     S
C181   C183    1.401   .     A
C181   H211    1.083   .     S
C181   C237    1.382   .     S
C182   H212    1.083   .     S
C182   C184    1.401   .     A
C182   C296    1.382   1_455 S
C185   N218    1.367   .     A
C185   H213    1.082   .     S
C186   H214    1.082   .     S
C186   N217    1.367   .     A
C186   C361    1.417   .     S
C187   H215    1.082   .     S
C187   N218    1.367   .     A
C188   H216    1.082   .     S
C188   N217    1.367   .     A
C188   C359    1.417   .     S
C189   O226    1.290   .     A
C189   O223    1.289   .     A
C189   C194    1.449   .     S
C190   O225    1.290   .     A
C190   C193    1.449   .     S
C190   O224    1.289   .     A
C191   C201    1.402   .     A
C191   Br227   1.941   .     S
C191   C193    1.397   .     A
C192   C194    1.397   .     A
C192   Br228   1.941   .     S
C192   C202    1.402   .     A
C193   C195    1.404   .     A
C194   C196    1.404   .     A
C195   Br229   1.940   .     S
C195   C197    1.416   .     A
C196   C198    1.416   .     A
C196   Br230   1.940   .     S
C197   C203    1.419   .     A
C197   C199    1.428   .     A
C198   C204    1.419   .     A
C198   C200    1.428   .     A
C199   C201    1.415   .     A
C199   C722    1.418   .     S
C200   C202    1.415   .     A
C200   C721    1.418   1_554 S
C203   Br231   1.928   .     S
C203   C699    1.387   .     S
C204   Br232   1.928   .     S
C204   C700    1.387   1_554 S
Cu205  Cu206   2.679   .     S
Cu205  O221    1.962   .     S
Cu205  N217    2.013   .     S
Cu205  O223    1.963   .     S
Cu205  O219    1.962   .     S
Cu205  O225    1.963   .     S
Cu206  O224    1.963   .     S
Cu206  N218    2.013   .     S
Cu206  O222    1.962   .     S
Cu206  O226    1.963   .     S
Cu206  O220    1.962   .     S
C233   O280    1.291   .     A
C233   O277    1.291   .     A
C233   C242    1.448   .     S
C234   O279    1.291   .     A
C234   O278    1.291   .     A
C234   C241    1.448   .     S
C235   C260    1.398   .     A
C235   H265    1.081   .     S
C235   C783    1.387   1_554 S
C236   H266    1.081   .     S
C236   C259    1.398   .     A
C236   C784    1.387   .     S
C237   H267    1.083   .     S
C237   C242    1.401   .     A
C238   H268    1.083   .     S
C238   C241    1.401   .     A
C238   C298    1.382   .     S
C239   C241    1.401   .     A
C239   H269    1.083   .     S
C239   C295    1.382   .     S
C240   H270    1.083   .     S
C240   C242    1.401   .     A
C243   N276    1.367   .     A
C243   H271    1.082   .     S
C244   H272    1.082   .     S
C244   N275    1.367   .     A
C244   C419    1.417   .     S
C245   H273    1.082   .     S
C245   N276    1.367   .     A
C246   H274    1.082   .     S
C246   N275    1.367   .     A
C246   C417    1.417   .     S
C247   O284    1.290   .     A
C247   O281    1.289   .     A
C247   C252    1.449   .     S
C248   O283    1.290   .     A
C248   C251    1.449   .     S
C248   O282    1.289   .     A
C249   C259    1.402   .     A
C249   Br285   1.941   .     S
C249   C251    1.397   .     A
C250   C252    1.397   .     A
C250   Br286   1.941   .     S
C250   C260    1.402   .     A
C251   C253    1.404   .     A
C252   C254    1.404   .     A
C253   Br287   1.940   .     S
C253   C255    1.416   .     A
C254   C256    1.416   .     A
C254   Br288   1.940   .     S
C255   C261    1.419   .     A
C255   C257    1.428   .     A
C256   C262    1.419   .     A
C256   C258    1.428   .     A
C257   C259    1.415   .     A
C257   C780    1.418   .     S
C258   C260    1.415   .     A
C258   C779    1.418   1_554 S
C261   Br289   1.928   .     S
C261   C757    1.387   .     S
C262   Br290   1.928   .     S
C262   C758    1.387   1_554 S
Cu263  Cu264   2.679   .     S
Cu263  O279    1.962   .     S
Cu263  N275    2.013   .     S
Cu263  O281    1.963   .     S
Cu263  O277    1.962   .     S
Cu263  O283    1.963   .     S
Cu264  O282    1.963   .     S
Cu264  N276    2.013   .     S
Cu264  O280    1.962   .     S
Cu264  O284    1.963   .     S
Cu264  O278    1.962   .     S
C291   O338    1.291   .     A
C291   O335    1.291   .     A
C291   C300    1.448   .     S
C292   O337    1.291   .     A
C292   O336    1.291   .     A
C292   C299    1.448   .     S
C293   C318    1.398   .     A
C293   H323    1.081   .     S
C293   C841    1.387   1_554 S
C294   H324    1.081   .     S
C294   C317    1.398   .     A
C294   C842    1.387   .     S
C295   H325    1.083   .     S
C295   C300    1.401   .     A
C296   H326    1.083   .     S
C296   C299    1.401   .     A
C296   C182    1.382   1_655 S
C297   C299    1.401   .     A
C297   H327    1.083   .     S
C297   C179    1.382   1_655 S
C298   H328    1.083   .     S
C298   C300    1.401   .     A
C301   N334    1.367   .     A
C301   H329    1.082   .     S
C302   H330    1.082   .     S
C302   N333    1.367   .     A
C302   C477    1.417   .     S
C303   H331    1.082   .     S
C303   N334    1.367   .     A
C304   H332    1.082   .     S
C304   N333    1.367   .     A
C304   C475    1.417   .     S
C305   O342    1.290   .     A
C305   O339    1.289   .     A
C305   C310    1.449   .     S
C306   O341    1.290   .     A
C306   C309    1.449   .     S
C306   O340    1.289   .     A
C307   C317    1.402   .     A
C307   Br343   1.941   .     S
C307   C309    1.397   .     A
C308   C310    1.397   .     A
C308   Br344   1.941   .     S
C308   C318    1.402   .     A
C309   C311    1.404   .     A
C310   C312    1.404   .     A
C311   Br345   1.940   .     S
C311   C313    1.416   .     A
C312   C314    1.416   .     A
C312   Br346   1.940   .     S
C313   C319    1.419   .     A
C313   C315    1.428   .     A
C314   C320    1.419   .     A
C314   C316    1.428   .     A
C315   C317    1.415   .     A
C315   C838    1.418   .     S
C316   C318    1.415   .     A
C316   C837    1.418   1_554 S
C319   Br347   1.928   .     S
C319   C815    1.387   .     S
C320   Br348   1.928   .     S
C320   C816    1.387   1_554 S
Cu321  Cu322   2.679   .     S
Cu321  O337    1.962   .     S
Cu321  N333    2.013   .     S
Cu321  O339    1.963   .     S
Cu321  O335    1.962   .     S
Cu321  O341    1.963   .     S
Cu322  O340    1.963   .     S
Cu322  N334    2.013   .     S
Cu322  O338    1.962   .     S
Cu322  O342    1.963   .     S
Cu322  O336    1.962   .     S
C349   O396    1.291   .     A
C349   O393    1.291   .     A
C349   C358    1.448   .     S
C350   O395    1.291   .     A
C350   O394    1.291   .     A
C350   C357    1.448   .     S
C351   C376    1.398   .     A
C351   H381    1.081   .     S
C351   C899    1.387   1_554 S
C352   H382    1.081   .     S
C352   C375    1.398   .     A
C352   C900    1.387   .     S
C353   H383    1.083   .     S
C353   C358    1.401   .     A
C353   C471    1.382   1_455 S
C354   H384    1.083   .     S
C354   C357    1.401   .     A
C354   C414    1.382   .     S
C355   C357    1.401   .     A
C355   H385    1.083   .     S
C355   C411    1.382   .     S
C356   H386    1.083   .     S
C356   C358    1.401   .     A
C356   C470    1.382   1_455 S
C359   N392    1.367   .     A
C359   H387    1.082   .     S
C360   H388    1.082   .     S
C360   N391    1.367   .     A
C360   C13     1.417   1_565 S
C361   H389    1.082   .     S
C361   N392    1.367   .     A
C362   H390    1.082   .     S
C362   N391    1.367   .     A
C362   C11     1.417   1_565 S
C363   O400    1.290   .     A
C363   O397    1.289   .     A
C363   C368    1.449   .     S
C364   O399    1.290   .     A
C364   C367    1.449   .     S
C364   O398    1.289   .     A
C365   C375    1.402   .     A
C365   Br401   1.941   .     S
C365   C367    1.397   .     A
C366   C368    1.397   .     A
C366   Br402   1.941   .     S
C366   C376    1.402   .     A
C367   C369    1.404   .     A
C368   C370    1.404   .     A
C369   Br403   1.940   .     S
C369   C371    1.416   .     A
C370   C372    1.416   .     A
C370   Br404   1.940   .     S
C371   C377    1.419   .     A
C371   C373    1.428   .     A
C372   C378    1.419   .     A
C372   C374    1.428   .     A
C373   C375    1.415   .     A
C373   C896    1.418   .     S
C374   C376    1.415   .     A
C374   C895    1.418   1_554 S
C377   Br405   1.928   .     S
C377   C873    1.387   .     S
C378   Br406   1.928   .     S
C378   C874    1.387   1_554 S
Cu379  Cu380   2.679   .     S
Cu379  O395    1.962   .     S
Cu379  N391    2.013   .     S
Cu379  O397    1.963   .     S
Cu379  O393    1.962   .     S
Cu379  O399    1.963   .     S
Cu380  O398    1.963   .     S
Cu380  N392    2.013   .     S
Cu380  O396    1.962   .     S
Cu380  O400    1.963   .     S
Cu380  O394    1.962   .     S
C407   O454    1.291   .     A
C407   O451    1.291   .     A
C407   C416    1.448   .     S
C408   O453    1.291   .     A
C408   O452    1.291   .     A
C408   C415    1.448   .     S
C409   C434    1.398   .     A
C409   H439    1.081   .     S
C409   C957    1.387   1_554 S
C410   H440    1.081   .     S
C410   C433    1.398   .     A
C410   C958    1.387   .     S
C411   H441    1.083   .     S
C411   C416    1.401   .     A
C412   H442    1.083   .     S
C412   C415    1.401   .     A
C412   C472    1.382   .     S
C413   C415    1.401   .     A
C413   H443    1.083   .     S
C413   C469    1.382   .     S
C414   H444    1.083   .     S
C414   C416    1.401   .     A
C417   N450    1.367   .     A
C417   H445    1.082   .     S
C418   H446    1.082   .     S
C418   N449    1.367   .     A
C418   C71     1.417   1_565 S
C419   H447    1.082   .     S
C419   N450    1.367   .     A
C420   H448    1.082   .     S
C420   N449    1.367   .     A
C420   C69     1.417   1_565 S
C421   O458    1.290   .     A
C421   O455    1.289   .     A
C421   C426    1.449   .     S
C422   O457    1.290   .     A
C422   C425    1.449   .     S
C422   O456    1.289   .     A
C423   C433    1.402   .     A
C423   Br459   1.941   .     S
C423   C425    1.397   .     A
C424   C426    1.397   .     A
C424   Br460   1.941   .     S
C424   C434    1.402   .     A
C425   C427    1.404   .     A
C426   C428    1.404   .     A
C427   Br461   1.940   .     S
C427   C429    1.416   .     A
C428   C430    1.416   .     A
C428   Br462   1.940   .     S
C429   C435    1.419   .     A
C429   C431    1.428   .     A
C430   C436    1.419   .     A
C430   C432    1.428   .     A
C431   C433    1.415   .     A
C431   C954    1.418   .     S
C432   C434    1.415   .     A
C432   C953    1.418   1_554 S
C435   Br463   1.928   .     S
C435   C931    1.387   .     S
C436   Br464   1.928   .     S
C436   C932    1.387   1_554 S
Cu437  Cu438   2.679   .     S
Cu437  O453    1.962   .     S
Cu437  N449    2.013   .     S
Cu437  O455    1.963   .     S
Cu437  O451    1.962   .     S
Cu437  O457    1.963   .     S
Cu438  O456    1.963   .     S
Cu438  N450    2.013   .     S
Cu438  O454    1.962   .     S
Cu438  O458    1.963   .     S
Cu438  O452    1.962   .     S
C465   O512    1.291   .     A
C465   O509    1.291   .     A
C465   C474    1.448   .     S
C466   O511    1.291   .     A
C466   O510    1.291   .     A
C466   C473    1.448   .     S
C467   C492    1.398   .     A
C467   H497    1.081   .     S
C467   C1015   1.387   1_554 S
C468   H498    1.081   .     S
C468   C491    1.398   .     A
C468   C1016   1.387   .     S
C469   H499    1.083   .     S
C469   C474    1.401   .     A
C470   H500    1.083   .     S
C470   C473    1.401   .     A
C470   C356    1.382   1_655 S
C471   C473    1.401   .     A
C471   H501    1.083   .     S
C471   C353    1.382   1_655 S
C472   H502    1.083   .     S
C472   C474    1.401   .     A
C475   N508    1.367   .     A
C475   H503    1.082   .     S
C476   H504    1.082   .     S
C476   N507    1.367   .     A
C476   C129    1.417   1_565 S
C477   H505    1.082   .     S
C477   N508    1.367   .     A
C478   H506    1.082   .     S
C478   N507    1.367   .     A
C478   C127    1.417   1_565 S
C479   O516    1.290   .     A
C479   O513    1.289   .     A
C479   C484    1.449   .     S
C480   O515    1.290   .     A
C480   C483    1.449   .     S
C480   O514    1.289   .     A
C481   C491    1.402   .     A
C481   Br517   1.941   .     S
C481   C483    1.397   .     A
C482   C484    1.397   .     A
C482   Br518   1.941   .     S
C482   C492    1.402   .     A
C483   C485    1.404   .     A
C484   C486    1.404   .     A
C485   Br519   1.940   .     S
C485   C487    1.416   .     A
C486   C488    1.416   .     A
C486   Br520   1.940   .     S
C487   C493    1.419   .     A
C487   C489    1.428   .     A
C488   C494    1.419   .     A
C488   C490    1.428   .     A
C489   C491    1.415   .     A
C489   C1012   1.418   .     S
C490   C492    1.415   .     A
C490   C1011   1.418   1_554 S
C493   Br521   1.928   .     S
C493   C989    1.387   .     S
C494   Br522   1.928   .     S
C494   C990    1.387   1_554 S
Cu495  Cu496   2.679   .     S
Cu495  O511    1.962   .     S
Cu495  N507    2.013   .     S
Cu495  O513    1.963   .     S
Cu495  O509    1.962   .     S
Cu495  O515    1.963   .     S
Cu496  O514    1.963   .     S
Cu496  N508    2.013   .     S
Cu496  O512    1.962   .     S
Cu496  O516    1.963   .     S
Cu496  O510    1.962   .     S
C523   O570    1.291   .     A
C523   O567    1.291   .     A
C523   C532    1.448   .     S
C524   O569    1.291   .     A
C524   O568    1.291   .     A
C524   C531    1.448   .     S
C525   C550    1.398   .     A
C525   H555    1.081   .     S
C526   H556    1.081   .     S
C526   C549    1.398   .     A
C526   C30     1.387   1_556 S
C527   H557    1.083   .     S
C527   C532    1.401   .     A
C527   C645    1.382   1_455 S
C528   H558    1.083   .     S
C528   C531    1.401   .     A
C528   C588    1.382   .     S
C529   C531    1.401   .     A
C529   H559    1.083   .     S
C529   C585    1.382   .     S
C530   H560    1.083   .     S
C530   C532    1.401   .     A
C530   C644    1.382   1_455 S
C533   N566    1.367   .     A
C533   H561    1.082   .     S
C533   C884    1.417   1_545 S
C534   H562    1.082   .     S
C534   N565    1.367   .     A
C534   C709    1.417   .     S
C535   H563    1.082   .     S
C535   N566    1.367   .     A
C535   C882    1.417   1_545 S
C536   H564    1.082   .     S
C536   N565    1.367   .     A
C536   C707    1.417   .     S
C537   O574    1.290   .     A
C537   O571    1.289   .     A
C537   C542    1.449   .     S
C538   O573    1.290   .     A
C538   C541    1.449   .     S
C538   O572    1.289   .     A
C539   C549    1.402   .     A
C539   Br575   1.941   .     S
C539   C541    1.397   .     A
C540   C542    1.397   .     A
C540   Br576   1.941   .     S
C540   C550    1.402   .     A
C541   C543    1.404   .     A
C542   C544    1.404   .     A
C543   Br577   1.940   .     S
C543   C545    1.416   .     A
C544   C546    1.416   .     A
C544   Br578   1.940   .     S
C545   C551    1.419   .     A
C545   C547    1.428   .     A
C546   C552    1.419   .     A
C546   C548    1.428   .     A
C547   C549    1.415   .     A
C547   C26     1.418   1_556 S
C548   C550    1.415   .     A
C551   Br579   1.928   .     S
C551   C3      1.387   1_556 S
C552   Br580   1.928   .     S
Cu553  Cu554   2.679   .     S
Cu553  O569    1.962   .     S
Cu553  N565    2.013   .     S
Cu553  O571    1.963   .     S
Cu553  O567    1.962   .     S
Cu553  O573    1.963   .     S
Cu554  O572    1.963   .     S
Cu554  N566    2.013   .     S
Cu554  O570    1.962   .     S
Cu554  O574    1.963   .     S
Cu554  O568    1.962   .     S
C581   O628    1.291   .     A
C581   O625    1.291   .     A
C581   C590    1.448   .     S
C582   O627    1.291   .     A
C582   O626    1.291   .     A
C582   C589    1.448   .     S
C583   C608    1.398   .     A
C583   H613    1.081   .     S
C584   H614    1.081   .     S
C584   C607    1.398   .     A
C584   C88     1.387   1_556 S
C585   H615    1.083   .     S
C585   C590    1.401   .     A
C586   H616    1.083   .     S
C586   C589    1.401   .     A
C586   C646    1.382   .     S
C587   C589    1.401   .     A
C587   H617    1.083   .     S
C587   C643    1.382   .     S
C588   H618    1.083   .     S
C588   C590    1.401   .     A
C591   N624    1.367   .     A
C591   H619    1.082   .     S
C591   C942    1.417   1_545 S
C592   H620    1.082   .     S
C592   N623    1.367   .     A
C592   C767    1.417   .     S
C593   H621    1.082   .     S
C593   N624    1.367   .     A
C593   C940    1.417   1_545 S
C594   H622    1.082   .     S
C594   N623    1.367   .     A
C594   C765    1.417   .     S
C595   O632    1.290   .     A
C595   O629    1.289   .     A
C595   C600    1.449   .     S
C596   O631    1.290   .     A
C596   C599    1.449   .     S
C596   O630    1.289   .     A
C597   C607    1.402   .     A
C597   Br633   1.941   .     S
C597   C599    1.397   .     A
C598   C600    1.397   .     A
C598   Br634   1.941   .     S
C598   C608    1.402   .     A
C599   C601    1.404   .     A
C600   C602    1.404   .     A
C601   Br635   1.940   .     S
C601   C603    1.416   .     A
C602   C604    1.416   .     A
C602   Br636   1.940   .     S
C603   C609    1.419   .     A
C603   C605    1.428   .     A
C604   C610    1.419   .     A
C604   C606    1.428   .     A
C605   C607    1.415   .     A
C605   C84     1.418   1_556 S
C606   C608    1.415   .     A
C609   Br637   1.928   .     S
C609   C61     1.387   1_556 S
C610   Br638   1.928   .     S
Cu611  Cu612   2.679   .     S
Cu611  O627    1.962   .     S
Cu611  N623    2.013   .     S
Cu611  O629    1.963   .     S
Cu611  O625    1.962   .     S
Cu611  O631    1.963   .     S
Cu612  O630    1.963   .     S
Cu612  N624    2.013   .     S
Cu612  O628    1.962   .     S
Cu612  O632    1.963   .     S
Cu612  O626    1.962   .     S
C639   O686    1.291   .     A
C639   O683    1.291   .     A
C639   C648    1.448   .     S
C640   O685    1.291   .     A
C640   O684    1.291   .     A
C640   C647    1.448   .     S
C641   C666    1.398   .     A
C641   H671    1.081   .     S
C642   H672    1.081   .     S
C642   C665    1.398   .     A
C642   C146    1.387   1_556 S
C643   H673    1.083   .     S
C643   C648    1.401   .     A
C644   H674    1.083   .     S
C644   C647    1.401   .     A
C644   C530    1.382   1_655 S
C645   C647    1.401   .     A
C645   H675    1.083   .     S
C645   C527    1.382   1_655 S
C646   H676    1.083   .     S
C646   C648    1.401   .     A
C649   N682    1.367   .     A
C649   H677    1.082   .     S
C649   C1000   1.417   1_545 S
C650   H678    1.082   .     S
C650   N681    1.367   .     A
C650   C825    1.417   .     S
C651   H679    1.082   .     S
C651   N682    1.367   .     A
C651   C998    1.417   1_545 S
C652   H680    1.082   .     S
C652   N681    1.367   .     A
C652   C823    1.417   .     S
C653   O690    1.290   .     A
C653   O687    1.289   .     A
C653   C658    1.449   .     S
C654   O689    1.290   .     A
C654   C657    1.449   .     S
C654   O688    1.289   .     A
C655   C665    1.402   .     A
C655   Br691   1.941   .     S
C655   C657    1.397   .     A
C656   C658    1.397   .     A
C656   Br692   1.941   .     S
C656   C666    1.402   .     A
C657   C659    1.404   .     A
C658   C660    1.404   .     A
C659   Br693   1.940   .     S
C659   C661    1.416   .     A
C660   C662    1.416   .     A
C660   Br694   1.940   .     S
C661   C667    1.419   .     A
C661   C663    1.428   .     A
C662   C668    1.419   .     A
C662   C664    1.428   .     A
C663   C665    1.415   .     A
C663   C142    1.418   1_556 S
C664   C666    1.415   .     A
C667   Br695   1.928   .     S
C667   C119    1.387   1_556 S
C668   Br696   1.928   .     S
Cu669  Cu670   2.679   .     S
Cu669  O685    1.962   .     S
Cu669  N681    2.013   .     S
Cu669  O687    1.963   .     S
Cu669  O683    1.962   .     S
Cu669  O689    1.963   .     S
Cu670  O688    1.963   .     S
Cu670  N682    2.013   .     S
Cu670  O686    1.962   .     S
Cu670  O690    1.963   .     S
Cu670  O684    1.962   .     S
C697   O744    1.291   .     A
C697   O741    1.291   .     A
C697   C706    1.448   .     S
C698   O743    1.291   .     A
C698   O742    1.291   .     A
C698   C705    1.448   .     S
C699   C724    1.398   .     A
C699   H729    1.081   .     S
C700   H730    1.081   .     S
C700   C723    1.398   .     A
C700   C204    1.387   1_556 S
C701   H731    1.083   .     S
C701   C706    1.401   .     A
C701   C819    1.382   1_455 S
C702   H732    1.083   .     S
C702   C705    1.401   .     A
C702   C762    1.382   .     S
C703   C705    1.401   .     A
C703   H733    1.083   .     S
C703   C759    1.382   .     S
C704   H734    1.083   .     S
C704   C706    1.401   .     A
C704   C818    1.382   1_455 S
C707   N740    1.367   .     A
C707   H735    1.082   .     S
C708   H736    1.082   .     S
C708   N739    1.367   .     A
C708   C883    1.417   .     S
C709   H737    1.082   .     S
C709   N740    1.367   .     A
C710   H738    1.082   .     S
C710   N739    1.367   .     A
C710   C881    1.417   .     S
C711   O748    1.290   .     A
C711   O745    1.289   .     A
C711   C716    1.449   .     S
C712   O747    1.290   .     A
C712   C715    1.449   .     S
C712   O746    1.289   .     A
C713   C723    1.402   .     A
C713   Br749   1.941   .     S
C713   C715    1.397   .     A
C714   C716    1.397   .     A
C714   Br750   1.941   .     S
C714   C724    1.402   .     A
C715   C717    1.404   .     A
C716   C718    1.404   .     A
C717   Br751   1.940   .     S
C717   C719    1.416   .     A
C718   C720    1.416   .     A
C718   Br752   1.940   .     S
C719   C725    1.419   .     A
C719   C721    1.428   .     A
C720   C726    1.419   .     A
C720   C722    1.428   .     A
C721   C723    1.415   .     A
C721   C200    1.418   1_556 S
C722   C724    1.415   .     A
C725   Br753   1.928   .     S
C725   C177    1.387   1_556 S
C726   Br754   1.928   .     S
Cu727  Cu728   2.679   .     S
Cu727  O743    1.962   .     S
Cu727  N739    2.013   .     S
Cu727  O745    1.963   .     S
Cu727  O741    1.962   .     S
Cu727  O747    1.963   .     S
Cu728  O746    1.963   .     S
Cu728  N740    2.013   .     S
Cu728  O744    1.962   .     S
Cu728  O748    1.963   .     S
Cu728  O742    1.962   .     S
C755   O802    1.291   .     A
C755   O799    1.291   .     A
C755   C764    1.448   .     S
C756   O801    1.291   .     A
C756   O800    1.291   .     A
C756   C763    1.448   .     S
C757   C782    1.398   .     A
C757   H787    1.081   .     S
C758   H788    1.081   .     S
C758   C781    1.398   .     A
C758   C262    1.387   1_556 S
C759   H789    1.083   .     S
C759   C764    1.401   .     A
C760   H790    1.083   .     S
C760   C763    1.401   .     A
C760   C820    1.382   .     S
C761   C763    1.401   .     A
C761   H791    1.083   .     S
C761   C817    1.382   .     S
C762   H792    1.083   .     S
C762   C764    1.401   .     A
C765   N798    1.367   .     A
C765   H793    1.082   .     S
C766   H794    1.082   .     S
C766   N797    1.367   .     A
C766   C941    1.417   .     S
C767   H795    1.082   .     S
C767   N798    1.367   .     A
C768   H796    1.082   .     S
C768   N797    1.367   .     A
C768   C939    1.417   .     S
C769   O806    1.290   .     A
C769   O803    1.289   .     A
C769   C774    1.449   .     S
C770   O805    1.290   .     A
C770   C773    1.449   .     S
C770   O804    1.289   .     A
C771   C781    1.402   .     A
C771   Br807   1.941   .     S
C771   C773    1.397   .     A
C772   C774    1.397   .     A
C772   Br808   1.941   .     S
C772   C782    1.402   .     A
C773   C775    1.404   .     A
C774   C776    1.404   .     A
C775   Br809   1.940   .     S
C775   C777    1.416   .     A
C776   C778    1.416   .     A
C776   Br810   1.940   .     S
C777   C783    1.419   .     A
C777   C779    1.428   .     A
C778   C784    1.419   .     A
C778   C780    1.428   .     A
C779   C781    1.415   .     A
C779   C258    1.418   1_556 S
C780   C782    1.415   .     A
C783   Br811   1.928   .     S
C783   C235    1.387   1_556 S
C784   Br812   1.928   .     S
Cu785  Cu786   2.679   .     S
Cu785  O801    1.962   .     S
Cu785  N797    2.013   .     S
Cu785  O803    1.963   .     S
Cu785  O799    1.962   .     S
Cu785  O805    1.963   .     S
Cu786  O804    1.963   .     S
Cu786  N798    2.013   .     S
Cu786  O802    1.962   .     S
Cu786  O806    1.963   .     S
Cu786  O800    1.962   .     S
C813   O860    1.291   .     A
C813   O857    1.291   .     A
C813   C822    1.448   .     S
C814   O859    1.291   .     A
C814   O858    1.291   .     A
C814   C821    1.448   .     S
C815   C840    1.398   .     A
C815   H845    1.081   .     S
C816   H846    1.081   .     S
C816   C839    1.398   .     A
C816   C320    1.387   1_556 S
C817   H847    1.083   .     S
C817   C822    1.401   .     A
C818   H848    1.083   .     S
C818   C821    1.401   .     A
C818   C704    1.382   1_655 S
C819   C821    1.401   .     A
C819   H849    1.083   .     S
C819   C701    1.382   1_655 S
C820   H850    1.083   .     S
C820   C822    1.401   .     A
C823   N856    1.367   .     A
C823   H851    1.082   .     S
C824   H852    1.082   .     S
C824   N855    1.367   .     A
C824   C999    1.417   .     S
C825   H853    1.082   .     S
C825   N856    1.367   .     A
C826   H854    1.082   .     S
C826   N855    1.367   .     A
C826   C997    1.417   .     S
C827   O864    1.290   .     A
C827   O861    1.289   .     A
C827   C832    1.449   .     S
C828   O863    1.290   .     A
C828   C831    1.449   .     S
C828   O862    1.289   .     A
C829   C839    1.402   .     A
C829   Br865   1.941   .     S
C829   C831    1.397   .     A
C830   C832    1.397   .     A
C830   Br866   1.941   .     S
C830   C840    1.402   .     A
C831   C833    1.404   .     A
C832   C834    1.404   .     A
C833   Br867   1.940   .     S
C833   C835    1.416   .     A
C834   C836    1.416   .     A
C834   Br868   1.940   .     S
C835   C841    1.419   .     A
C835   C837    1.428   .     A
C836   C842    1.419   .     A
C836   C838    1.428   .     A
C837   C839    1.415   .     A
C837   C316    1.418   1_556 S
C838   C840    1.415   .     A
C841   Br869   1.928   .     S
C841   C293    1.387   1_556 S
C842   Br870   1.928   .     S
Cu843  Cu844   2.679   .     S
Cu843  O859    1.962   .     S
Cu843  N855    2.013   .     S
Cu843  O861    1.963   .     S
Cu843  O857    1.962   .     S
Cu843  O863    1.963   .     S
Cu844  O862    1.963   .     S
Cu844  N856    2.013   .     S
Cu844  O860    1.962   .     S
Cu844  O864    1.963   .     S
Cu844  O858    1.962   .     S
C871   O918    1.291   .     A
C871   O915    1.291   .     A
C871   C880    1.448   .     S
C872   O917    1.291   .     A
C872   O916    1.291   .     A
C872   C879    1.448   .     S
C873   C898    1.398   .     A
C873   H903    1.081   .     S
C874   H904    1.081   .     S
C874   C897    1.398   .     A
C874   C378    1.387   1_556 S
C875   H905    1.083   .     S
C875   C880    1.401   .     A
C875   C993    1.382   1_455 S
C876   H906    1.083   .     S
C876   C879    1.401   .     A
C876   C936    1.382   .     S
C877   C879    1.401   .     A
C877   H907    1.083   .     S
C877   C933    1.382   .     S
C878   H908    1.083   .     S
C878   C880    1.401   .     A
C878   C992    1.382   1_455 S
C881   N914    1.367   .     A
C881   H909    1.082   .     S
C882   H910    1.082   .     S
C882   N913    1.367   .     A
C882   C535    1.417   1_565 S
C883   H911    1.082   .     S
C883   N914    1.367   .     A
C884   H912    1.082   .     S
C884   N913    1.367   .     A
C884   C533    1.417   1_565 S
C885   O922    1.290   .     A
C885   O919    1.289   .     A
C885   C890    1.449   .     S
C886   O921    1.290   .     A
C886   C889    1.449   .     S
C886   O920    1.289   .     A
C887   C897    1.402   .     A
C887   Br923   1.941   .     S
C887   C889    1.397   .     A
C888   C890    1.397   .     A
C888   Br924   1.941   .     S
C888   C898    1.402   .     A
C889   C891    1.404   .     A
C890   C892    1.404   .     A
C891   Br925   1.940   .     S
C891   C893    1.416   .     A
C892   C894    1.416   .     A
C892   Br926   1.940   .     S
C893   C899    1.419   .     A
C893   C895    1.428   .     A
C894   C900    1.419   .     A
C894   C896    1.428   .     A
C895   C897    1.415   .     A
C895   C374    1.418   1_556 S
C896   C898    1.415   .     A
C899   Br927   1.928   .     S
C899   C351    1.387   1_556 S
C900   Br928   1.928   .     S
Cu901  Cu902   2.679   .     S
Cu901  O917    1.962   .     S
Cu901  N913    2.013   .     S
Cu901  O919    1.963   .     S
Cu901  O915    1.962   .     S
Cu901  O921    1.963   .     S
Cu902  O920    1.963   .     S
Cu902  N914    2.013   .     S
Cu902  O918    1.962   .     S
Cu902  O922    1.963   .     S
Cu902  O916    1.962   .     S
C929   O976    1.291   .     A
C929   O973    1.291   .     A
C929   C938    1.448   .     S
C930   O975    1.291   .     A
C930   O974    1.291   .     A
C930   C937    1.448   .     S
C931   C956    1.398   .     A
C931   H961    1.081   .     S
C932   H962    1.081   .     S
C932   C955    1.398   .     A
C932   C436    1.387   1_556 S
C933   H963    1.083   .     S
C933   C938    1.401   .     A
C934   H964    1.083   .     S
C934   C937    1.401   .     A
C934   C994    1.382   .     S
C935   C937    1.401   .     A
C935   H965    1.083   .     S
C935   C991    1.382   .     S
C936   H966    1.083   .     S
C936   C938    1.401   .     A
C939   N972    1.367   .     A
C939   H967    1.082   .     S
C940   H968    1.082   .     S
C940   N971    1.367   .     A
C940   C593    1.417   1_565 S
C941   H969    1.082   .     S
C941   N972    1.367   .     A
C942   H970    1.082   .     S
C942   N971    1.367   .     A
C942   C591    1.417   1_565 S
C943   O980    1.290   .     A
C943   O977    1.289   .     A
C943   C948    1.449   .     S
C944   O979    1.290   .     A
C944   C947    1.449   .     S
C944   O978    1.289   .     A
C945   C955    1.402   .     A
C945   Br981   1.941   .     S
C945   C947    1.397   .     A
C946   C948    1.397   .     A
C946   Br982   1.941   .     S
C946   C956    1.402   .     A
C947   C949    1.404   .     A
C948   C950    1.404   .     A
C949   Br983   1.940   .     S
C949   C951    1.416   .     A
C950   C952    1.416   .     A
C950   Br984   1.940   .     S
C951   C957    1.419   .     A
C951   C953    1.428   .     A
C952   C958    1.419   .     A
C952   C954    1.428   .     A
C953   C955    1.415   .     A
C953   C432    1.418   1_556 S
C954   C956    1.415   .     A
C957   Br985   1.928   .     S
C957   C409    1.387   1_556 S
C958   Br986   1.928   .     S
Cu959  Cu960   2.679   .     S
Cu959  O975    1.962   .     S
Cu959  N971    2.013   .     S
Cu959  O977    1.963   .     S
Cu959  O973    1.962   .     S
Cu959  O979    1.963   .     S
Cu960  O978    1.963   .     S
Cu960  N972    2.013   .     S
Cu960  O976    1.962   .     S
Cu960  O980    1.963   .     S
Cu960  O974    1.962   .     S
C987   O1034   1.291   .     A
C987   O1031   1.291   .     A
C987   C996    1.448   .     S
C988   O1033   1.291   .     A
C988   O1032   1.291   .     A
C988   C995    1.448   .     S
C989   C1014   1.398   .     A
C989   H1019   1.081   .     S
C990   H1020   1.081   .     S
C990   C1013   1.398   .     A
C990   C494    1.387   1_556 S
C991   H1021   1.083   .     S
C991   C996    1.401   .     A
C992   H1022   1.083   .     S
C992   C995    1.401   .     A
C992   C878    1.382   1_655 S
C993   C995    1.401   .     A
C993   H1023   1.083   .     S
C993   C875    1.382   1_655 S
C994   H1024   1.083   .     S
C994   C996    1.401   .     A
C997   N1030   1.367   .     A
C997   H1025   1.082   .     S
C998   H1026   1.082   .     S
C998   N1029   1.367   .     A
C998   C651    1.417   1_565 S
C999   H1027   1.082   .     S
C999   N1030   1.367   .     A
C1000  H1028   1.082   .     S
C1000  N1029   1.367   .     A
C1000  C649    1.417   1_565 S
C1001  O1038   1.290   .     A
C1001  O1035   1.289   .     A
C1001  C1006   1.449   .     S
C1002  O1037   1.290   .     A
C1002  C1005   1.449   .     S
C1002  O1036   1.289   .     A
C1003  C1013   1.402   .     A
C1003  Br1039  1.941   .     S
C1003  C1005   1.397   .     A
C1004  C1006   1.397   .     A
C1004  Br1040  1.941   .     S
C1004  C1014   1.402   .     A
C1005  C1007   1.404   .     A
C1006  C1008   1.404   .     A
C1007  Br1041  1.940   .     S
C1007  C1009   1.416   .     A
C1008  C1010   1.416   .     A
C1008  Br1042  1.940   .     S
C1009  C1015   1.419   .     A
C1009  C1011   1.428   .     A
C1010  C1016   1.419   .     A
C1010  C1012   1.428   .     A
C1011  C1013   1.415   .     A
C1011  C490    1.418   1_556 S
C1012  C1014   1.415   .     A
C1015  Br1043  1.928   .     S
C1015  C467    1.387   1_556 S
C1016  Br1044  1.928   .     S
Cu1017 Cu1018  2.679   .     S
Cu1017 O1033   1.962   .     S
Cu1017 N1029   2.013   .     S
Cu1017 O1035   1.963   .     S
Cu1017 O1031   1.962   .     S
Cu1017 O1037   1.963   .     S
Cu1018 O1036   1.963   .     S
Cu1018 N1030   2.013   .     S
Cu1018 O1034   1.962   .     S
Cu1018 O1038   1.963   .     S
Cu1018 O1032   1.962   .     S
