data_str_m2_o1_o16_pcu_sym.113
_audit_creation_date              2020-01-03
_audit_creation_method            'Materials Studio'
_symmetry_space_group_name_H-M    'P1'
_symmetry_Int_Tables_number       1
_symmetry_cell_setting            triclinic
loop_
_symmetry_equiv_pos_as_xyz
  x,y,z
_cell_length_a                    28.5798
_cell_length_b                    32.3880
_cell_length_c                    26.8652
_cell_angle_alpha                 89.6072
_cell_angle_beta                  73.1297
_cell_angle_gamma                 89.9725
loop_
_atom_site_label
_atom_site_type_symbol
_atom_site_fract_x
_atom_site_fract_y
_atom_site_fract_z
_atom_site_U_iso_or_equiv
_atom_site_adp_type
_atom_site_occupancy
C1     C     0.16677   0.24587   0.24955   0.00000  Uiso   1.00
C2     C     0.14896   0.14343   0.48751   0.00000  Uiso   1.00
C3     C     0.16407   0.14428   0.43236   0.00000  Uiso   1.00
C4     C     0.18454   0.14987   0.01434   0.00000  Uiso   1.00
C5     C     0.23459   0.15333   0.48574   0.00000  Uiso   1.00
C6     C     0.24926   0.14559   0.43272   0.00000  Uiso   1.00
C7     C     0.21456   0.13943   0.40678   0.00000  Uiso   1.00
C8     C     0.17182   0.15515   0.06835   0.00000  Uiso   1.00
C9     C     0.25638   0.16822   0.06421   0.00000  Uiso   1.00
C10    C     0.12807   0.14937   0.40530   0.00000  Uiso   1.00
C11    C     0.20745   0.31206   0.22030   0.00000  Uiso   1.00
C12    C     0.14124   0.16136   0.34949   0.00000  Uiso   1.00
C13    C     0.20684   0.02153   0.21935   0.00000  Uiso   1.00
C14    C     0.16603   0.04266   0.25162   0.00000  Uiso   1.00
C15    C     0.12484   0.02046   0.28234   0.00000  Uiso   1.00
C16    C     0.12512   0.31096   0.27941   0.00000  Uiso   1.00
C17    C     0.16648   0.29034   0.24954   0.00000  Uiso   1.00
C18    C     0.29922   0.19051   0.28420   0.00000  Uiso   1.00
C19    C     0.01546   0.19045   0.28424   0.00000  Uiso   1.00
C20    C     0.03410   0.14277   0.21585   0.00000  Uiso   1.00
C21    C     0.31784   0.14278   0.21586   0.00000  Uiso   1.00
C22    C     0.16631   0.08742   0.25120   0.00000  Uiso   1.00
C23    C     0.19262   0.16639   0.15006   0.00000  Uiso   1.00
C24    C     0.26964   0.16377   0.01054   0.00000  Uiso   1.00
C25    C     0.20744   0.16345   0.09336   0.00000  Uiso   1.00
C26    C     0.07870   0.14298   0.43259   0.00000  Uiso   1.00
C27    C     0.06503   0.13395   0.48557   0.00000  Uiso   1.00
C28    C     0.09909   0.13595   0.01330   0.00000  Uiso   1.00
Cu29   Cu    0.11978   0.16666   0.25000   0.00000  Uiso   1.00
Cu30   Cu    0.21355   0.16667   0.25000   0.00000  Uiso   1.00
H31    H     0.28428   0.17552   0.08279   0.00000  Uiso   1.00
H32    H     0.09406   0.29338   0.30269   0.00000  Uiso   1.00
H33    H     0.27310   0.20964   0.31161   0.00000  Uiso   1.00
H34    H     0.02666   0.20954   0.31165   0.00000  Uiso   1.00
H35    H     0.06020   0.12357   0.18851   0.00000  Uiso   1.00
H36    H     0.30664   0.12363   0.18854   0.00000  Uiso   1.00
H37    H     0.28772   0.14432   0.41114   0.00000  Uiso   1.00
H38    H     0.30714   0.16905   0.48804   0.00000  Uiso   1.00
H39    H     0.13425   0.15357   0.09173   0.00000  Uiso   1.00
H40    H     0.05069   0.14408   0.41276   0.00000  Uiso   1.00
H41    H     0.08554   0.13011   0.05455   0.00000  Uiso   1.00
H42    H     0.02760   0.12617   0.00592   0.00000  Uiso   1.00
H43    H     0.22855   0.12948   0.36706   0.00000  Uiso   1.00
H44    H     0.23936   0.29580   0.19694   0.00000  Uiso   1.00
N45    N     0.04931   0.16666   0.24999   0.00000  Uiso   1.00
N46    N     0.28402   0.16669   0.25000   0.00000  Uiso   1.00
O47    O     0.12708   0.22678   0.25001   0.00000  Uiso   1.00
O48    O     0.20627   0.22679   0.25001   0.00000  Uiso   1.00
O49    O     0.10775   0.16665   0.32549   0.00000  Uiso   1.00
O50    O     0.18694   0.16666   0.32549   0.00000  Uiso   1.00
O51    O     0.12706   0.10654   0.25000   0.00000  Uiso   1.00
O52    O     0.20625   0.10655   0.25000   0.00000  Uiso   1.00
O53    O     0.14640   0.16667   0.17451   0.00000  Uiso   1.00
O54    O     0.22559   0.16668   0.17451   0.00000  Uiso   1.00
O55    O     0.24773   0.04226   0.18901   0.00000  Uiso   1.00
C56    C     0.23883   0.05784   0.14315   0.00000  Uiso   1.00
H57    H     0.26009   0.08690   0.13240   0.00000  Uiso   1.00
H58    H     0.19981   0.06602   0.14809   0.00000  Uiso   1.00
C59    C     0.25652   0.02726   0.09845   0.00000  Uiso   1.00
H60    H     0.29514   0.01872   0.09424   0.00000  Uiso   1.00
H61    H     0.23380   0.33215   0.10721   0.00000  Uiso   1.00
C62    C     0.25308   0.04587   0.04724   0.00000  Uiso   1.00
H63    H     0.21483   0.05506   0.05062   0.00000  Uiso   1.00
H64    H     0.26496   0.02273   0.01580   0.00000  Uiso   1.00
H65    H     0.27721   0.07338   0.03656   0.00000  Uiso   1.00
C66    C     0.08216   0.04025   0.31988   0.00000  Uiso   1.00
O67    O     0.08781   0.07035   0.34473   0.00000  Uiso   1.00
O68    O     0.03549   0.02325   0.32838   0.00000  Uiso   1.00
H69    H     0.00946   0.03911   0.35515   0.00000  Uiso   1.00
C70    C     0.50010   0.24587   0.24955   0.00000  Uiso   1.00
C71    C     0.48229   0.14343   0.48751   0.00000  Uiso   1.00
C72    C     0.49741   0.14428   0.43236   0.00000  Uiso   1.00
C73    C     0.51788   0.14987   0.01434   0.00000  Uiso   1.00
C74    C     0.56792   0.15333   0.48574   0.00000  Uiso   1.00
C75    C     0.58259   0.14559   0.43272   0.00000  Uiso   1.00
C76    C     0.54789   0.13943   0.40678   0.00000  Uiso   1.00
C77    C     0.50516   0.15515   0.06835   0.00000  Uiso   1.00
C78    C     0.58972   0.16822   0.06421   0.00000  Uiso   1.00
C79    C     0.46141   0.14937   0.40530   0.00000  Uiso   1.00
C80    C     0.54078   0.31206   0.22030   0.00000  Uiso   1.00
C81    C     0.47457   0.16136   0.34949   0.00000  Uiso   1.00
C82    C     0.54018   0.02153   0.21935   0.00000  Uiso   1.00
C83    C     0.49937   0.04266   0.25162   0.00000  Uiso   1.00
C84    C     0.45817   0.02046   0.28234   0.00000  Uiso   1.00
C85    C     0.45845   0.31096   0.27941   0.00000  Uiso   1.00
C86    C     0.49982   0.29034   0.24954   0.00000  Uiso   1.00
C87    C     0.63255   0.19051   0.28420   0.00000  Uiso   1.00
C88    C     0.34880   0.19045   0.28424   0.00000  Uiso   1.00
C89    C     0.36743   0.14277   0.21585   0.00000  Uiso   1.00
C90    C     0.65117   0.14278   0.21586   0.00000  Uiso   1.00
C91    C     0.49964   0.08742   0.25120   0.00000  Uiso   1.00
C92    C     0.52596   0.16639   0.15006   0.00000  Uiso   1.00
C93    C     0.60298   0.16377   0.01054   0.00000  Uiso   1.00
C94    C     0.54077   0.16345   0.09336   0.00000  Uiso   1.00
C95    C     0.41203   0.14298   0.43259   0.00000  Uiso   1.00
C96    C     0.39836   0.13395   0.48557   0.00000  Uiso   1.00
C97    C     0.43242   0.13595   0.01330   0.00000  Uiso   1.00
Cu98   Cu    0.45311   0.16666   0.25000   0.00000  Uiso   1.00
Cu99   Cu    0.54689   0.16667   0.25000   0.00000  Uiso   1.00
H100   H     0.61761   0.17552   0.08279   0.00000  Uiso   1.00
H101   H     0.42739   0.29338   0.30269   0.00000  Uiso   1.00
H102   H     0.60644   0.20964   0.31161   0.00000  Uiso   1.00
H103   H     0.35999   0.20954   0.31165   0.00000  Uiso   1.00
H104   H     0.39353   0.12357   0.18851   0.00000  Uiso   1.00
H105   H     0.63997   0.12363   0.18854   0.00000  Uiso   1.00
H106   H     0.62105   0.14432   0.41114   0.00000  Uiso   1.00
H107   H     0.64047   0.16905   0.48804   0.00000  Uiso   1.00
H108   H     0.46758   0.15357   0.09173   0.00000  Uiso   1.00
H109   H     0.38403   0.14408   0.41276   0.00000  Uiso   1.00
H110   H     0.41888   0.13011   0.05455   0.00000  Uiso   1.00
H111   H     0.36093   0.12617   0.00592   0.00000  Uiso   1.00
H112   H     0.56189   0.12948   0.36706   0.00000  Uiso   1.00
H113   H     0.57270   0.29580   0.19694   0.00000  Uiso   1.00
N114   N     0.38265   0.16666   0.24999   0.00000  Uiso   1.00
N115   N     0.61735   0.16669   0.25000   0.00000  Uiso   1.00
O116   O     0.46042   0.22678   0.25001   0.00000  Uiso   1.00
O117   O     0.53961   0.22679   0.25001   0.00000  Uiso   1.00
O118   O     0.44108   0.16665   0.32549   0.00000  Uiso   1.00
O119   O     0.52027   0.16666   0.32549   0.00000  Uiso   1.00
O120   O     0.46039   0.10654   0.25000   0.00000  Uiso   1.00
O121   O     0.53958   0.10655   0.25000   0.00000  Uiso   1.00
O122   O     0.47973   0.16667   0.17451   0.00000  Uiso   1.00
O123   O     0.55892   0.16668   0.17451   0.00000  Uiso   1.00
O124   O     0.58106   0.04226   0.18901   0.00000  Uiso   1.00
C125   C     0.57217   0.05784   0.14315   0.00000  Uiso   1.00
H126   H     0.59342   0.08690   0.13240   0.00000  Uiso   1.00
H127   H     0.53314   0.06602   0.14809   0.00000  Uiso   1.00
C128   C     0.58985   0.02726   0.09845   0.00000  Uiso   1.00
H129   H     0.62847   0.01872   0.09424   0.00000  Uiso   1.00
H130   H     0.56713   0.33215   0.10721   0.00000  Uiso   1.00
C131   C     0.58642   0.04587   0.04724   0.00000  Uiso   1.00
H132   H     0.54816   0.05506   0.05062   0.00000  Uiso   1.00
H133   H     0.59830   0.02273   0.01580   0.00000  Uiso   1.00
H134   H     0.61054   0.07338   0.03656   0.00000  Uiso   1.00
C135   C     0.41549   0.04025   0.31988   0.00000  Uiso   1.00
O136   O     0.42114   0.07035   0.34473   0.00000  Uiso   1.00
O137   O     0.36883   0.02325   0.32838   0.00000  Uiso   1.00
H138   H     0.34280   0.03911   0.35515   0.00000  Uiso   1.00
C139   C     0.83343   0.24587   0.24955   0.00000  Uiso   1.00
C140   C     0.81563   0.14343   0.48751   0.00000  Uiso   1.00
C141   C     0.83074   0.14428   0.43236   0.00000  Uiso   1.00
C142   C     0.85121   0.14987   0.01434   0.00000  Uiso   1.00
C143   C     0.90126   0.15333   0.48574   0.00000  Uiso   1.00
C144   C     0.91593   0.14559   0.43272   0.00000  Uiso   1.00
C145   C     0.88123   0.13943   0.40678   0.00000  Uiso   1.00
C146   C     0.83849   0.15515   0.06835   0.00000  Uiso   1.00
C147   C     0.92305   0.16822   0.06421   0.00000  Uiso   1.00
C148   C     0.79474   0.14937   0.40530   0.00000  Uiso   1.00
C149   C     0.87412   0.31206   0.22030   0.00000  Uiso   1.00
C150   C     0.80791   0.16136   0.34949   0.00000  Uiso   1.00
C151   C     0.87351   0.02153   0.21935   0.00000  Uiso   1.00
C152   C     0.83270   0.04266   0.25162   0.00000  Uiso   1.00
C153   C     0.79151   0.02046   0.28234   0.00000  Uiso   1.00
C154   C     0.79179   0.31096   0.27941   0.00000  Uiso   1.00
C155   C     0.83315   0.29034   0.24954   0.00000  Uiso   1.00
C156   C     0.96589   0.19051   0.28420   0.00000  Uiso   1.00
C157   C     0.68213   0.19045   0.28424   0.00000  Uiso   1.00
C158   C     0.70077   0.14277   0.21585   0.00000  Uiso   1.00
C159   C     0.98451   0.14278   0.21586   0.00000  Uiso   1.00
C160   C     0.83298   0.08742   0.25120   0.00000  Uiso   1.00
C161   C     0.85929   0.16639   0.15006   0.00000  Uiso   1.00
C162   C     0.93631   0.16377   0.01054   0.00000  Uiso   1.00
C163   C     0.87411   0.16345   0.09336   0.00000  Uiso   1.00
C164   C     0.74537   0.14298   0.43259   0.00000  Uiso   1.00
C165   C     0.73169   0.13395   0.48557   0.00000  Uiso   1.00
C166   C     0.76576   0.13595   0.01330   0.00000  Uiso   1.00
Cu167  Cu    0.78645   0.16666   0.25000   0.00000  Uiso   1.00
Cu168  Cu    0.88022   0.16667   0.25000   0.00000  Uiso   1.00
H169   H     0.95094   0.17552   0.08279   0.00000  Uiso   1.00
H170   H     0.76072   0.29338   0.30269   0.00000  Uiso   1.00
H171   H     0.93977   0.20964   0.31161   0.00000  Uiso   1.00
H172   H     0.69332   0.20954   0.31165   0.00000  Uiso   1.00
H173   H     0.72687   0.12357   0.18851   0.00000  Uiso   1.00
H174   H     0.97331   0.12363   0.18854   0.00000  Uiso   1.00
H175   H     0.95438   0.14432   0.41114   0.00000  Uiso   1.00
H176   H     0.97380   0.16905   0.48804   0.00000  Uiso   1.00
H177   H     0.80092   0.15357   0.09173   0.00000  Uiso   1.00
H178   H     0.71736   0.14408   0.41276   0.00000  Uiso   1.00
H179   H     0.75221   0.13011   0.05455   0.00000  Uiso   1.00
H180   H     0.69427   0.12617   0.00592   0.00000  Uiso   1.00
H181   H     0.89522   0.12948   0.36706   0.00000  Uiso   1.00
H182   H     0.90603   0.29580   0.19694   0.00000  Uiso   1.00
N183   N     0.71598   0.16666   0.24999   0.00000  Uiso   1.00
N184   N     0.95069   0.16669   0.25000   0.00000  Uiso   1.00
O185   O     0.79375   0.22678   0.25001   0.00000  Uiso   1.00
O186   O     0.87294   0.22679   0.25001   0.00000  Uiso   1.00
O187   O     0.77441   0.16665   0.32549   0.00000  Uiso   1.00
O188   O     0.85360   0.16666   0.32549   0.00000  Uiso   1.00
O189   O     0.79373   0.10654   0.25000   0.00000  Uiso   1.00
O190   O     0.87292   0.10655   0.25000   0.00000  Uiso   1.00
O191   O     0.81306   0.16667   0.17451   0.00000  Uiso   1.00
O192   O     0.89225   0.16668   0.17451   0.00000  Uiso   1.00
O193   O     0.91440   0.04226   0.18901   0.00000  Uiso   1.00
C194   C     0.90550   0.05784   0.14315   0.00000  Uiso   1.00
H195   H     0.92675   0.08690   0.13240   0.00000  Uiso   1.00
H196   H     0.86648   0.06602   0.14809   0.00000  Uiso   1.00
C197   C     0.92318   0.02726   0.09845   0.00000  Uiso   1.00
H198   H     0.96181   0.01872   0.09424   0.00000  Uiso   1.00
H199   H     0.90046   0.33215   0.10721   0.00000  Uiso   1.00
C200   C     0.91975   0.04587   0.04724   0.00000  Uiso   1.00
H201   H     0.88149   0.05506   0.05062   0.00000  Uiso   1.00
H202   H     0.93163   0.02273   0.01580   0.00000  Uiso   1.00
H203   H     0.94388   0.07338   0.03656   0.00000  Uiso   1.00
C204   C     0.74882   0.04025   0.31988   0.00000  Uiso   1.00
O205   O     0.75448   0.07035   0.34473   0.00000  Uiso   1.00
O206   O     0.70216   0.02325   0.32838   0.00000  Uiso   1.00
H207   H     0.67613   0.03911   0.35515   0.00000  Uiso   1.00
C208   C     0.16677   0.57920   0.24955   0.00000  Uiso   1.00
C209   C     0.14896   0.47676   0.48751   0.00000  Uiso   1.00
C210   C     0.16407   0.47761   0.43236   0.00000  Uiso   1.00
C211   C     0.18454   0.48320   0.01434   0.00000  Uiso   1.00
C212   C     0.23459   0.48666   0.48574   0.00000  Uiso   1.00
C213   C     0.24926   0.47893   0.43272   0.00000  Uiso   1.00
C214   C     0.21456   0.47276   0.40678   0.00000  Uiso   1.00
C215   C     0.17182   0.48849   0.06835   0.00000  Uiso   1.00
C216   C     0.25638   0.50155   0.06421   0.00000  Uiso   1.00
C217   C     0.12807   0.48270   0.40530   0.00000  Uiso   1.00
C218   C     0.20745   0.64539   0.22030   0.00000  Uiso   1.00
C219   C     0.14124   0.49469   0.34949   0.00000  Uiso   1.00
C220   C     0.20684   0.35487   0.21935   0.00000  Uiso   1.00
C221   C     0.16603   0.37599   0.25162   0.00000  Uiso   1.00
C222   C     0.12484   0.35379   0.28234   0.00000  Uiso   1.00
C223   C     0.12512   0.64430   0.27941   0.00000  Uiso   1.00
C224   C     0.16648   0.62367   0.24954   0.00000  Uiso   1.00
C225   C     0.29922   0.52384   0.28420   0.00000  Uiso   1.00
C226   C     0.01546   0.52378   0.28424   0.00000  Uiso   1.00
C227   C     0.03410   0.47610   0.21585   0.00000  Uiso   1.00
C228   C     0.31784   0.47612   0.21586   0.00000  Uiso   1.00
C229   C     0.16631   0.42075   0.25120   0.00000  Uiso   1.00
C230   C     0.19262   0.49973   0.15006   0.00000  Uiso   1.00
C231   C     0.26964   0.49710   0.01054   0.00000  Uiso   1.00
C232   C     0.20744   0.49678   0.09336   0.00000  Uiso   1.00
C233   C     0.07870   0.47631   0.43259   0.00000  Uiso   1.00
C234   C     0.06503   0.46728   0.48557   0.00000  Uiso   1.00
C235   C     0.09909   0.46928   0.01330   0.00000  Uiso   1.00
Cu236  Cu    0.11978   0.49999   0.25000   0.00000  Uiso   1.00
Cu237  Cu    0.21355   0.50001   0.25000   0.00000  Uiso   1.00
H238   H     0.28428   0.50886   0.08279   0.00000  Uiso   1.00
H239   H     0.09406   0.62671   0.30269   0.00000  Uiso   1.00
H240   H     0.27310   0.54297   0.31161   0.00000  Uiso   1.00
H241   H     0.02666   0.54288   0.31165   0.00000  Uiso   1.00
H242   H     0.06020   0.45691   0.18851   0.00000  Uiso   1.00
H243   H     0.30664   0.45696   0.18854   0.00000  Uiso   1.00
H244   H     0.28772   0.47765   0.41114   0.00000  Uiso   1.00
H245   H     0.30714   0.50238   0.48804   0.00000  Uiso   1.00
H246   H     0.13425   0.48691   0.09173   0.00000  Uiso   1.00
H247   H     0.05069   0.47742   0.41276   0.00000  Uiso   1.00
H248   H     0.08554   0.46344   0.05455   0.00000  Uiso   1.00
H249   H     0.02760   0.45950   0.00592   0.00000  Uiso   1.00
H250   H     0.22855   0.46282   0.36706   0.00000  Uiso   1.00
H251   H     0.23936   0.62913   0.19694   0.00000  Uiso   1.00
N252   N     0.04931   0.49999   0.24999   0.00000  Uiso   1.00
N253   N     0.28402   0.50002   0.25000   0.00000  Uiso   1.00
O254   O     0.12708   0.56011   0.25001   0.00000  Uiso   1.00
O255   O     0.20627   0.56012   0.25001   0.00000  Uiso   1.00
O256   O     0.10775   0.49998   0.32549   0.00000  Uiso   1.00
O257   O     0.18694   0.49999   0.32549   0.00000  Uiso   1.00
O258   O     0.12706   0.43988   0.25000   0.00000  Uiso   1.00
O259   O     0.20625   0.43989   0.25000   0.00000  Uiso   1.00
O260   O     0.14640   0.50001   0.17451   0.00000  Uiso   1.00
O261   O     0.22559   0.50002   0.17451   0.00000  Uiso   1.00
O262   O     0.24773   0.37559   0.18901   0.00000  Uiso   1.00
C263   C     0.23883   0.39117   0.14315   0.00000  Uiso   1.00
H264   H     0.26009   0.42023   0.13240   0.00000  Uiso   1.00
H265   H     0.19981   0.39936   0.14809   0.00000  Uiso   1.00
C266   C     0.25652   0.36059   0.09845   0.00000  Uiso   1.00
H267   H     0.29514   0.35205   0.09424   0.00000  Uiso   1.00
H268   H     0.23380   0.66548   0.10721   0.00000  Uiso   1.00
C269   C     0.25308   0.37921   0.04724   0.00000  Uiso   1.00
H270   H     0.21483   0.38840   0.05062   0.00000  Uiso   1.00
H271   H     0.26496   0.35606   0.01580   0.00000  Uiso   1.00
H272   H     0.27721   0.40671   0.03656   0.00000  Uiso   1.00
C273   C     0.08216   0.37358   0.31988   0.00000  Uiso   1.00
O274   O     0.08781   0.40369   0.34473   0.00000  Uiso   1.00
O275   O     0.03549   0.35659   0.32838   0.00000  Uiso   1.00
H276   H     0.00946   0.37244   0.35515   0.00000  Uiso   1.00
C277   C     0.50010   0.57920   0.24955   0.00000  Uiso   1.00
C278   C     0.48229   0.47676   0.48751   0.00000  Uiso   1.00
C279   C     0.49741   0.47761   0.43236   0.00000  Uiso   1.00
C280   C     0.51788   0.48320   0.01434   0.00000  Uiso   1.00
C281   C     0.56792   0.48666   0.48574   0.00000  Uiso   1.00
C282   C     0.58259   0.47893   0.43272   0.00000  Uiso   1.00
C283   C     0.54789   0.47276   0.40678   0.00000  Uiso   1.00
C284   C     0.50516   0.48849   0.06835   0.00000  Uiso   1.00
C285   C     0.58972   0.50155   0.06421   0.00000  Uiso   1.00
C286   C     0.46141   0.48270   0.40530   0.00000  Uiso   1.00
C287   C     0.54078   0.64539   0.22030   0.00000  Uiso   1.00
C288   C     0.47457   0.49469   0.34949   0.00000  Uiso   1.00
C289   C     0.54018   0.35487   0.21935   0.00000  Uiso   1.00
C290   C     0.49937   0.37599   0.25162   0.00000  Uiso   1.00
C291   C     0.45817   0.35379   0.28234   0.00000  Uiso   1.00
C292   C     0.45845   0.64430   0.27941   0.00000  Uiso   1.00
C293   C     0.49982   0.62367   0.24954   0.00000  Uiso   1.00
C294   C     0.63255   0.52384   0.28420   0.00000  Uiso   1.00
C295   C     0.34880   0.52378   0.28424   0.00000  Uiso   1.00
C296   C     0.36743   0.47610   0.21585   0.00000  Uiso   1.00
C297   C     0.65117   0.47612   0.21586   0.00000  Uiso   1.00
C298   C     0.49964   0.42075   0.25120   0.00000  Uiso   1.00
C299   C     0.52596   0.49973   0.15006   0.00000  Uiso   1.00
C300   C     0.60298   0.49710   0.01054   0.00000  Uiso   1.00
C301   C     0.54077   0.49678   0.09336   0.00000  Uiso   1.00
C302   C     0.41203   0.47631   0.43259   0.00000  Uiso   1.00
C303   C     0.39836   0.46728   0.48557   0.00000  Uiso   1.00
C304   C     0.43242   0.46928   0.01330   0.00000  Uiso   1.00
Cu305  Cu    0.45311   0.49999   0.25000   0.00000  Uiso   1.00
Cu306  Cu    0.54689   0.50001   0.25000   0.00000  Uiso   1.00
H307   H     0.61761   0.50886   0.08279   0.00000  Uiso   1.00
H308   H     0.42739   0.62671   0.30269   0.00000  Uiso   1.00
H309   H     0.60644   0.54297   0.31161   0.00000  Uiso   1.00
H310   H     0.35999   0.54288   0.31165   0.00000  Uiso   1.00
H311   H     0.39353   0.45691   0.18851   0.00000  Uiso   1.00
H312   H     0.63997   0.45696   0.18854   0.00000  Uiso   1.00
H313   H     0.62105   0.47765   0.41114   0.00000  Uiso   1.00
H314   H     0.64047   0.50238   0.48804   0.00000  Uiso   1.00
H315   H     0.46758   0.48691   0.09173   0.00000  Uiso   1.00
H316   H     0.38403   0.47742   0.41276   0.00000  Uiso   1.00
H317   H     0.41888   0.46344   0.05455   0.00000  Uiso   1.00
H318   H     0.36093   0.45950   0.00592   0.00000  Uiso   1.00
H319   H     0.56189   0.46282   0.36706   0.00000  Uiso   1.00
H320   H     0.57270   0.62913   0.19694   0.00000  Uiso   1.00
N321   N     0.38265   0.49999   0.24999   0.00000  Uiso   1.00
N322   N     0.61735   0.50002   0.25000   0.00000  Uiso   1.00
O323   O     0.46042   0.56011   0.25001   0.00000  Uiso   1.00
O324   O     0.53961   0.56012   0.25001   0.00000  Uiso   1.00
O325   O     0.44108   0.49998   0.32549   0.00000  Uiso   1.00
O326   O     0.52027   0.49999   0.32549   0.00000  Uiso   1.00
O327   O     0.46039   0.43988   0.25000   0.00000  Uiso   1.00
O328   O     0.53958   0.43989   0.25000   0.00000  Uiso   1.00
O329   O     0.47973   0.50001   0.17451   0.00000  Uiso   1.00
O330   O     0.55892   0.50002   0.17451   0.00000  Uiso   1.00
O331   O     0.58106   0.37559   0.18901   0.00000  Uiso   1.00
C332   C     0.57217   0.39117   0.14315   0.00000  Uiso   1.00
H333   H     0.59342   0.42023   0.13240   0.00000  Uiso   1.00
H334   H     0.53314   0.39936   0.14809   0.00000  Uiso   1.00
C335   C     0.58985   0.36059   0.09845   0.00000  Uiso   1.00
H336   H     0.62847   0.35205   0.09424   0.00000  Uiso   1.00
H337   H     0.56713   0.66548   0.10721   0.00000  Uiso   1.00
C338   C     0.58642   0.37921   0.04724   0.00000  Uiso   1.00
H339   H     0.54816   0.38840   0.05062   0.00000  Uiso   1.00
H340   H     0.59830   0.35606   0.01580   0.00000  Uiso   1.00
H341   H     0.61054   0.40671   0.03656   0.00000  Uiso   1.00
C342   C     0.41549   0.37358   0.31988   0.00000  Uiso   1.00
O343   O     0.42114   0.40369   0.34473   0.00000  Uiso   1.00
O344   O     0.36883   0.35659   0.32838   0.00000  Uiso   1.00
H345   H     0.34280   0.37244   0.35515   0.00000  Uiso   1.00
C346   C     0.83343   0.57920   0.24955   0.00000  Uiso   1.00
C347   C     0.81563   0.47676   0.48751   0.00000  Uiso   1.00
C348   C     0.83074   0.47761   0.43236   0.00000  Uiso   1.00
C349   C     0.85121   0.48320   0.01434   0.00000  Uiso   1.00
C350   C     0.90126   0.48666   0.48574   0.00000  Uiso   1.00
C351   C     0.91593   0.47893   0.43272   0.00000  Uiso   1.00
C352   C     0.88123   0.47276   0.40678   0.00000  Uiso   1.00
C353   C     0.83849   0.48849   0.06835   0.00000  Uiso   1.00
C354   C     0.92305   0.50155   0.06421   0.00000  Uiso   1.00
C355   C     0.79474   0.48270   0.40530   0.00000  Uiso   1.00
C356   C     0.87412   0.64539   0.22030   0.00000  Uiso   1.00
C357   C     0.80791   0.49469   0.34949   0.00000  Uiso   1.00
C358   C     0.87351   0.35487   0.21935   0.00000  Uiso   1.00
C359   C     0.83270   0.37599   0.25162   0.00000  Uiso   1.00
C360   C     0.79151   0.35379   0.28234   0.00000  Uiso   1.00
C361   C     0.79179   0.64430   0.27941   0.00000  Uiso   1.00
C362   C     0.83315   0.62367   0.24954   0.00000  Uiso   1.00
C363   C     0.96589   0.52384   0.28420   0.00000  Uiso   1.00
C364   C     0.68213   0.52378   0.28424   0.00000  Uiso   1.00
C365   C     0.70077   0.47610   0.21585   0.00000  Uiso   1.00
C366   C     0.98451   0.47612   0.21586   0.00000  Uiso   1.00
C367   C     0.83298   0.42075   0.25120   0.00000  Uiso   1.00
C368   C     0.85929   0.49973   0.15006   0.00000  Uiso   1.00
C369   C     0.93631   0.49710   0.01054   0.00000  Uiso   1.00
C370   C     0.87411   0.49678   0.09336   0.00000  Uiso   1.00
C371   C     0.74537   0.47631   0.43259   0.00000  Uiso   1.00
C372   C     0.73169   0.46728   0.48557   0.00000  Uiso   1.00
C373   C     0.76576   0.46928   0.01330   0.00000  Uiso   1.00
Cu374  Cu    0.78645   0.49999   0.25000   0.00000  Uiso   1.00
Cu375  Cu    0.88022   0.50001   0.25000   0.00000  Uiso   1.00
H376   H     0.95094   0.50886   0.08279   0.00000  Uiso   1.00
H377   H     0.76072   0.62671   0.30269   0.00000  Uiso   1.00
H378   H     0.93977   0.54297   0.31161   0.00000  Uiso   1.00
H379   H     0.69332   0.54288   0.31165   0.00000  Uiso   1.00
H380   H     0.72687   0.45691   0.18851   0.00000  Uiso   1.00
H381   H     0.97331   0.45696   0.18854   0.00000  Uiso   1.00
H382   H     0.95438   0.47765   0.41114   0.00000  Uiso   1.00
H383   H     0.97380   0.50238   0.48804   0.00000  Uiso   1.00
H384   H     0.80092   0.48691   0.09173   0.00000  Uiso   1.00
H385   H     0.71736   0.47742   0.41276   0.00000  Uiso   1.00
H386   H     0.75221   0.46344   0.05455   0.00000  Uiso   1.00
H387   H     0.69427   0.45950   0.00592   0.00000  Uiso   1.00
H388   H     0.89522   0.46282   0.36706   0.00000  Uiso   1.00
H389   H     0.90603   0.62913   0.19694   0.00000  Uiso   1.00
N390   N     0.71598   0.49999   0.24999   0.00000  Uiso   1.00
N391   N     0.95069   0.50002   0.25000   0.00000  Uiso   1.00
O392   O     0.79375   0.56011   0.25001   0.00000  Uiso   1.00
O393   O     0.87294   0.56012   0.25001   0.00000  Uiso   1.00
O394   O     0.77441   0.49998   0.32549   0.00000  Uiso   1.00
O395   O     0.85360   0.49999   0.32549   0.00000  Uiso   1.00
O396   O     0.79373   0.43988   0.25000   0.00000  Uiso   1.00
O397   O     0.87292   0.43989   0.25000   0.00000  Uiso   1.00
O398   O     0.81306   0.50001   0.17451   0.00000  Uiso   1.00
O399   O     0.89225   0.50002   0.17451   0.00000  Uiso   1.00
O400   O     0.91440   0.37559   0.18901   0.00000  Uiso   1.00
C401   C     0.90550   0.39117   0.14315   0.00000  Uiso   1.00
H402   H     0.92675   0.42023   0.13240   0.00000  Uiso   1.00
H403   H     0.86648   0.39936   0.14809   0.00000  Uiso   1.00
C404   C     0.92318   0.36059   0.09845   0.00000  Uiso   1.00
H405   H     0.96181   0.35205   0.09424   0.00000  Uiso   1.00
H406   H     0.90046   0.66548   0.10721   0.00000  Uiso   1.00
C407   C     0.91975   0.37921   0.04724   0.00000  Uiso   1.00
H408   H     0.88149   0.38840   0.05062   0.00000  Uiso   1.00
H409   H     0.93163   0.35606   0.01580   0.00000  Uiso   1.00
H410   H     0.94388   0.40671   0.03656   0.00000  Uiso   1.00
C411   C     0.74882   0.37358   0.31988   0.00000  Uiso   1.00
O412   O     0.75448   0.40369   0.34473   0.00000  Uiso   1.00
O413   O     0.70216   0.35659   0.32838   0.00000  Uiso   1.00
H414   H     0.67613   0.37244   0.35515   0.00000  Uiso   1.00
C415   C     0.16677   0.91253   0.24955   0.00000  Uiso   1.00
C416   C     0.14896   0.81009   0.48751   0.00000  Uiso   1.00
C417   C     0.16407   0.81095   0.43236   0.00000  Uiso   1.00
C418   C     0.18454   0.81653   0.01434   0.00000  Uiso   1.00
C419   C     0.23459   0.81999   0.48574   0.00000  Uiso   1.00
C420   C     0.24926   0.81226   0.43272   0.00000  Uiso   1.00
C421   C     0.21456   0.80610   0.40678   0.00000  Uiso   1.00
C422   C     0.17182   0.82182   0.06835   0.00000  Uiso   1.00
C423   C     0.25638   0.83488   0.06421   0.00000  Uiso   1.00
C424   C     0.12807   0.81603   0.40530   0.00000  Uiso   1.00
C425   C     0.20745   0.97873   0.22030   0.00000  Uiso   1.00
C426   C     0.14124   0.82802   0.34949   0.00000  Uiso   1.00
C427   C     0.20684   0.68820   0.21935   0.00000  Uiso   1.00
C428   C     0.16603   0.70933   0.25162   0.00000  Uiso   1.00
C429   C     0.12484   0.68713   0.28234   0.00000  Uiso   1.00
C430   C     0.12512   0.97763   0.27941   0.00000  Uiso   1.00
C431   C     0.16648   0.95700   0.24954   0.00000  Uiso   1.00
C432   C     0.29922   0.85717   0.28420   0.00000  Uiso   1.00
C433   C     0.01546   0.85712   0.28424   0.00000  Uiso   1.00
C434   C     0.03410   0.80944   0.21585   0.00000  Uiso   1.00
C435   C     0.31784   0.80945   0.21586   0.00000  Uiso   1.00
C436   C     0.16631   0.75408   0.25120   0.00000  Uiso   1.00
C437   C     0.19262   0.83306   0.15006   0.00000  Uiso   1.00
C438   C     0.26964   0.83044   0.01054   0.00000  Uiso   1.00
C439   C     0.20744   0.83012   0.09336   0.00000  Uiso   1.00
C440   C     0.07870   0.80965   0.43259   0.00000  Uiso   1.00
C441   C     0.06503   0.80062   0.48557   0.00000  Uiso   1.00
C442   C     0.09909   0.80262   0.01330   0.00000  Uiso   1.00
Cu443  Cu    0.11978   0.83333   0.25000   0.00000  Uiso   1.00
Cu444  Cu    0.21355   0.83334   0.25000   0.00000  Uiso   1.00
H445   H     0.28428   0.84219   0.08279   0.00000  Uiso   1.00
H446   H     0.09406   0.96004   0.30269   0.00000  Uiso   1.00
H447   H     0.27310   0.87630   0.31161   0.00000  Uiso   1.00
H448   H     0.02666   0.87621   0.31165   0.00000  Uiso   1.00
H449   H     0.06020   0.79024   0.18851   0.00000  Uiso   1.00
H450   H     0.30664   0.79029   0.18854   0.00000  Uiso   1.00
H451   H     0.28772   0.81099   0.41114   0.00000  Uiso   1.00
H452   H     0.30714   0.83571   0.48804   0.00000  Uiso   1.00
H453   H     0.13425   0.82024   0.09173   0.00000  Uiso   1.00
H454   H     0.05069   0.81075   0.41276   0.00000  Uiso   1.00
H455   H     0.08554   0.79677   0.05455   0.00000  Uiso   1.00
H456   H     0.02760   0.79283   0.00592   0.00000  Uiso   1.00
H457   H     0.22855   0.79615   0.36706   0.00000  Uiso   1.00
H458   H     0.23936   0.96246   0.19694   0.00000  Uiso   1.00
N459   N     0.04931   0.83332   0.24999   0.00000  Uiso   1.00
N460   N     0.28402   0.83335   0.25000   0.00000  Uiso   1.00
O461   O     0.12708   0.89345   0.25001   0.00000  Uiso   1.00
O462   O     0.20627   0.89346   0.25001   0.00000  Uiso   1.00
O463   O     0.10775   0.83332   0.32549   0.00000  Uiso   1.00
O464   O     0.18694   0.83333   0.32549   0.00000  Uiso   1.00
O465   O     0.12706   0.77321   0.25000   0.00000  Uiso   1.00
O466   O     0.20625   0.77322   0.25000   0.00000  Uiso   1.00
O467   O     0.14640   0.83334   0.17451   0.00000  Uiso   1.00
O468   O     0.22559   0.83335   0.17451   0.00000  Uiso   1.00
O469   O     0.24773   0.70892   0.18901   0.00000  Uiso   1.00
C470   C     0.23883   0.72450   0.14315   0.00000  Uiso   1.00
H471   H     0.26009   0.75357   0.13240   0.00000  Uiso   1.00
H472   H     0.19981   0.73269   0.14809   0.00000  Uiso   1.00
C473   C     0.25652   0.69392   0.09845   0.00000  Uiso   1.00
H474   H     0.29514   0.68538   0.09424   0.00000  Uiso   1.00
H475   H     0.23380   0.99881   0.10721   0.00000  Uiso   1.00
C476   C     0.25308   0.71254   0.04724   0.00000  Uiso   1.00
H477   H     0.21483   0.72173   0.05062   0.00000  Uiso   1.00
H478   H     0.26496   0.68940   0.01580   0.00000  Uiso   1.00
H479   H     0.27721   0.74004   0.03656   0.00000  Uiso   1.00
C480   C     0.08216   0.70692   0.31988   0.00000  Uiso   1.00
O481   O     0.08781   0.73702   0.34473   0.00000  Uiso   1.00
O482   O     0.03549   0.68992   0.32838   0.00000  Uiso   1.00
H483   H     0.00946   0.70577   0.35515   0.00000  Uiso   1.00
C484   C     0.50010   0.91253   0.24955   0.00000  Uiso   1.00
C485   C     0.48229   0.81009   0.48751   0.00000  Uiso   1.00
C486   C     0.49741   0.81095   0.43236   0.00000  Uiso   1.00
C487   C     0.51788   0.81653   0.01434   0.00000  Uiso   1.00
C488   C     0.56792   0.81999   0.48574   0.00000  Uiso   1.00
C489   C     0.58259   0.81226   0.43272   0.00000  Uiso   1.00
C490   C     0.54789   0.80610   0.40678   0.00000  Uiso   1.00
C491   C     0.50516   0.82182   0.06835   0.00000  Uiso   1.00
C492   C     0.58972   0.83488   0.06421   0.00000  Uiso   1.00
C493   C     0.46141   0.81603   0.40530   0.00000  Uiso   1.00
C494   C     0.54078   0.97873   0.22030   0.00000  Uiso   1.00
C495   C     0.47457   0.82802   0.34949   0.00000  Uiso   1.00
C496   C     0.54018   0.68820   0.21935   0.00000  Uiso   1.00
C497   C     0.49937   0.70933   0.25162   0.00000  Uiso   1.00
C498   C     0.45817   0.68713   0.28234   0.00000  Uiso   1.00
C499   C     0.45845   0.97763   0.27941   0.00000  Uiso   1.00
C500   C     0.49982   0.95700   0.24954   0.00000  Uiso   1.00
C501   C     0.63255   0.85717   0.28420   0.00000  Uiso   1.00
C502   C     0.34880   0.85712   0.28424   0.00000  Uiso   1.00
C503   C     0.36743   0.80944   0.21585   0.00000  Uiso   1.00
C504   C     0.65117   0.80945   0.21586   0.00000  Uiso   1.00
C505   C     0.49964   0.75408   0.25120   0.00000  Uiso   1.00
C506   C     0.52596   0.83306   0.15006   0.00000  Uiso   1.00
C507   C     0.60298   0.83044   0.01054   0.00000  Uiso   1.00
C508   C     0.54077   0.83012   0.09336   0.00000  Uiso   1.00
C509   C     0.41203   0.80965   0.43259   0.00000  Uiso   1.00
C510   C     0.39836   0.80062   0.48557   0.00000  Uiso   1.00
C511   C     0.43242   0.80262   0.01330   0.00000  Uiso   1.00
Cu512  Cu    0.45311   0.83333   0.25000   0.00000  Uiso   1.00
Cu513  Cu    0.54689   0.83334   0.25000   0.00000  Uiso   1.00
H514   H     0.61761   0.84219   0.08279   0.00000  Uiso   1.00
H515   H     0.42739   0.96004   0.30269   0.00000  Uiso   1.00
H516   H     0.60644   0.87630   0.31161   0.00000  Uiso   1.00
H517   H     0.35999   0.87621   0.31165   0.00000  Uiso   1.00
H518   H     0.39353   0.79024   0.18851   0.00000  Uiso   1.00
H519   H     0.63997   0.79029   0.18854   0.00000  Uiso   1.00
H520   H     0.62105   0.81099   0.41114   0.00000  Uiso   1.00
H521   H     0.64047   0.83571   0.48804   0.00000  Uiso   1.00
H522   H     0.46758   0.82024   0.09173   0.00000  Uiso   1.00
H523   H     0.38403   0.81075   0.41276   0.00000  Uiso   1.00
H524   H     0.41888   0.79677   0.05455   0.00000  Uiso   1.00
H525   H     0.36093   0.79283   0.00592   0.00000  Uiso   1.00
H526   H     0.56189   0.79615   0.36706   0.00000  Uiso   1.00
H527   H     0.57270   0.96246   0.19694   0.00000  Uiso   1.00
N528   N     0.38265   0.83332   0.24999   0.00000  Uiso   1.00
N529   N     0.61735   0.83335   0.25000   0.00000  Uiso   1.00
O530   O     0.46042   0.89345   0.25001   0.00000  Uiso   1.00
O531   O     0.53961   0.89346   0.25001   0.00000  Uiso   1.00
O532   O     0.44108   0.83332   0.32549   0.00000  Uiso   1.00
O533   O     0.52027   0.83333   0.32549   0.00000  Uiso   1.00
O534   O     0.46039   0.77321   0.25000   0.00000  Uiso   1.00
O535   O     0.53958   0.77322   0.25000   0.00000  Uiso   1.00
O536   O     0.47973   0.83334   0.17451   0.00000  Uiso   1.00
O537   O     0.55892   0.83335   0.17451   0.00000  Uiso   1.00
O538   O     0.58106   0.70892   0.18901   0.00000  Uiso   1.00
C539   C     0.57217   0.72450   0.14315   0.00000  Uiso   1.00
H540   H     0.59342   0.75357   0.13240   0.00000  Uiso   1.00
H541   H     0.53314   0.73269   0.14809   0.00000  Uiso   1.00
C542   C     0.58985   0.69392   0.09845   0.00000  Uiso   1.00
H543   H     0.62847   0.68538   0.09424   0.00000  Uiso   1.00
H544   H     0.56713   0.99881   0.10721   0.00000  Uiso   1.00
C545   C     0.58642   0.71254   0.04724   0.00000  Uiso   1.00
H546   H     0.54816   0.72173   0.05062   0.00000  Uiso   1.00
H547   H     0.59830   0.68940   0.01580   0.00000  Uiso   1.00
H548   H     0.61054   0.74004   0.03656   0.00000  Uiso   1.00
C549   C     0.41549   0.70692   0.31988   0.00000  Uiso   1.00
O550   O     0.42114   0.73702   0.34473   0.00000  Uiso   1.00
O551   O     0.36883   0.68992   0.32838   0.00000  Uiso   1.00
H552   H     0.34280   0.70577   0.35515   0.00000  Uiso   1.00
C553   C     0.83343   0.91253   0.24955   0.00000  Uiso   1.00
C554   C     0.81563   0.81009   0.48751   0.00000  Uiso   1.00
C555   C     0.83074   0.81095   0.43236   0.00000  Uiso   1.00
C556   C     0.85121   0.81653   0.01434   0.00000  Uiso   1.00
C557   C     0.90126   0.81999   0.48574   0.00000  Uiso   1.00
C558   C     0.91593   0.81226   0.43272   0.00000  Uiso   1.00
C559   C     0.88123   0.80610   0.40678   0.00000  Uiso   1.00
C560   C     0.83849   0.82182   0.06835   0.00000  Uiso   1.00
C561   C     0.92305   0.83488   0.06421   0.00000  Uiso   1.00
C562   C     0.79474   0.81603   0.40530   0.00000  Uiso   1.00
C563   C     0.87412   0.97873   0.22030   0.00000  Uiso   1.00
C564   C     0.80791   0.82802   0.34949   0.00000  Uiso   1.00
C565   C     0.87351   0.68820   0.21935   0.00000  Uiso   1.00
C566   C     0.83270   0.70933   0.25162   0.00000  Uiso   1.00
C567   C     0.79151   0.68713   0.28234   0.00000  Uiso   1.00
C568   C     0.79179   0.97763   0.27941   0.00000  Uiso   1.00
C569   C     0.83315   0.95700   0.24954   0.00000  Uiso   1.00
C570   C     0.96589   0.85717   0.28420   0.00000  Uiso   1.00
C571   C     0.68213   0.85712   0.28424   0.00000  Uiso   1.00
C572   C     0.70077   0.80944   0.21585   0.00000  Uiso   1.00
C573   C     0.98451   0.80945   0.21586   0.00000  Uiso   1.00
C574   C     0.83298   0.75408   0.25120   0.00000  Uiso   1.00
C575   C     0.85929   0.83306   0.15006   0.00000  Uiso   1.00
C576   C     0.93631   0.83044   0.01054   0.00000  Uiso   1.00
C577   C     0.87411   0.83012   0.09336   0.00000  Uiso   1.00
C578   C     0.74537   0.80965   0.43259   0.00000  Uiso   1.00
C579   C     0.73169   0.80062   0.48557   0.00000  Uiso   1.00
C580   C     0.76576   0.80262   0.01330   0.00000  Uiso   1.00
Cu581  Cu    0.78645   0.83333   0.25000   0.00000  Uiso   1.00
Cu582  Cu    0.88022   0.83334   0.25000   0.00000  Uiso   1.00
H583   H     0.95094   0.84219   0.08279   0.00000  Uiso   1.00
H584   H     0.76072   0.96004   0.30269   0.00000  Uiso   1.00
H585   H     0.93977   0.87630   0.31161   0.00000  Uiso   1.00
H586   H     0.69332   0.87621   0.31165   0.00000  Uiso   1.00
H587   H     0.72687   0.79024   0.18851   0.00000  Uiso   1.00
H588   H     0.97331   0.79029   0.18854   0.00000  Uiso   1.00
H589   H     0.95438   0.81099   0.41114   0.00000  Uiso   1.00
H590   H     0.97380   0.83571   0.48804   0.00000  Uiso   1.00
H591   H     0.80092   0.82024   0.09173   0.00000  Uiso   1.00
H592   H     0.71736   0.81075   0.41276   0.00000  Uiso   1.00
H593   H     0.75221   0.79677   0.05455   0.00000  Uiso   1.00
H594   H     0.69427   0.79283   0.00592   0.00000  Uiso   1.00
H595   H     0.89522   0.79615   0.36706   0.00000  Uiso   1.00
H596   H     0.90603   0.96246   0.19694   0.00000  Uiso   1.00
N597   N     0.71598   0.83332   0.24999   0.00000  Uiso   1.00
N598   N     0.95069   0.83335   0.25000   0.00000  Uiso   1.00
O599   O     0.79375   0.89345   0.25001   0.00000  Uiso   1.00
O600   O     0.87294   0.89346   0.25001   0.00000  Uiso   1.00
O601   O     0.77441   0.83332   0.32549   0.00000  Uiso   1.00
O602   O     0.85360   0.83333   0.32549   0.00000  Uiso   1.00
O603   O     0.79373   0.77321   0.25000   0.00000  Uiso   1.00
O604   O     0.87292   0.77322   0.25000   0.00000  Uiso   1.00
O605   O     0.81306   0.83334   0.17451   0.00000  Uiso   1.00
O606   O     0.89225   0.83335   0.17451   0.00000  Uiso   1.00
O607   O     0.91440   0.70892   0.18901   0.00000  Uiso   1.00
C608   C     0.90550   0.72450   0.14315   0.00000  Uiso   1.00
H609   H     0.92675   0.75357   0.13240   0.00000  Uiso   1.00
H610   H     0.86648   0.73269   0.14809   0.00000  Uiso   1.00
C611   C     0.92318   0.69392   0.09845   0.00000  Uiso   1.00
H612   H     0.96181   0.68538   0.09424   0.00000  Uiso   1.00
H613   H     0.90046   0.99881   0.10721   0.00000  Uiso   1.00
C614   C     0.91975   0.71254   0.04724   0.00000  Uiso   1.00
H615   H     0.88149   0.72173   0.05062   0.00000  Uiso   1.00
H616   H     0.93163   0.68940   0.01580   0.00000  Uiso   1.00
H617   H     0.94388   0.74004   0.03656   0.00000  Uiso   1.00
C618   C     0.74882   0.70692   0.31988   0.00000  Uiso   1.00
O619   O     0.75448   0.73702   0.34473   0.00000  Uiso   1.00
O620   O     0.70216   0.68992   0.32838   0.00000  Uiso   1.00
H621   H     0.67613   0.70577   0.35515   0.00000  Uiso   1.00
C622   C     0.16677   0.24587   0.74955   0.00000  Uiso   1.00
C623   C     0.14896   0.14343   0.98751   0.00000  Uiso   1.00
C624   C     0.16407   0.14428   0.93236   0.00000  Uiso   1.00
C625   C     0.18454   0.14987   0.51434   0.00000  Uiso   1.00
C626   C     0.23459   0.15333   0.98574   0.00000  Uiso   1.00
C627   C     0.24926   0.14559   0.93272   0.00000  Uiso   1.00
C628   C     0.21456   0.13943   0.90678   0.00000  Uiso   1.00
C629   C     0.17182   0.15515   0.56835   0.00000  Uiso   1.00
C630   C     0.25638   0.16822   0.56421   0.00000  Uiso   1.00
C631   C     0.12807   0.14937   0.90530   0.00000  Uiso   1.00
C632   C     0.20745   0.31206   0.72030   0.00000  Uiso   1.00
C633   C     0.14124   0.16136   0.84949   0.00000  Uiso   1.00
C634   C     0.20684   0.02153   0.71935   0.00000  Uiso   1.00
C635   C     0.16603   0.04266   0.75162   0.00000  Uiso   1.00
C636   C     0.12484   0.02046   0.78234   0.00000  Uiso   1.00
C637   C     0.12512   0.31096   0.77941   0.00000  Uiso   1.00
C638   C     0.16648   0.29034   0.74954   0.00000  Uiso   1.00
C639   C     0.29922   0.19051   0.78420   0.00000  Uiso   1.00
C640   C     0.01546   0.19045   0.78424   0.00000  Uiso   1.00
C641   C     0.03410   0.14277   0.71585   0.00000  Uiso   1.00
C642   C     0.31784   0.14278   0.71586   0.00000  Uiso   1.00
C643   C     0.16631   0.08742   0.75120   0.00000  Uiso   1.00
C644   C     0.19262   0.16639   0.65006   0.00000  Uiso   1.00
C645   C     0.26964   0.16377   0.51054   0.00000  Uiso   1.00
C646   C     0.20744   0.16345   0.59336   0.00000  Uiso   1.00
C647   C     0.07870   0.14298   0.93259   0.00000  Uiso   1.00
C648   C     0.06503   0.13395   0.98557   0.00000  Uiso   1.00
C649   C     0.09909   0.13595   0.51330   0.00000  Uiso   1.00
Cu650  Cu    0.11978   0.16666   0.75000   0.00000  Uiso   1.00
Cu651  Cu    0.21355   0.16667   0.75000   0.00000  Uiso   1.00
H652   H     0.28428   0.17552   0.58279   0.00000  Uiso   1.00
H653   H     0.09406   0.29338   0.80269   0.00000  Uiso   1.00
H654   H     0.27310   0.20964   0.81161   0.00000  Uiso   1.00
H655   H     0.02666   0.20954   0.81165   0.00000  Uiso   1.00
H656   H     0.06020   0.12357   0.68851   0.00000  Uiso   1.00
H657   H     0.30664   0.12363   0.68854   0.00000  Uiso   1.00
H658   H     0.28772   0.14432   0.91114   0.00000  Uiso   1.00
H659   H     0.30714   0.16905   0.98804   0.00000  Uiso   1.00
H660   H     0.13425   0.15357   0.59173   0.00000  Uiso   1.00
H661   H     0.05069   0.14408   0.91276   0.00000  Uiso   1.00
H662   H     0.08554   0.13011   0.55455   0.00000  Uiso   1.00
H663   H     0.02760   0.12617   0.50592   0.00000  Uiso   1.00
H664   H     0.22855   0.12948   0.86706   0.00000  Uiso   1.00
H665   H     0.23936   0.29580   0.69694   0.00000  Uiso   1.00
N666   N     0.04931   0.16666   0.74999   0.00000  Uiso   1.00
N667   N     0.28402   0.16669   0.75000   0.00000  Uiso   1.00
O668   O     0.12708   0.22678   0.75001   0.00000  Uiso   1.00
O669   O     0.20627   0.22679   0.75001   0.00000  Uiso   1.00
O670   O     0.10775   0.16665   0.82549   0.00000  Uiso   1.00
O671   O     0.18694   0.16666   0.82549   0.00000  Uiso   1.00
O672   O     0.12706   0.10654   0.75000   0.00000  Uiso   1.00
O673   O     0.20625   0.10655   0.75000   0.00000  Uiso   1.00
O674   O     0.14640   0.16667   0.67451   0.00000  Uiso   1.00
O675   O     0.22559   0.16668   0.67451   0.00000  Uiso   1.00
O676   O     0.24773   0.04226   0.68901   0.00000  Uiso   1.00
C677   C     0.23883   0.05784   0.64315   0.00000  Uiso   1.00
H678   H     0.26009   0.08690   0.63240   0.00000  Uiso   1.00
H679   H     0.19981   0.06602   0.64809   0.00000  Uiso   1.00
C680   C     0.25652   0.02726   0.59845   0.00000  Uiso   1.00
H681   H     0.29514   0.01872   0.59424   0.00000  Uiso   1.00
H682   H     0.23380   0.33215   0.60721   0.00000  Uiso   1.00
C683   C     0.25308   0.04587   0.54724   0.00000  Uiso   1.00
H684   H     0.21483   0.05506   0.55062   0.00000  Uiso   1.00
H685   H     0.26496   0.02273   0.51580   0.00000  Uiso   1.00
H686   H     0.27721   0.07338   0.53656   0.00000  Uiso   1.00
C687   C     0.08216   0.04025   0.81988   0.00000  Uiso   1.00
O688   O     0.08781   0.07035   0.84473   0.00000  Uiso   1.00
O689   O     0.03549   0.02325   0.82838   0.00000  Uiso   1.00
H690   H     0.00946   0.03911   0.85515   0.00000  Uiso   1.00
C691   C     0.50010   0.24587   0.74955   0.00000  Uiso   1.00
C692   C     0.48229   0.14343   0.98751   0.00000  Uiso   1.00
C693   C     0.49741   0.14428   0.93236   0.00000  Uiso   1.00
C694   C     0.51788   0.14987   0.51434   0.00000  Uiso   1.00
C695   C     0.56792   0.15333   0.98574   0.00000  Uiso   1.00
C696   C     0.58259   0.14559   0.93272   0.00000  Uiso   1.00
C697   C     0.54789   0.13943   0.90678   0.00000  Uiso   1.00
C698   C     0.50516   0.15515   0.56835   0.00000  Uiso   1.00
C699   C     0.58972   0.16822   0.56421   0.00000  Uiso   1.00
C700   C     0.46141   0.14937   0.90530   0.00000  Uiso   1.00
C701   C     0.54078   0.31206   0.72030   0.00000  Uiso   1.00
C702   C     0.47457   0.16136   0.84949   0.00000  Uiso   1.00
C703   C     0.54018   0.02153   0.71935   0.00000  Uiso   1.00
C704   C     0.49937   0.04266   0.75162   0.00000  Uiso   1.00
C705   C     0.45817   0.02046   0.78234   0.00000  Uiso   1.00
C706   C     0.45845   0.31096   0.77941   0.00000  Uiso   1.00
C707   C     0.49982   0.29034   0.74954   0.00000  Uiso   1.00
C708   C     0.63255   0.19051   0.78420   0.00000  Uiso   1.00
C709   C     0.34880   0.19045   0.78424   0.00000  Uiso   1.00
C710   C     0.36743   0.14277   0.71585   0.00000  Uiso   1.00
C711   C     0.65117   0.14278   0.71586   0.00000  Uiso   1.00
C712   C     0.49964   0.08742   0.75120   0.00000  Uiso   1.00
C713   C     0.52596   0.16639   0.65006   0.00000  Uiso   1.00
C714   C     0.60298   0.16377   0.51054   0.00000  Uiso   1.00
C715   C     0.54077   0.16345   0.59336   0.00000  Uiso   1.00
C716   C     0.41203   0.14298   0.93259   0.00000  Uiso   1.00
C717   C     0.39836   0.13395   0.98557   0.00000  Uiso   1.00
C718   C     0.43242   0.13595   0.51330   0.00000  Uiso   1.00
Cu719  Cu    0.45311   0.16666   0.75000   0.00000  Uiso   1.00
Cu720  Cu    0.54689   0.16667   0.75000   0.00000  Uiso   1.00
H721   H     0.61761   0.17552   0.58279   0.00000  Uiso   1.00
H722   H     0.42739   0.29338   0.80269   0.00000  Uiso   1.00
H723   H     0.60644   0.20964   0.81161   0.00000  Uiso   1.00
H724   H     0.35999   0.20954   0.81165   0.00000  Uiso   1.00
H725   H     0.39353   0.12357   0.68851   0.00000  Uiso   1.00
H726   H     0.63997   0.12363   0.68854   0.00000  Uiso   1.00
H727   H     0.62105   0.14432   0.91114   0.00000  Uiso   1.00
H728   H     0.64047   0.16905   0.98804   0.00000  Uiso   1.00
H729   H     0.46758   0.15357   0.59173   0.00000  Uiso   1.00
H730   H     0.38403   0.14408   0.91276   0.00000  Uiso   1.00
H731   H     0.41888   0.13011   0.55455   0.00000  Uiso   1.00
H732   H     0.36093   0.12617   0.50592   0.00000  Uiso   1.00
H733   H     0.56189   0.12948   0.86706   0.00000  Uiso   1.00
H734   H     0.57270   0.29580   0.69694   0.00000  Uiso   1.00
N735   N     0.38265   0.16666   0.74999   0.00000  Uiso   1.00
N736   N     0.61735   0.16669   0.75000   0.00000  Uiso   1.00
O737   O     0.46042   0.22678   0.75001   0.00000  Uiso   1.00
O738   O     0.53961   0.22679   0.75001   0.00000  Uiso   1.00
O739   O     0.44108   0.16665   0.82549   0.00000  Uiso   1.00
O740   O     0.52027   0.16666   0.82549   0.00000  Uiso   1.00
O741   O     0.46039   0.10654   0.75000   0.00000  Uiso   1.00
O742   O     0.53958   0.10655   0.75000   0.00000  Uiso   1.00
O743   O     0.47973   0.16667   0.67451   0.00000  Uiso   1.00
O744   O     0.55892   0.16668   0.67451   0.00000  Uiso   1.00
O745   O     0.58106   0.04226   0.68901   0.00000  Uiso   1.00
C746   C     0.57217   0.05784   0.64315   0.00000  Uiso   1.00
H747   H     0.59342   0.08690   0.63240   0.00000  Uiso   1.00
H748   H     0.53314   0.06602   0.64809   0.00000  Uiso   1.00
C749   C     0.58985   0.02726   0.59845   0.00000  Uiso   1.00
H750   H     0.62847   0.01872   0.59424   0.00000  Uiso   1.00
H751   H     0.56713   0.33215   0.60721   0.00000  Uiso   1.00
C752   C     0.58642   0.04587   0.54724   0.00000  Uiso   1.00
H753   H     0.54816   0.05506   0.55062   0.00000  Uiso   1.00
H754   H     0.59830   0.02273   0.51580   0.00000  Uiso   1.00
H755   H     0.61054   0.07338   0.53656   0.00000  Uiso   1.00
C756   C     0.41549   0.04025   0.81988   0.00000  Uiso   1.00
O757   O     0.42114   0.07035   0.84473   0.00000  Uiso   1.00
O758   O     0.36883   0.02325   0.82838   0.00000  Uiso   1.00
H759   H     0.34280   0.03911   0.85515   0.00000  Uiso   1.00
C760   C     0.83343   0.24587   0.74955   0.00000  Uiso   1.00
C761   C     0.81563   0.14343   0.98751   0.00000  Uiso   1.00
C762   C     0.83074   0.14428   0.93236   0.00000  Uiso   1.00
C763   C     0.85121   0.14987   0.51434   0.00000  Uiso   1.00
C764   C     0.90126   0.15333   0.98574   0.00000  Uiso   1.00
C765   C     0.91593   0.14559   0.93272   0.00000  Uiso   1.00
C766   C     0.88123   0.13943   0.90678   0.00000  Uiso   1.00
C767   C     0.83849   0.15515   0.56835   0.00000  Uiso   1.00
C768   C     0.92305   0.16822   0.56421   0.00000  Uiso   1.00
C769   C     0.79474   0.14937   0.90530   0.00000  Uiso   1.00
C770   C     0.87412   0.31206   0.72030   0.00000  Uiso   1.00
C771   C     0.80791   0.16136   0.84949   0.00000  Uiso   1.00
C772   C     0.87351   0.02153   0.71935   0.00000  Uiso   1.00
C773   C     0.83270   0.04266   0.75162   0.00000  Uiso   1.00
C774   C     0.79151   0.02046   0.78234   0.00000  Uiso   1.00
C775   C     0.79179   0.31096   0.77941   0.00000  Uiso   1.00
C776   C     0.83315   0.29034   0.74954   0.00000  Uiso   1.00
C777   C     0.96589   0.19051   0.78420   0.00000  Uiso   1.00
C778   C     0.68213   0.19045   0.78424   0.00000  Uiso   1.00
C779   C     0.70077   0.14277   0.71585   0.00000  Uiso   1.00
C780   C     0.98451   0.14278   0.71586   0.00000  Uiso   1.00
C781   C     0.83298   0.08742   0.75120   0.00000  Uiso   1.00
C782   C     0.85929   0.16639   0.65006   0.00000  Uiso   1.00
C783   C     0.93631   0.16377   0.51054   0.00000  Uiso   1.00
C784   C     0.87411   0.16345   0.59336   0.00000  Uiso   1.00
C785   C     0.74537   0.14298   0.93259   0.00000  Uiso   1.00
C786   C     0.73169   0.13395   0.98557   0.00000  Uiso   1.00
C787   C     0.76576   0.13595   0.51330   0.00000  Uiso   1.00
Cu788  Cu    0.78645   0.16666   0.75000   0.00000  Uiso   1.00
Cu789  Cu    0.88022   0.16667   0.75000   0.00000  Uiso   1.00
H790   H     0.95094   0.17552   0.58279   0.00000  Uiso   1.00
H791   H     0.76072   0.29338   0.80269   0.00000  Uiso   1.00
H792   H     0.93977   0.20964   0.81161   0.00000  Uiso   1.00
H793   H     0.69332   0.20954   0.81165   0.00000  Uiso   1.00
H794   H     0.72687   0.12357   0.68851   0.00000  Uiso   1.00
H795   H     0.97331   0.12363   0.68854   0.00000  Uiso   1.00
H796   H     0.95438   0.14432   0.91114   0.00000  Uiso   1.00
H797   H     0.97380   0.16905   0.98804   0.00000  Uiso   1.00
H798   H     0.80092   0.15357   0.59173   0.00000  Uiso   1.00
H799   H     0.71736   0.14408   0.91276   0.00000  Uiso   1.00
H800   H     0.75221   0.13011   0.55455   0.00000  Uiso   1.00
H801   H     0.69427   0.12617   0.50592   0.00000  Uiso   1.00
H802   H     0.89522   0.12948   0.86706   0.00000  Uiso   1.00
H803   H     0.90603   0.29580   0.69694   0.00000  Uiso   1.00
N804   N     0.71598   0.16666   0.74999   0.00000  Uiso   1.00
N805   N     0.95069   0.16669   0.75000   0.00000  Uiso   1.00
O806   O     0.79375   0.22678   0.75001   0.00000  Uiso   1.00
O807   O     0.87294   0.22679   0.75001   0.00000  Uiso   1.00
O808   O     0.77441   0.16665   0.82549   0.00000  Uiso   1.00
O809   O     0.85360   0.16666   0.82549   0.00000  Uiso   1.00
O810   O     0.79373   0.10654   0.75000   0.00000  Uiso   1.00
O811   O     0.87292   0.10655   0.75000   0.00000  Uiso   1.00
O812   O     0.81306   0.16667   0.67451   0.00000  Uiso   1.00
O813   O     0.89225   0.16668   0.67451   0.00000  Uiso   1.00
O814   O     0.91440   0.04226   0.68901   0.00000  Uiso   1.00
C815   C     0.90550   0.05784   0.64315   0.00000  Uiso   1.00
H816   H     0.92675   0.08690   0.63240   0.00000  Uiso   1.00
H817   H     0.86648   0.06602   0.64809   0.00000  Uiso   1.00
C818   C     0.92318   0.02726   0.59845   0.00000  Uiso   1.00
H819   H     0.96181   0.01872   0.59424   0.00000  Uiso   1.00
H820   H     0.90046   0.33215   0.60721   0.00000  Uiso   1.00
C821   C     0.91975   0.04587   0.54724   0.00000  Uiso   1.00
H822   H     0.88149   0.05506   0.55062   0.00000  Uiso   1.00
H823   H     0.93163   0.02273   0.51580   0.00000  Uiso   1.00
H824   H     0.94388   0.07338   0.53656   0.00000  Uiso   1.00
C825   C     0.74882   0.04025   0.81988   0.00000  Uiso   1.00
O826   O     0.75448   0.07035   0.84473   0.00000  Uiso   1.00
O827   O     0.70216   0.02325   0.82838   0.00000  Uiso   1.00
H828   H     0.67613   0.03911   0.85515   0.00000  Uiso   1.00
C829   C     0.16677   0.57920   0.74955   0.00000  Uiso   1.00
C830   C     0.14896   0.47676   0.98751   0.00000  Uiso   1.00
C831   C     0.16407   0.47761   0.93236   0.00000  Uiso   1.00
C832   C     0.18454   0.48320   0.51434   0.00000  Uiso   1.00
C833   C     0.23459   0.48666   0.98574   0.00000  Uiso   1.00
C834   C     0.24926   0.47893   0.93272   0.00000  Uiso   1.00
C835   C     0.21456   0.47276   0.90678   0.00000  Uiso   1.00
C836   C     0.17182   0.48849   0.56835   0.00000  Uiso   1.00
C837   C     0.25638   0.50155   0.56421   0.00000  Uiso   1.00
C838   C     0.12807   0.48270   0.90530   0.00000  Uiso   1.00
C839   C     0.20745   0.64539   0.72030   0.00000  Uiso   1.00
C840   C     0.14124   0.49469   0.84949   0.00000  Uiso   1.00
C841   C     0.20684   0.35487   0.71935   0.00000  Uiso   1.00
C842   C     0.16603   0.37599   0.75162   0.00000  Uiso   1.00
C843   C     0.12484   0.35379   0.78234   0.00000  Uiso   1.00
C844   C     0.12512   0.64430   0.77941   0.00000  Uiso   1.00
C845   C     0.16648   0.62367   0.74954   0.00000  Uiso   1.00
C846   C     0.29922   0.52384   0.78420   0.00000  Uiso   1.00
C847   C     0.01546   0.52378   0.78424   0.00000  Uiso   1.00
C848   C     0.03410   0.47610   0.71585   0.00000  Uiso   1.00
C849   C     0.31784   0.47612   0.71586   0.00000  Uiso   1.00
C850   C     0.16631   0.42075   0.75120   0.00000  Uiso   1.00
C851   C     0.19262   0.49973   0.65006   0.00000  Uiso   1.00
C852   C     0.26964   0.49710   0.51054   0.00000  Uiso   1.00
C853   C     0.20744   0.49678   0.59336   0.00000  Uiso   1.00
C854   C     0.07870   0.47631   0.93259   0.00000  Uiso   1.00
C855   C     0.06503   0.46728   0.98557   0.00000  Uiso   1.00
C856   C     0.09909   0.46928   0.51330   0.00000  Uiso   1.00
Cu857  Cu    0.11978   0.49999   0.75000   0.00000  Uiso   1.00
Cu858  Cu    0.21355   0.50001   0.75000   0.00000  Uiso   1.00
H859   H     0.28428   0.50886   0.58279   0.00000  Uiso   1.00
H860   H     0.09406   0.62671   0.80269   0.00000  Uiso   1.00
H861   H     0.27310   0.54297   0.81161   0.00000  Uiso   1.00
H862   H     0.02666   0.54288   0.81165   0.00000  Uiso   1.00
H863   H     0.06020   0.45691   0.68851   0.00000  Uiso   1.00
H864   H     0.30664   0.45696   0.68854   0.00000  Uiso   1.00
H865   H     0.28772   0.47765   0.91114   0.00000  Uiso   1.00
H866   H     0.30714   0.50238   0.98804   0.00000  Uiso   1.00
H867   H     0.13425   0.48691   0.59173   0.00000  Uiso   1.00
H868   H     0.05069   0.47742   0.91276   0.00000  Uiso   1.00
H869   H     0.08554   0.46344   0.55455   0.00000  Uiso   1.00
H870   H     0.02760   0.45950   0.50592   0.00000  Uiso   1.00
H871   H     0.22855   0.46282   0.86706   0.00000  Uiso   1.00
H872   H     0.23936   0.62913   0.69694   0.00000  Uiso   1.00
N873   N     0.04931   0.49999   0.74999   0.00000  Uiso   1.00
N874   N     0.28402   0.50002   0.75000   0.00000  Uiso   1.00
O875   O     0.12708   0.56011   0.75001   0.00000  Uiso   1.00
O876   O     0.20627   0.56012   0.75001   0.00000  Uiso   1.00
O877   O     0.10775   0.49998   0.82549   0.00000  Uiso   1.00
O878   O     0.18694   0.49999   0.82549   0.00000  Uiso   1.00
O879   O     0.12706   0.43988   0.75000   0.00000  Uiso   1.00
O880   O     0.20625   0.43989   0.75000   0.00000  Uiso   1.00
O881   O     0.14640   0.50001   0.67451   0.00000  Uiso   1.00
O882   O     0.22559   0.50002   0.67451   0.00000  Uiso   1.00
O883   O     0.24773   0.37559   0.68901   0.00000  Uiso   1.00
C884   C     0.23883   0.39117   0.64315   0.00000  Uiso   1.00
H885   H     0.26009   0.42023   0.63240   0.00000  Uiso   1.00
H886   H     0.19981   0.39936   0.64809   0.00000  Uiso   1.00
C887   C     0.25652   0.36059   0.59845   0.00000  Uiso   1.00
H888   H     0.29514   0.35205   0.59424   0.00000  Uiso   1.00
H889   H     0.23380   0.66548   0.60721   0.00000  Uiso   1.00
C890   C     0.25308   0.37921   0.54724   0.00000  Uiso   1.00
H891   H     0.21483   0.38840   0.55062   0.00000  Uiso   1.00
H892   H     0.26496   0.35606   0.51580   0.00000  Uiso   1.00
H893   H     0.27721   0.40671   0.53656   0.00000  Uiso   1.00
C894   C     0.08216   0.37358   0.81988   0.00000  Uiso   1.00
O895   O     0.08781   0.40369   0.84473   0.00000  Uiso   1.00
O896   O     0.03549   0.35659   0.82838   0.00000  Uiso   1.00
H897   H     0.00946   0.37244   0.85515   0.00000  Uiso   1.00
C898   C     0.50010   0.57920   0.74955   0.00000  Uiso   1.00
C899   C     0.48229   0.47676   0.98751   0.00000  Uiso   1.00
C900   C     0.49741   0.47761   0.93236   0.00000  Uiso   1.00
C901   C     0.51788   0.48320   0.51434   0.00000  Uiso   1.00
C902   C     0.56792   0.48666   0.98574   0.00000  Uiso   1.00
C903   C     0.58259   0.47893   0.93272   0.00000  Uiso   1.00
C904   C     0.54789   0.47276   0.90678   0.00000  Uiso   1.00
C905   C     0.50516   0.48849   0.56835   0.00000  Uiso   1.00
C906   C     0.58972   0.50155   0.56421   0.00000  Uiso   1.00
C907   C     0.46141   0.48270   0.90530   0.00000  Uiso   1.00
C908   C     0.54078   0.64539   0.72030   0.00000  Uiso   1.00
C909   C     0.47457   0.49469   0.84949   0.00000  Uiso   1.00
C910   C     0.54018   0.35487   0.71935   0.00000  Uiso   1.00
C911   C     0.49937   0.37599   0.75162   0.00000  Uiso   1.00
C912   C     0.45817   0.35379   0.78234   0.00000  Uiso   1.00
C913   C     0.45845   0.64430   0.77941   0.00000  Uiso   1.00
C914   C     0.49982   0.62367   0.74954   0.00000  Uiso   1.00
C915   C     0.63255   0.52384   0.78420   0.00000  Uiso   1.00
C916   C     0.34880   0.52378   0.78424   0.00000  Uiso   1.00
C917   C     0.36743   0.47610   0.71585   0.00000  Uiso   1.00
C918   C     0.65117   0.47612   0.71586   0.00000  Uiso   1.00
C919   C     0.49964   0.42075   0.75120   0.00000  Uiso   1.00
C920   C     0.52596   0.49973   0.65006   0.00000  Uiso   1.00
C921   C     0.60298   0.49710   0.51054   0.00000  Uiso   1.00
C922   C     0.54077   0.49678   0.59336   0.00000  Uiso   1.00
C923   C     0.41203   0.47631   0.93259   0.00000  Uiso   1.00
C924   C     0.39836   0.46728   0.98557   0.00000  Uiso   1.00
C925   C     0.43242   0.46928   0.51330   0.00000  Uiso   1.00
Cu926  Cu    0.45311   0.49999   0.75000   0.00000  Uiso   1.00
Cu927  Cu    0.54689   0.50001   0.75000   0.00000  Uiso   1.00
H928   H     0.61761   0.50886   0.58279   0.00000  Uiso   1.00
H929   H     0.42739   0.62671   0.80269   0.00000  Uiso   1.00
H930   H     0.60644   0.54297   0.81161   0.00000  Uiso   1.00
H931   H     0.35999   0.54288   0.81165   0.00000  Uiso   1.00
H932   H     0.39353   0.45691   0.68851   0.00000  Uiso   1.00
H933   H     0.63997   0.45696   0.68854   0.00000  Uiso   1.00
H934   H     0.62105   0.47765   0.91114   0.00000  Uiso   1.00
H935   H     0.64047   0.50238   0.98804   0.00000  Uiso   1.00
H936   H     0.46758   0.48691   0.59173   0.00000  Uiso   1.00
H937   H     0.38403   0.47742   0.91276   0.00000  Uiso   1.00
H938   H     0.41888   0.46344   0.55455   0.00000  Uiso   1.00
H939   H     0.36093   0.45950   0.50592   0.00000  Uiso   1.00
H940   H     0.56189   0.46282   0.86706   0.00000  Uiso   1.00
H941   H     0.57270   0.62913   0.69694   0.00000  Uiso   1.00
N942   N     0.38265   0.49999   0.74999   0.00000  Uiso   1.00
N943   N     0.61735   0.50002   0.75000   0.00000  Uiso   1.00
O944   O     0.46042   0.56011   0.75001   0.00000  Uiso   1.00
O945   O     0.53961   0.56012   0.75001   0.00000  Uiso   1.00
O946   O     0.44108   0.49998   0.82549   0.00000  Uiso   1.00
O947   O     0.52027   0.49999   0.82549   0.00000  Uiso   1.00
O948   O     0.46039   0.43988   0.75000   0.00000  Uiso   1.00
O949   O     0.53958   0.43989   0.75000   0.00000  Uiso   1.00
O950   O     0.47973   0.50001   0.67451   0.00000  Uiso   1.00
O951   O     0.55892   0.50002   0.67451   0.00000  Uiso   1.00
O952   O     0.58106   0.37559   0.68901   0.00000  Uiso   1.00
C953   C     0.57217   0.39117   0.64315   0.00000  Uiso   1.00
H954   H     0.59342   0.42023   0.63240   0.00000  Uiso   1.00
H955   H     0.53314   0.39936   0.64809   0.00000  Uiso   1.00
C956   C     0.58985   0.36059   0.59845   0.00000  Uiso   1.00
H957   H     0.62847   0.35205   0.59424   0.00000  Uiso   1.00
H958   H     0.56713   0.66548   0.60721   0.00000  Uiso   1.00
C959   C     0.58642   0.37921   0.54724   0.00000  Uiso   1.00
H960   H     0.54816   0.38840   0.55062   0.00000  Uiso   1.00
H961   H     0.59830   0.35606   0.51580   0.00000  Uiso   1.00
H962   H     0.61054   0.40671   0.53656   0.00000  Uiso   1.00
C963   C     0.41549   0.37358   0.81988   0.00000  Uiso   1.00
O964   O     0.42114   0.40369   0.84473   0.00000  Uiso   1.00
O965   O     0.36883   0.35659   0.82838   0.00000  Uiso   1.00
H966   H     0.34280   0.37244   0.85515   0.00000  Uiso   1.00
C967   C     0.83343   0.57920   0.74955   0.00000  Uiso   1.00
C968   C     0.81563   0.47676   0.98751   0.00000  Uiso   1.00
C969   C     0.83074   0.47761   0.93236   0.00000  Uiso   1.00
C970   C     0.85121   0.48320   0.51434   0.00000  Uiso   1.00
C971   C     0.90126   0.48666   0.98574   0.00000  Uiso   1.00
C972   C     0.91593   0.47893   0.93272   0.00000  Uiso   1.00
C973   C     0.88123   0.47276   0.90678   0.00000  Uiso   1.00
C974   C     0.83849   0.48849   0.56835   0.00000  Uiso   1.00
C975   C     0.92305   0.50155   0.56421   0.00000  Uiso   1.00
C976   C     0.79474   0.48270   0.90530   0.00000  Uiso   1.00
C977   C     0.87412   0.64539   0.72030   0.00000  Uiso   1.00
C978   C     0.80791   0.49469   0.84949   0.00000  Uiso   1.00
C979   C     0.87351   0.35487   0.71935   0.00000  Uiso   1.00
C980   C     0.83270   0.37599   0.75162   0.00000  Uiso   1.00
C981   C     0.79151   0.35379   0.78234   0.00000  Uiso   1.00
C982   C     0.79179   0.64430   0.77941   0.00000  Uiso   1.00
C983   C     0.83315   0.62367   0.74954   0.00000  Uiso   1.00
C984   C     0.96589   0.52384   0.78420   0.00000  Uiso   1.00
C985   C     0.68213   0.52378   0.78424   0.00000  Uiso   1.00
C986   C     0.70077   0.47610   0.71585   0.00000  Uiso   1.00
C987   C     0.98451   0.47612   0.71586   0.00000  Uiso   1.00
C988   C     0.83298   0.42075   0.75120   0.00000  Uiso   1.00
C989   C     0.85929   0.49973   0.65006   0.00000  Uiso   1.00
C990   C     0.93631   0.49710   0.51054   0.00000  Uiso   1.00
C991   C     0.87411   0.49678   0.59336   0.00000  Uiso   1.00
C992   C     0.74537   0.47631   0.93259   0.00000  Uiso   1.00
C993   C     0.73169   0.46728   0.98557   0.00000  Uiso   1.00
C994   C     0.76576   0.46928   0.51330   0.00000  Uiso   1.00
Cu995  Cu    0.78645   0.49999   0.75000   0.00000  Uiso   1.00
Cu996  Cu    0.88022   0.50001   0.75000   0.00000  Uiso   1.00
H997   H     0.95094   0.50886   0.58279   0.00000  Uiso   1.00
H998   H     0.76072   0.62671   0.80269   0.00000  Uiso   1.00
H999   H     0.93977   0.54297   0.81161   0.00000  Uiso   1.00
H1000  H     0.69332   0.54288   0.81165   0.00000  Uiso   1.00
H1001  H     0.72687   0.45691   0.68851   0.00000  Uiso   1.00
H1002  H     0.97331   0.45696   0.68854   0.00000  Uiso   1.00
H1003  H     0.95438   0.47765   0.91114   0.00000  Uiso   1.00
H1004  H     0.97380   0.50238   0.98804   0.00000  Uiso   1.00
H1005  H     0.80092   0.48691   0.59173   0.00000  Uiso   1.00
H1006  H     0.71736   0.47742   0.91276   0.00000  Uiso   1.00
H1007  H     0.75221   0.46344   0.55455   0.00000  Uiso   1.00
H1008  H     0.69427   0.45950   0.50592   0.00000  Uiso   1.00
H1009  H     0.89522   0.46282   0.86706   0.00000  Uiso   1.00
H1010  H     0.90603   0.62913   0.69694   0.00000  Uiso   1.00
N1011  N     0.71598   0.49999   0.74999   0.00000  Uiso   1.00
N1012  N     0.95069   0.50002   0.75000   0.00000  Uiso   1.00
O1013  O     0.79375   0.56011   0.75001   0.00000  Uiso   1.00
O1014  O     0.87294   0.56012   0.75001   0.00000  Uiso   1.00
O1015  O     0.77441   0.49998   0.82549   0.00000  Uiso   1.00
O1016  O     0.85360   0.49999   0.82549   0.00000  Uiso   1.00
O1017  O     0.79373   0.43988   0.75000   0.00000  Uiso   1.00
O1018  O     0.87292   0.43989   0.75000   0.00000  Uiso   1.00
O1019  O     0.81306   0.50001   0.67451   0.00000  Uiso   1.00
O1020  O     0.89225   0.50002   0.67451   0.00000  Uiso   1.00
O1021  O     0.91440   0.37559   0.68901   0.00000  Uiso   1.00
C1022  C     0.90550   0.39117   0.64315   0.00000  Uiso   1.00
H1023  H     0.92675   0.42023   0.63240   0.00000  Uiso   1.00
H1024  H     0.86648   0.39936   0.64809   0.00000  Uiso   1.00
C1025  C     0.92318   0.36059   0.59845   0.00000  Uiso   1.00
H1026  H     0.96181   0.35205   0.59424   0.00000  Uiso   1.00
H1027  H     0.90046   0.66548   0.60721   0.00000  Uiso   1.00
C1028  C     0.91975   0.37921   0.54724   0.00000  Uiso   1.00
H1029  H     0.88149   0.38840   0.55062   0.00000  Uiso   1.00
H1030  H     0.93163   0.35606   0.51580   0.00000  Uiso   1.00
H1031  H     0.94388   0.40671   0.53656   0.00000  Uiso   1.00
C1032  C     0.74882   0.37358   0.81988   0.00000  Uiso   1.00
O1033  O     0.75448   0.40369   0.84473   0.00000  Uiso   1.00
O1034  O     0.70216   0.35659   0.82838   0.00000  Uiso   1.00
H1035  H     0.67613   0.37244   0.85515   0.00000  Uiso   1.00
C1036  C     0.16677   0.91253   0.74955   0.00000  Uiso   1.00
C1037  C     0.14896   0.81009   0.98751   0.00000  Uiso   1.00
C1038  C     0.16407   0.81095   0.93236   0.00000  Uiso   1.00
C1039  C     0.18454   0.81653   0.51434   0.00000  Uiso   1.00
C1040  C     0.23459   0.81999   0.98574   0.00000  Uiso   1.00
C1041  C     0.24926   0.81226   0.93272   0.00000  Uiso   1.00
C1042  C     0.21456   0.80610   0.90678   0.00000  Uiso   1.00
C1043  C     0.17182   0.82182   0.56835   0.00000  Uiso   1.00
C1044  C     0.25638   0.83488   0.56421   0.00000  Uiso   1.00
C1045  C     0.12807   0.81603   0.90530   0.00000  Uiso   1.00
C1046  C     0.20745   0.97873   0.72030   0.00000  Uiso   1.00
C1047  C     0.14124   0.82802   0.84949   0.00000  Uiso   1.00
C1048  C     0.20684   0.68820   0.71935   0.00000  Uiso   1.00
C1049  C     0.16603   0.70933   0.75162   0.00000  Uiso   1.00
C1050  C     0.12484   0.68713   0.78234   0.00000  Uiso   1.00
C1051  C     0.12512   0.97763   0.77941   0.00000  Uiso   1.00
C1052  C     0.16648   0.95700   0.74954   0.00000  Uiso   1.00
C1053  C     0.29922   0.85717   0.78420   0.00000  Uiso   1.00
C1054  C     0.01546   0.85712   0.78424   0.00000  Uiso   1.00
C1055  C     0.03410   0.80944   0.71585   0.00000  Uiso   1.00
C1056  C     0.31784   0.80945   0.71586   0.00000  Uiso   1.00
C1057  C     0.16631   0.75408   0.75120   0.00000  Uiso   1.00
C1058  C     0.19262   0.83306   0.65006   0.00000  Uiso   1.00
C1059  C     0.26964   0.83044   0.51054   0.00000  Uiso   1.00
C1060  C     0.20744   0.83012   0.59336   0.00000  Uiso   1.00
C1061  C     0.07870   0.80965   0.93259   0.00000  Uiso   1.00
C1062  C     0.06503   0.80062   0.98557   0.00000  Uiso   1.00
C1063  C     0.09909   0.80262   0.51330   0.00000  Uiso   1.00
Cu1064 Cu    0.11978   0.83333   0.75000   0.00000  Uiso   1.00
Cu1065 Cu    0.21355   0.83334   0.75000   0.00000  Uiso   1.00
H1066  H     0.28428   0.84219   0.58279   0.00000  Uiso   1.00
H1067  H     0.09406   0.96004   0.80269   0.00000  Uiso   1.00
H1068  H     0.27310   0.87630   0.81161   0.00000  Uiso   1.00
H1069  H     0.02666   0.87621   0.81165   0.00000  Uiso   1.00
H1070  H     0.06020   0.79024   0.68851   0.00000  Uiso   1.00
H1071  H     0.30664   0.79029   0.68854   0.00000  Uiso   1.00
H1072  H     0.28772   0.81099   0.91114   0.00000  Uiso   1.00
H1073  H     0.30714   0.83571   0.98804   0.00000  Uiso   1.00
H1074  H     0.13425   0.82024   0.59173   0.00000  Uiso   1.00
H1075  H     0.05069   0.81075   0.91276   0.00000  Uiso   1.00
H1076  H     0.08554   0.79677   0.55455   0.00000  Uiso   1.00
H1077  H     0.02760   0.79283   0.50592   0.00000  Uiso   1.00
H1078  H     0.22855   0.79615   0.86706   0.00000  Uiso   1.00
H1079  H     0.23936   0.96246   0.69694   0.00000  Uiso   1.00
N1080  N     0.04931   0.83332   0.74999   0.00000  Uiso   1.00
N1081  N     0.28402   0.83335   0.75000   0.00000  Uiso   1.00
O1082  O     0.12708   0.89345   0.75001   0.00000  Uiso   1.00
O1083  O     0.20627   0.89346   0.75001   0.00000  Uiso   1.00
O1084  O     0.10775   0.83332   0.82549   0.00000  Uiso   1.00
O1085  O     0.18694   0.83333   0.82549   0.00000  Uiso   1.00
O1086  O     0.12706   0.77321   0.75000   0.00000  Uiso   1.00
O1087  O     0.20625   0.77322   0.75000   0.00000  Uiso   1.00
O1088  O     0.14640   0.83334   0.67451   0.00000  Uiso   1.00
O1089  O     0.22559   0.83335   0.67451   0.00000  Uiso   1.00
O1090  O     0.24773   0.70892   0.68901   0.00000  Uiso   1.00
C1091  C     0.23883   0.72450   0.64315   0.00000  Uiso   1.00
H1092  H     0.26009   0.75357   0.63240   0.00000  Uiso   1.00
H1093  H     0.19981   0.73269   0.64809   0.00000  Uiso   1.00
C1094  C     0.25652   0.69392   0.59845   0.00000  Uiso   1.00
H1095  H     0.29514   0.68538   0.59424   0.00000  Uiso   1.00
H1096  H     0.23380   0.99881   0.60721   0.00000  Uiso   1.00
C1097  C     0.25308   0.71254   0.54724   0.00000  Uiso   1.00
H1098  H     0.21483   0.72173   0.55062   0.00000  Uiso   1.00
H1099  H     0.26496   0.68940   0.51580   0.00000  Uiso   1.00
H1100  H     0.27721   0.74004   0.53656   0.00000  Uiso   1.00
C1101  C     0.08216   0.70692   0.81988   0.00000  Uiso   1.00
O1102  O     0.08781   0.73702   0.84473   0.00000  Uiso   1.00
O1103  O     0.03549   0.68992   0.82838   0.00000  Uiso   1.00
H1104  H     0.00946   0.70577   0.85515   0.00000  Uiso   1.00
C1105  C     0.50010   0.91253   0.74955   0.00000  Uiso   1.00
C1106  C     0.48229   0.81009   0.98751   0.00000  Uiso   1.00
C1107  C     0.49741   0.81095   0.93236   0.00000  Uiso   1.00
C1108  C     0.51788   0.81653   0.51434   0.00000  Uiso   1.00
C1109  C     0.56792   0.81999   0.98574   0.00000  Uiso   1.00
C1110  C     0.58259   0.81226   0.93272   0.00000  Uiso   1.00
C1111  C     0.54789   0.80610   0.90678   0.00000  Uiso   1.00
C1112  C     0.50516   0.82182   0.56835   0.00000  Uiso   1.00
C1113  C     0.58972   0.83488   0.56421   0.00000  Uiso   1.00
C1114  C     0.46141   0.81603   0.90530   0.00000  Uiso   1.00
C1115  C     0.54078   0.97873   0.72030   0.00000  Uiso   1.00
C1116  C     0.47457   0.82802   0.84949   0.00000  Uiso   1.00
C1117  C     0.54018   0.68820   0.71935   0.00000  Uiso   1.00
C1118  C     0.49937   0.70933   0.75162   0.00000  Uiso   1.00
C1119  C     0.45817   0.68713   0.78234   0.00000  Uiso   1.00
C1120  C     0.45845   0.97763   0.77941   0.00000  Uiso   1.00
C1121  C     0.49982   0.95700   0.74954   0.00000  Uiso   1.00
C1122  C     0.63255   0.85717   0.78420   0.00000  Uiso   1.00
C1123  C     0.34880   0.85712   0.78424   0.00000  Uiso   1.00
C1124  C     0.36743   0.80944   0.71585   0.00000  Uiso   1.00
C1125  C     0.65117   0.80945   0.71586   0.00000  Uiso   1.00
C1126  C     0.49964   0.75408   0.75120   0.00000  Uiso   1.00
C1127  C     0.52596   0.83306   0.65006   0.00000  Uiso   1.00
C1128  C     0.60298   0.83044   0.51054   0.00000  Uiso   1.00
C1129  C     0.54077   0.83012   0.59336   0.00000  Uiso   1.00
C1130  C     0.41203   0.80965   0.93259   0.00000  Uiso   1.00
C1131  C     0.39836   0.80062   0.98557   0.00000  Uiso   1.00
C1132  C     0.43242   0.80262   0.51330   0.00000  Uiso   1.00
Cu1133 Cu    0.45311   0.83333   0.75000   0.00000  Uiso   1.00
Cu1134 Cu    0.54689   0.83334   0.75000   0.00000  Uiso   1.00
H1135  H     0.61761   0.84219   0.58279   0.00000  Uiso   1.00
H1136  H     0.42739   0.96004   0.80269   0.00000  Uiso   1.00
H1137  H     0.60644   0.87630   0.81161   0.00000  Uiso   1.00
H1138  H     0.35999   0.87621   0.81165   0.00000  Uiso   1.00
H1139  H     0.39353   0.79024   0.68851   0.00000  Uiso   1.00
H1140  H     0.63997   0.79029   0.68854   0.00000  Uiso   1.00
H1141  H     0.62105   0.81099   0.91114   0.00000  Uiso   1.00
H1142  H     0.64047   0.83571   0.98804   0.00000  Uiso   1.00
H1143  H     0.46758   0.82024   0.59173   0.00000  Uiso   1.00
H1144  H     0.38403   0.81075   0.91276   0.00000  Uiso   1.00
H1145  H     0.41888   0.79677   0.55455   0.00000  Uiso   1.00
H1146  H     0.36093   0.79283   0.50592   0.00000  Uiso   1.00
H1147  H     0.56189   0.79615   0.86706   0.00000  Uiso   1.00
H1148  H     0.57270   0.96246   0.69694   0.00000  Uiso   1.00
N1149  N     0.38265   0.83332   0.74999   0.00000  Uiso   1.00
N1150  N     0.61735   0.83335   0.75000   0.00000  Uiso   1.00
O1151  O     0.46042   0.89345   0.75001   0.00000  Uiso   1.00
O1152  O     0.53961   0.89346   0.75001   0.00000  Uiso   1.00
O1153  O     0.44108   0.83332   0.82549   0.00000  Uiso   1.00
O1154  O     0.52027   0.83333   0.82549   0.00000  Uiso   1.00
O1155  O     0.46039   0.77321   0.75000   0.00000  Uiso   1.00
O1156  O     0.53958   0.77322   0.75000   0.00000  Uiso   1.00
O1157  O     0.47973   0.83334   0.67451   0.00000  Uiso   1.00
O1158  O     0.55892   0.83335   0.67451   0.00000  Uiso   1.00
O1159  O     0.58106   0.70892   0.68901   0.00000  Uiso   1.00
C1160  C     0.57217   0.72450   0.64315   0.00000  Uiso   1.00
H1161  H     0.59342   0.75357   0.63240   0.00000  Uiso   1.00
H1162  H     0.53314   0.73269   0.64809   0.00000  Uiso   1.00
C1163  C     0.58985   0.69392   0.59845   0.00000  Uiso   1.00
H1164  H     0.62847   0.68538   0.59424   0.00000  Uiso   1.00
H1165  H     0.56713   0.99881   0.60721   0.00000  Uiso   1.00
C1166  C     0.58642   0.71254   0.54724   0.00000  Uiso   1.00
H1167  H     0.54816   0.72173   0.55062   0.00000  Uiso   1.00
H1168  H     0.59830   0.68940   0.51580   0.00000  Uiso   1.00
H1169  H     0.61054   0.74004   0.53656   0.00000  Uiso   1.00
C1170  C     0.41549   0.70692   0.81988   0.00000  Uiso   1.00
O1171  O     0.42114   0.73702   0.84473   0.00000  Uiso   1.00
O1172  O     0.36883   0.68992   0.82838   0.00000  Uiso   1.00
H1173  H     0.34280   0.70577   0.85515   0.00000  Uiso   1.00
C1174  C     0.83343   0.91253   0.74955   0.00000  Uiso   1.00
C1175  C     0.81563   0.81009   0.98751   0.00000  Uiso   1.00
C1176  C     0.83074   0.81095   0.93236   0.00000  Uiso   1.00
C1177  C     0.85121   0.81653   0.51434   0.00000  Uiso   1.00
C1178  C     0.90126   0.81999   0.98574   0.00000  Uiso   1.00
C1179  C     0.91593   0.81226   0.93272   0.00000  Uiso   1.00
C1180  C     0.88123   0.80610   0.90678   0.00000  Uiso   1.00
C1181  C     0.83849   0.82182   0.56835   0.00000  Uiso   1.00
C1182  C     0.92305   0.83488   0.56421   0.00000  Uiso   1.00
C1183  C     0.79474   0.81603   0.90530   0.00000  Uiso   1.00
C1184  C     0.87412   0.97873   0.72030   0.00000  Uiso   1.00
C1185  C     0.80791   0.82802   0.84949   0.00000  Uiso   1.00
C1186  C     0.87351   0.68820   0.71935   0.00000  Uiso   1.00
C1187  C     0.83270   0.70933   0.75162   0.00000  Uiso   1.00
C1188  C     0.79151   0.68713   0.78234   0.00000  Uiso   1.00
C1189  C     0.79179   0.97763   0.77941   0.00000  Uiso   1.00
C1190  C     0.83315   0.95700   0.74954   0.00000  Uiso   1.00
C1191  C     0.96589   0.85717   0.78420   0.00000  Uiso   1.00
C1192  C     0.68213   0.85712   0.78424   0.00000  Uiso   1.00
C1193  C     0.70077   0.80944   0.71585   0.00000  Uiso   1.00
C1194  C     0.98451   0.80945   0.71586   0.00000  Uiso   1.00
C1195  C     0.83298   0.75408   0.75120   0.00000  Uiso   1.00
C1196  C     0.85929   0.83306   0.65006   0.00000  Uiso   1.00
C1197  C     0.93631   0.83044   0.51054   0.00000  Uiso   1.00
C1198  C     0.87411   0.83012   0.59336   0.00000  Uiso   1.00
C1199  C     0.74537   0.80965   0.93259   0.00000  Uiso   1.00
C1200  C     0.73169   0.80062   0.98557   0.00000  Uiso   1.00
C1201  C     0.76576   0.80262   0.51330   0.00000  Uiso   1.00
Cu1202 Cu    0.78645   0.83333   0.75000   0.00000  Uiso   1.00
Cu1203 Cu    0.88022   0.83334   0.75000   0.00000  Uiso   1.00
H1204  H     0.95094   0.84219   0.58279   0.00000  Uiso   1.00
H1205  H     0.76072   0.96004   0.80269   0.00000  Uiso   1.00
H1206  H     0.93977   0.87630   0.81161   0.00000  Uiso   1.00
H1207  H     0.69332   0.87621   0.81165   0.00000  Uiso   1.00
H1208  H     0.72687   0.79024   0.68851   0.00000  Uiso   1.00
H1209  H     0.97331   0.79029   0.68854   0.00000  Uiso   1.00
H1210  H     0.95438   0.81099   0.91114   0.00000  Uiso   1.00
H1211  H     0.97380   0.83571   0.98804   0.00000  Uiso   1.00
H1212  H     0.80092   0.82024   0.59173   0.00000  Uiso   1.00
H1213  H     0.71736   0.81075   0.91276   0.00000  Uiso   1.00
H1214  H     0.75221   0.79677   0.55455   0.00000  Uiso   1.00
H1215  H     0.69427   0.79283   0.50592   0.00000  Uiso   1.00
H1216  H     0.89522   0.79615   0.86706   0.00000  Uiso   1.00
H1217  H     0.90603   0.96246   0.69694   0.00000  Uiso   1.00
N1218  N     0.71598   0.83332   0.74999   0.00000  Uiso   1.00
N1219  N     0.95069   0.83335   0.75000   0.00000  Uiso   1.00
O1220  O     0.79375   0.89345   0.75001   0.00000  Uiso   1.00
O1221  O     0.87294   0.89346   0.75001   0.00000  Uiso   1.00
O1222  O     0.77441   0.83332   0.82549   0.00000  Uiso   1.00
O1223  O     0.85360   0.83333   0.82549   0.00000  Uiso   1.00
O1224  O     0.79373   0.77321   0.75000   0.00000  Uiso   1.00
O1225  O     0.87292   0.77322   0.75000   0.00000  Uiso   1.00
O1226  O     0.81306   0.83334   0.67451   0.00000  Uiso   1.00
O1227  O     0.89225   0.83335   0.67451   0.00000  Uiso   1.00
O1228  O     0.91440   0.70892   0.68901   0.00000  Uiso   1.00
C1229  C     0.90550   0.72450   0.64315   0.00000  Uiso   1.00
H1230  H     0.92675   0.75357   0.63240   0.00000  Uiso   1.00
H1231  H     0.86648   0.73269   0.64809   0.00000  Uiso   1.00
C1232  C     0.92318   0.69392   0.59845   0.00000  Uiso   1.00
H1233  H     0.96181   0.68538   0.59424   0.00000  Uiso   1.00
H1234  H     0.90046   0.99881   0.60721   0.00000  Uiso   1.00
C1235  C     0.91975   0.71254   0.54724   0.00000  Uiso   1.00
H1236  H     0.88149   0.72173   0.55062   0.00000  Uiso   1.00
H1237  H     0.93163   0.68940   0.51580   0.00000  Uiso   1.00
H1238  H     0.94388   0.74004   0.53656   0.00000  Uiso   1.00
C1239  C     0.74882   0.70692   0.81988   0.00000  Uiso   1.00
O1240  O     0.75448   0.73702   0.84473   0.00000  Uiso   1.00
O1241  O     0.70216   0.68992   0.82838   0.00000  Uiso   1.00
H1242  H     0.67613   0.70577   0.85515   0.00000  Uiso   1.00
loop_
_geom_bond_atom_site_label_1
_geom_bond_atom_site_label_2
_geom_bond_distance
_geom_bond_site_symmetry_2
_ccdc_geom_bond_type
C1     O48     1.290   .     A
C1     O47     1.289   .     A
C1     C17     1.440   .     S
C2     C3      1.418   .     A
C2     C625    1.423   .     S
C2     C649    1.412   .     S
C3     C10     1.431   .     A
C3     C7      1.416   .     A
C4     C8      1.401   .     A
C4     C623    1.423   1_554 S
C4     C626    1.418   1_554 S
C5     C6      1.388   .     A
C5     C625    1.418   .     S
C5     C645    1.397   .     S
C6     C7      1.383   .     A
C6     H37     1.085   .     S
C7     H43     1.077   .     S
C8     H39     1.076   .     S
C8     C25     1.400   .     A
C9     C25     1.399   .     A
C9     C24     1.389   .     A
C9     H31     1.083   .     S
C10    C12     1.485   .     S
C10    C26     1.403   .     A
C11    H44     1.084   .     S
C11    C17     1.394   .     A
C11    C220    1.387   .     S
C12    O50     1.289   .     A
C12    O49     1.311   .     A
C13    C14     1.415   .     A
C13    O55     1.386   .     S
C13    C425    1.387   1_545 S
C14    C22     1.450   .     S
C14    C15     1.419   .     A
C15    C66     1.487   .     S
C15    C430    1.390   1_545 S
C16    H32     1.085   .     S
C16    C17     1.394   .     A
C16    C222    1.390   .     S
C18    N46     1.368   .     A
C18    H33     1.082   .     S
C18    C88     1.417   .     S
C19    N45     1.367   .     A
C19    H34     1.082   .     S
C19    C156    1.417   1_455 S
C20    N45     1.368   .     A
C20    H35     1.082   .     S
C20    C159    1.417   1_455 S
C21    N46     1.367   .     A
C21    H36     1.081   .     S
C21    C89     1.417   .     S
C22    O52     1.291   .     A
C22    O51     1.290   .     A
C23    O53     1.294   .     A
C23    C25     1.461   .     S
C23    O54     1.296   .     A
C24    C626    1.397   1_554 S
C24    H659    1.080   1_554 S
C26    H40     1.083   .     S
C26    C27     1.391   .     A
C27    C649    1.389   .     S
C27    H663    1.080   .     S
C28    H41     1.078   .     S
C28    C648    1.389   1_554 S
C28    C623    1.412   1_554 S
Cu29   O49     1.956   .     S
Cu29   Cu30    2.680   .     S
Cu29   O47     1.958   .     S
Cu29   O51     1.958   .     S
Cu29   N45     2.014   .     S
Cu29   O53     1.948   .     S
Cu30   O50     1.948   .     S
Cu30   O54     1.956   .     S
Cu30   O48     1.958   .     S
Cu30   O52     1.958   .     S
Cu30   N46     2.014   .     S
H38    C645    1.080   .     S
H42    C648    1.080   1_554 S
O55    C56     1.418   .     S
C56    C59     1.531   .     S
C56    H58     1.116   .     S
C56    H57     1.111   .     S
C59    H60     1.112   .     S
C59    C62     1.527   .     S
C59    H475    1.111   1_545 S
H61    C266    1.111   .     S
C62    H64     1.110   .     S
C62    H63     1.111   .     S
C62    H65     1.111   .     S
C66    O68     1.399   .     S
C66    O67     1.222   .     D
O68    H69     1.014   .     S
C70    O117    1.290   .     A
C70    O116    1.289   .     A
C70    C86     1.440   .     S
C71    C72     1.418   .     A
C71    C694    1.423   .     S
C71    C718    1.412   .     S
C72    C79     1.431   .     A
C72    C76     1.416   .     A
C73    C77     1.401   .     A
C73    C692    1.423   1_554 S
C73    C695    1.418   1_554 S
C74    C75     1.388   .     A
C74    C694    1.418   .     S
C74    C714    1.397   .     S
C75    C76     1.383   .     A
C75    H106    1.085   .     S
C76    H112    1.077   .     S
C77    H108    1.076   .     S
C77    C94     1.400   .     A
C78    C94     1.399   .     A
C78    C93     1.389   .     A
C78    H100    1.083   .     S
C79    C81     1.485   .     S
C79    C95     1.403   .     A
C80    H113    1.084   .     S
C80    C86     1.394   .     A
C80    C289    1.387   .     S
C81    O119    1.289   .     A
C81    O118    1.311   .     A
C82    C83     1.415   .     A
C82    O124    1.386   .     S
C82    C494    1.387   1_545 S
C83    C91     1.450   .     S
C83    C84     1.419   .     A
C84    C135    1.487   .     S
C84    C499    1.390   1_545 S
C85    H101    1.085   .     S
C85    C86     1.394   .     A
C85    C291    1.390   .     S
C87    N115    1.368   .     A
C87    H102    1.082   .     S
C87    C157    1.417   .     S
C88    N114    1.367   .     A
C88    H103    1.082   .     S
C89    N114    1.368   .     A
C89    H104    1.082   .     S
C90    N115    1.367   .     A
C90    H105    1.081   .     S
C90    C158    1.417   .     S
C91    O121    1.291   .     A
C91    O120    1.290   .     A
C92    O122    1.294   .     A
C92    C94     1.461   .     S
C92    O123    1.296   .     A
C93    C695    1.397   1_554 S
C93    H728    1.080   1_554 S
C95    H109    1.083   .     S
C95    C96     1.391   .     A
C96    C718    1.389   .     S
C96    H732    1.080   .     S
C97    H110    1.078   .     S
C97    C717    1.389   1_554 S
C97    C692    1.412   1_554 S
Cu98   O118    1.956   .     S
Cu98   Cu99    2.680   .     S
Cu98   O116    1.958   .     S
Cu98   O120    1.958   .     S
Cu98   N114    2.014   .     S
Cu98   O122    1.948   .     S
Cu99   O119    1.948   .     S
Cu99   O123    1.956   .     S
Cu99   O117    1.958   .     S
Cu99   O121    1.958   .     S
Cu99   N115    2.014   .     S
H107   C714    1.080   .     S
H111   C717    1.080   1_554 S
O124   C125    1.418   .     S
C125   C128    1.531   .     S
C125   H127    1.116   .     S
C125   H126    1.111   .     S
C128   H129    1.112   .     S
C128   C131    1.527   .     S
C128   H544    1.111   1_545 S
H130   C335    1.111   .     S
C131   H133    1.110   .     S
C131   H132    1.111   .     S
C131   H134    1.111   .     S
C135   O137    1.399   .     S
C135   O136    1.222   .     D
O137   H138    1.014   .     S
C139   O186    1.290   .     A
C139   O185    1.289   .     A
C139   C155    1.440   .     S
C140   C141    1.418   .     A
C140   C763    1.423   .     S
C140   C787    1.412   .     S
C141   C148    1.431   .     A
C141   C145    1.416   .     A
C142   C146    1.401   .     A
C142   C761    1.423   1_554 S
C142   C764    1.418   1_554 S
C143   C144    1.388   .     A
C143   C763    1.418   .     S
C143   C783    1.397   .     S
C144   C145    1.383   .     A
C144   H175    1.085   .     S
C145   H181    1.077   .     S
C146   H177    1.076   .     S
C146   C163    1.400   .     A
C147   C163    1.399   .     A
C147   C162    1.389   .     A
C147   H169    1.083   .     S
C148   C150    1.485   .     S
C148   C164    1.403   .     A
C149   H182    1.084   .     S
C149   C155    1.394   .     A
C149   C358    1.387   .     S
C150   O188    1.289   .     A
C150   O187    1.311   .     A
C151   C152    1.415   .     A
C151   O193    1.386   .     S
C151   C563    1.387   1_545 S
C152   C160    1.450   .     S
C152   C153    1.419   .     A
C153   C204    1.487   .     S
C153   C568    1.390   1_545 S
C154   H170    1.085   .     S
C154   C155    1.394   .     A
C154   C360    1.390   .     S
C156   N184    1.368   .     A
C156   H171    1.082   .     S
C156   C19     1.417   1_655 S
C157   N183    1.367   .     A
C157   H172    1.082   .     S
C158   N183    1.368   .     A
C158   H173    1.082   .     S
C159   N184    1.367   .     A
C159   H174    1.081   .     S
C159   C20     1.417   1_655 S
C160   O190    1.291   .     A
C160   O189    1.290   .     A
C161   O191    1.294   .     A
C161   C163    1.461   .     S
C161   O192    1.296   .     A
C162   C764    1.397   1_554 S
C162   H797    1.080   1_554 S
C164   H178    1.083   .     S
C164   C165    1.391   .     A
C165   C787    1.389   .     S
C165   H801    1.080   .     S
C166   H179    1.078   .     S
C166   C786    1.389   1_554 S
C166   C761    1.412   1_554 S
Cu167  O187    1.956   .     S
Cu167  Cu168   2.680   .     S
Cu167  O185    1.958   .     S
Cu167  O189    1.958   .     S
Cu167  N183    2.014   .     S
Cu167  O191    1.948   .     S
Cu168  O188    1.948   .     S
Cu168  O192    1.956   .     S
Cu168  O186    1.958   .     S
Cu168  O190    1.958   .     S
Cu168  N184    2.014   .     S
H176   C783    1.080   .     S
H180   C786    1.080   1_554 S
O193   C194    1.418   .     S
C194   C197    1.531   .     S
C194   H196    1.116   .     S
C194   H195    1.111   .     S
C197   H198    1.112   .     S
C197   C200    1.527   .     S
C197   H613    1.111   1_545 S
H199   C404    1.111   .     S
C200   H202    1.110   .     S
C200   H201    1.111   .     S
C200   H203    1.111   .     S
C204   O206    1.399   .     S
C204   O205    1.222   .     D
O206   H207    1.014   .     S
C208   O255    1.290   .     A
C208   O254    1.289   .     A
C208   C224    1.440   .     S
C209   C210    1.418   .     A
C209   C832    1.423   .     S
C209   C856    1.412   .     S
C210   C217    1.431   .     A
C210   C214    1.416   .     A
C211   C215    1.401   .     A
C211   C830    1.423   1_554 S
C211   C833    1.418   1_554 S
C212   C213    1.388   .     A
C212   C832    1.418   .     S
C212   C852    1.397   .     S
C213   C214    1.383   .     A
C213   H244    1.085   .     S
C214   H250    1.077   .     S
C215   H246    1.076   .     S
C215   C232    1.400   .     A
C216   C232    1.399   .     A
C216   C231    1.389   .     A
C216   H238    1.083   .     S
C217   C219    1.485   .     S
C217   C233    1.403   .     A
C218   H251    1.084   .     S
C218   C224    1.394   .     A
C218   C427    1.387   .     S
C219   O257    1.289   .     A
C219   O256    1.311   .     A
C220   C221    1.415   .     A
C220   O262    1.386   .     S
C221   C229    1.450   .     S
C221   C222    1.419   .     A
C222   C273    1.487   .     S
C223   H239    1.085   .     S
C223   C224    1.394   .     A
C223   C429    1.390   .     S
C225   N253    1.368   .     A
C225   H240    1.082   .     S
C225   C295    1.417   .     S
C226   N252    1.367   .     A
C226   H241    1.082   .     S
C226   C363    1.417   1_455 S
C227   N252    1.368   .     A
C227   H242    1.082   .     S
C227   C366    1.417   1_455 S
C228   N253    1.367   .     A
C228   H243    1.081   .     S
C228   C296    1.417   .     S
C229   O259    1.291   .     A
C229   O258    1.290   .     A
C230   O260    1.294   .     A
C230   C232    1.461   .     S
C230   O261    1.296   .     A
C231   C833    1.397   1_554 S
C231   H866    1.080   1_554 S
C233   H247    1.083   .     S
C233   C234    1.391   .     A
C234   C856    1.389   .     S
C234   H870    1.080   .     S
C235   H248    1.078   .     S
C235   C855    1.389   1_554 S
C235   C830    1.412   1_554 S
Cu236  O256    1.956   .     S
Cu236  Cu237   2.680   .     S
Cu236  O254    1.958   .     S
Cu236  O258    1.958   .     S
Cu236  N252    2.014   .     S
Cu236  O260    1.948   .     S
Cu237  O257    1.948   .     S
Cu237  O261    1.956   .     S
Cu237  O255    1.958   .     S
Cu237  O259    1.958   .     S
Cu237  N253    2.014   .     S
H245   C852    1.080   .     S
H249   C855    1.080   1_554 S
O262   C263    1.418   .     S
C263   C266    1.531   .     S
C263   H265    1.116   .     S
C263   H264    1.111   .     S
C266   H267    1.112   .     S
C266   C269    1.527   .     S
H268   C473    1.111   .     S
C269   H271    1.110   .     S
C269   H270    1.111   .     S
C269   H272    1.111   .     S
C273   O275    1.399   .     S
C273   O274    1.222   .     D
O275   H276    1.014   .     S
C277   O324    1.290   .     A
C277   O323    1.289   .     A
C277   C293    1.440   .     S
C278   C279    1.418   .     A
C278   C901    1.423   .     S
C278   C925    1.412   .     S
C279   C286    1.431   .     A
C279   C283    1.416   .     A
C280   C284    1.401   .     A
C280   C899    1.423   1_554 S
C280   C902    1.418   1_554 S
C281   C282    1.388   .     A
C281   C901    1.418   .     S
C281   C921    1.397   .     S
C282   C283    1.383   .     A
C282   H313    1.085   .     S
C283   H319    1.077   .     S
C284   H315    1.076   .     S
C284   C301    1.400   .     A
C285   C301    1.399   .     A
C285   C300    1.389   .     A
C285   H307    1.083   .     S
C286   C288    1.485   .     S
C286   C302    1.403   .     A
C287   H320    1.084   .     S
C287   C293    1.394   .     A
C287   C496    1.387   .     S
C288   O326    1.289   .     A
C288   O325    1.311   .     A
C289   C290    1.415   .     A
C289   O331    1.386   .     S
C290   C298    1.450   .     S
C290   C291    1.419   .     A
C291   C342    1.487   .     S
C292   H308    1.085   .     S
C292   C293    1.394   .     A
C292   C498    1.390   .     S
C294   N322    1.368   .     A
C294   H309    1.082   .     S
C294   C364    1.417   .     S
C295   N321    1.367   .     A
C295   H310    1.082   .     S
C296   N321    1.368   .     A
C296   H311    1.082   .     S
C297   N322    1.367   .     A
C297   H312    1.081   .     S
C297   C365    1.417   .     S
C298   O328    1.291   .     A
C298   O327    1.290   .     A
C299   O329    1.294   .     A
C299   C301    1.461   .     S
C299   O330    1.296   .     A
C300   C902    1.397   1_554 S
C300   H935    1.080   1_554 S
C302   H316    1.083   .     S
C302   C303    1.391   .     A
C303   C925    1.389   .     S
C303   H939    1.080   .     S
C304   H317    1.078   .     S
C304   C924    1.389   1_554 S
C304   C899    1.412   1_554 S
Cu305  O325    1.956   .     S
Cu305  Cu306   2.680   .     S
Cu305  O323    1.958   .     S
Cu305  O327    1.958   .     S
Cu305  N321    2.014   .     S
Cu305  O329    1.948   .     S
Cu306  O326    1.948   .     S
Cu306  O330    1.956   .     S
Cu306  O324    1.958   .     S
Cu306  O328    1.958   .     S
Cu306  N322    2.014   .     S
H314   C921    1.080   .     S
H318   C924    1.080   1_554 S
O331   C332    1.418   .     S
C332   C335    1.531   .     S
C332   H334    1.116   .     S
C332   H333    1.111   .     S
C335   H336    1.112   .     S
C335   C338    1.527   .     S
H337   C542    1.111   .     S
C338   H340    1.110   .     S
C338   H339    1.111   .     S
C338   H341    1.111   .     S
C342   O344    1.399   .     S
C342   O343    1.222   .     D
O344   H345    1.014   .     S
C346   O393    1.290   .     A
C346   O392    1.289   .     A
C346   C362    1.440   .     S
C347   C348    1.418   .     A
C347   C970    1.423   .     S
C347   C994    1.412   .     S
C348   C355    1.431   .     A
C348   C352    1.416   .     A
C349   C353    1.401   .     A
C349   C968    1.423   1_554 S
C349   C971    1.418   1_554 S
C350   C351    1.388   .     A
C350   C970    1.418   .     S
C350   C990    1.397   .     S
C351   C352    1.383   .     A
C351   H382    1.085   .     S
C352   H388    1.077   .     S
C353   H384    1.076   .     S
C353   C370    1.400   .     A
C354   C370    1.399   .     A
C354   C369    1.389   .     A
C354   H376    1.083   .     S
C355   C357    1.485   .     S
C355   C371    1.403   .     A
C356   H389    1.084   .     S
C356   C362    1.394   .     A
C356   C565    1.387   .     S
C357   O395    1.289   .     A
C357   O394    1.311   .     A
C358   C359    1.415   .     A
C358   O400    1.386   .     S
C359   C367    1.450   .     S
C359   C360    1.419   .     A
C360   C411    1.487   .     S
C361   H377    1.085   .     S
C361   C362    1.394   .     A
C361   C567    1.390   .     S
C363   N391    1.368   .     A
C363   H378    1.082   .     S
C363   C226    1.417   1_655 S
C364   N390    1.367   .     A
C364   H379    1.082   .     S
C365   N390    1.368   .     A
C365   H380    1.082   .     S
C366   N391    1.367   .     A
C366   H381    1.081   .     S
C366   C227    1.417   1_655 S
C367   O397    1.291   .     A
C367   O396    1.290   .     A
C368   O398    1.294   .     A
C368   C370    1.461   .     S
C368   O399    1.296   .     A
C369   C971    1.397   1_554 S
C369   H1004   1.080   1_554 S
C371   H385    1.083   .     S
C371   C372    1.391   .     A
C372   C994    1.389   .     S
C372   H1008   1.080   .     S
C373   H386    1.078   .     S
C373   C993    1.389   1_554 S
C373   C968    1.412   1_554 S
Cu374  O394    1.956   .     S
Cu374  Cu375   2.680   .     S
Cu374  O392    1.958   .     S
Cu374  O396    1.958   .     S
Cu374  N390    2.014   .     S
Cu374  O398    1.948   .     S
Cu375  O395    1.948   .     S
Cu375  O399    1.956   .     S
Cu375  O393    1.958   .     S
Cu375  O397    1.958   .     S
Cu375  N391    2.014   .     S
H383   C990    1.080   .     S
H387   C993    1.080   1_554 S
O400   C401    1.418   .     S
C401   C404    1.531   .     S
C401   H403    1.116   .     S
C401   H402    1.111   .     S
C404   H405    1.112   .     S
C404   C407    1.527   .     S
H406   C611    1.111   .     S
C407   H409    1.110   .     S
C407   H408    1.111   .     S
C407   H410    1.111   .     S
C411   O413    1.399   .     S
C411   O412    1.222   .     D
O413   H414    1.014   .     S
C415   O462    1.290   .     A
C415   O461    1.289   .     A
C415   C431    1.440   .     S
C416   C417    1.418   .     A
C416   C1039   1.423   .     S
C416   C1063   1.412   .     S
C417   C424    1.431   .     A
C417   C421    1.416   .     A
C418   C422    1.401   .     A
C418   C1037   1.423   1_554 S
C418   C1040   1.418   1_554 S
C419   C420    1.388   .     A
C419   C1039   1.418   .     S
C419   C1059   1.397   .     S
C420   C421    1.383   .     A
C420   H451    1.085   .     S
C421   H457    1.077   .     S
C422   H453    1.076   .     S
C422   C439    1.400   .     A
C423   C439    1.399   .     A
C423   C438    1.389   .     A
C423   H445    1.083   .     S
C424   C426    1.485   .     S
C424   C440    1.403   .     A
C425   H458    1.084   .     S
C425   C431    1.394   .     A
C425   C13     1.387   1_565 S
C426   O464    1.289   .     A
C426   O463    1.311   .     A
C427   C428    1.415   .     A
C427   O469    1.386   .     S
C428   C436    1.450   .     S
C428   C429    1.419   .     A
C429   C480    1.487   .     S
C430   H446    1.085   .     S
C430   C431    1.394   .     A
C430   C15     1.390   1_565 S
C432   N460    1.368   .     A
C432   H447    1.082   .     S
C432   C502    1.417   .     S
C433   N459    1.367   .     A
C433   H448    1.082   .     S
C433   C570    1.417   1_455 S
C434   N459    1.368   .     A
C434   H449    1.082   .     S
C434   C573    1.417   1_455 S
C435   N460    1.367   .     A
C435   H450    1.081   .     S
C435   C503    1.417   .     S
C436   O466    1.291   .     A
C436   O465    1.290   .     A
C437   O467    1.294   .     A
C437   C439    1.461   .     S
C437   O468    1.296   .     A
C438   C1040   1.397   1_554 S
C438   H1073   1.080   1_554 S
C440   H454    1.083   .     S
C440   C441    1.391   .     A
C441   C1063   1.389   .     S
C441   H1077   1.080   .     S
C442   H455    1.078   .     S
C442   C1062   1.389   1_554 S
C442   C1037   1.412   1_554 S
Cu443  O463    1.956   .     S
Cu443  Cu444   2.680   .     S
Cu443  O461    1.958   .     S
Cu443  O465    1.958   .     S
Cu443  N459    2.014   .     S
Cu443  O467    1.948   .     S
Cu444  O464    1.948   .     S
Cu444  O468    1.956   .     S
Cu444  O462    1.958   .     S
Cu444  O466    1.958   .     S
Cu444  N460    2.014   .     S
H452   C1059   1.080   .     S
H456   C1062   1.080   1_554 S
O469   C470    1.418   .     S
C470   C473    1.531   .     S
C470   H472    1.116   .     S
C470   H471    1.111   .     S
C473   H474    1.112   .     S
C473   C476    1.527   .     S
H475   C59     1.111   1_565 S
C476   H478    1.110   .     S
C476   H477    1.111   .     S
C476   H479    1.111   .     S
C480   O482    1.399   .     S
C480   O481    1.222   .     D
O482   H483    1.014   .     S
C484   O531    1.290   .     A
C484   O530    1.289   .     A
C484   C500    1.440   .     S
C485   C486    1.418   .     A
C485   C1108   1.423   .     S
C485   C1132   1.412   .     S
C486   C493    1.431   .     A
C486   C490    1.416   .     A
C487   C491    1.401   .     A
C487   C1106   1.423   1_554 S
C487   C1109   1.418   1_554 S
C488   C489    1.388   .     A
C488   C1108   1.418   .     S
C488   C1128   1.397   .     S
C489   C490    1.383   .     A
C489   H520    1.085   .     S
C490   H526    1.077   .     S
C491   H522    1.076   .     S
C491   C508    1.400   .     A
C492   C508    1.399   .     A
C492   C507    1.389   .     A
C492   H514    1.083   .     S
C493   C495    1.485   .     S
C493   C509    1.403   .     A
C494   H527    1.084   .     S
C494   C500    1.394   .     A
C494   C82     1.387   1_565 S
C495   O533    1.289   .     A
C495   O532    1.311   .     A
C496   C497    1.415   .     A
C496   O538    1.386   .     S
C497   C505    1.450   .     S
C497   C498    1.419   .     A
C498   C549    1.487   .     S
C499   H515    1.085   .     S
C499   C500    1.394   .     A
C499   C84     1.390   1_565 S
C501   N529    1.368   .     A
C501   H516    1.082   .     S
C501   C571    1.417   .     S
C502   N528    1.367   .     A
C502   H517    1.082   .     S
C503   N528    1.368   .     A
C503   H518    1.082   .     S
C504   N529    1.367   .     A
C504   H519    1.081   .     S
C504   C572    1.417   .     S
C505   O535    1.291   .     A
C505   O534    1.290   .     A
C506   O536    1.294   .     A
C506   C508    1.461   .     S
C506   O537    1.296   .     A
C507   C1109   1.397   1_554 S
C507   H1142   1.080   1_554 S
C509   H523    1.083   .     S
C509   C510    1.391   .     A
C510   C1132   1.389   .     S
C510   H1146   1.080   .     S
C511   H524    1.078   .     S
C511   C1131   1.389   1_554 S
C511   C1106   1.412   1_554 S
Cu512  O532    1.956   .     S
Cu512  Cu513   2.680   .     S
Cu512  O530    1.958   .     S
Cu512  O534    1.958   .     S
Cu512  N528    2.014   .     S
Cu512  O536    1.948   .     S
Cu513  O533    1.948   .     S
Cu513  O537    1.956   .     S
Cu513  O531    1.958   .     S
Cu513  O535    1.958   .     S
Cu513  N529    2.014   .     S
H521   C1128   1.080   .     S
H525   C1131   1.080   1_554 S
O538   C539    1.418   .     S
C539   C542    1.531   .     S
C539   H541    1.116   .     S
C539   H540    1.111   .     S
C542   H543    1.112   .     S
C542   C545    1.527   .     S
H544   C128    1.111   1_565 S
C545   H547    1.110   .     S
C545   H546    1.111   .     S
C545   H548    1.111   .     S
C549   O551    1.399   .     S
C549   O550    1.222   .     D
O551   H552    1.014   .     S
C553   O600    1.290   .     A
C553   O599    1.289   .     A
C553   C569    1.440   .     S
C554   C555    1.418   .     A
C554   C1177   1.423   .     S
C554   C1201   1.412   .     S
C555   C562    1.431   .     A
C555   C559    1.416   .     A
C556   C560    1.401   .     A
C556   C1175   1.423   1_554 S
C556   C1178   1.418   1_554 S
C557   C558    1.388   .     A
C557   C1177   1.418   .     S
C557   C1197   1.397   .     S
C558   C559    1.383   .     A
C558   H589    1.085   .     S
C559   H595    1.077   .     S
C560   H591    1.076   .     S
C560   C577    1.400   .     A
C561   C577    1.399   .     A
C561   C576    1.389   .     A
C561   H583    1.083   .     S
C562   C564    1.485   .     S
C562   C578    1.403   .     A
C563   H596    1.084   .     S
C563   C569    1.394   .     A
C563   C151    1.387   1_565 S
C564   O602    1.289   .     A
C564   O601    1.311   .     A
C565   C566    1.415   .     A
C565   O607    1.386   .     S
C566   C574    1.450   .     S
C566   C567    1.419   .     A
C567   C618    1.487   .     S
C568   H584    1.085   .     S
C568   C569    1.394   .     A
C568   C153    1.390   1_565 S
C570   N598    1.368   .     A
C570   H585    1.082   .     S
C570   C433    1.417   1_655 S
C571   N597    1.367   .     A
C571   H586    1.082   .     S
C572   N597    1.368   .     A
C572   H587    1.082   .     S
C573   N598    1.367   .     A
C573   H588    1.081   .     S
C573   C434    1.417   1_655 S
C574   O604    1.291   .     A
C574   O603    1.290   .     A
C575   O605    1.294   .     A
C575   C577    1.461   .     S
C575   O606    1.296   .     A
C576   C1178   1.397   1_554 S
C576   H1211   1.080   1_554 S
C578   H592    1.083   .     S
C578   C579    1.391   .     A
C579   C1201   1.389   .     S
C579   H1215   1.080   .     S
C580   H593    1.078   .     S
C580   C1200   1.389   1_554 S
C580   C1175   1.412   1_554 S
Cu581  O601    1.956   .     S
Cu581  Cu582   2.680   .     S
Cu581  O599    1.958   .     S
Cu581  O603    1.958   .     S
Cu581  N597    2.014   .     S
Cu581  O605    1.948   .     S
Cu582  O602    1.948   .     S
Cu582  O606    1.956   .     S
Cu582  O600    1.958   .     S
Cu582  O604    1.958   .     S
Cu582  N598    2.014   .     S
H590   C1197   1.080   .     S
H594   C1200   1.080   1_554 S
O607   C608    1.418   .     S
C608   C611    1.531   .     S
C608   H610    1.116   .     S
C608   H609    1.111   .     S
C611   H612    1.112   .     S
C611   C614    1.527   .     S
H613   C197    1.111   1_565 S
C614   H616    1.110   .     S
C614   H615    1.111   .     S
C614   H617    1.111   .     S
C618   O620    1.399   .     S
C618   O619    1.222   .     D
O620   H621    1.014   .     S
C622   O669    1.290   .     A
C622   O668    1.289   .     A
C622   C638    1.440   .     S
C623   C624    1.418   .     A
C623   C4      1.423   1_556 S
C623   C28     1.412   1_556 S
C624   C631    1.431   .     A
C624   C628    1.416   .     A
C625   C629    1.401   .     A
C626   C627    1.388   .     A
C626   C4      1.418   1_556 S
C626   C24     1.397   1_556 S
C627   C628    1.383   .     A
C627   H658    1.085   .     S
C628   H664    1.077   .     S
C629   H660    1.076   .     S
C629   C646    1.400   .     A
C630   C646    1.399   .     A
C630   C645    1.389   .     A
C630   H652    1.083   .     S
C631   C633    1.485   .     S
C631   C647    1.403   .     A
C632   H665    1.084   .     S
C632   C638    1.394   .     A
C632   C841    1.387   .     S
C633   O671    1.289   .     A
C633   O670    1.311   .     A
C634   C635    1.415   .     A
C634   O676    1.386   .     S
C634   C1046   1.387   1_545 S
C635   C643    1.450   .     S
C635   C636    1.419   .     A
C636   C687    1.487   .     S
C636   C1051   1.390   1_545 S
C637   H653    1.085   .     S
C637   C638    1.394   .     A
C637   C843    1.390   .     S
C639   N667    1.368   .     A
C639   H654    1.082   .     S
C639   C709    1.417   .     S
C640   N666    1.367   .     A
C640   H655    1.082   .     S
C640   C777    1.417   1_455 S
C641   N666    1.368   .     A
C641   H656    1.082   .     S
C641   C780    1.417   1_455 S
C642   N667    1.367   .     A
C642   H657    1.081   .     S
C642   C710    1.417   .     S
C643   O673    1.291   .     A
C643   O672    1.290   .     A
C644   O674    1.294   .     A
C644   C646    1.461   .     S
C644   O675    1.296   .     A
C647   H661    1.083   .     S
C647   C648    1.391   .     A
C648   C28     1.389   1_556 S
C648   H42     1.080   1_556 S
C649   H662    1.078   .     S
Cu650  O670    1.956   .     S
Cu650  Cu651   2.680   .     S
Cu650  O668    1.958   .     S
Cu650  O672    1.958   .     S
Cu650  N666    2.014   .     S
Cu650  O674    1.948   .     S
Cu651  O671    1.948   .     S
Cu651  O675    1.956   .     S
Cu651  O669    1.958   .     S
Cu651  O673    1.958   .     S
Cu651  N667    2.014   .     S
H659   C24     1.080   1_556 S
O676   C677    1.418   .     S
C677   C680    1.531   .     S
C677   H679    1.116   .     S
C677   H678    1.111   .     S
C680   H681    1.112   .     S
C680   C683    1.527   .     S
C680   H1096   1.111   1_545 S
H682   C887    1.111   .     S
C683   H685    1.110   .     S
C683   H684    1.111   .     S
C683   H686    1.111   .     S
C687   O689    1.399   .     S
C687   O688    1.222   .     D
O689   H690    1.014   .     S
C691   O738    1.290   .     A
C691   O737    1.289   .     A
C691   C707    1.440   .     S
C692   C693    1.418   .     A
C692   C73     1.423   1_556 S
C692   C97     1.412   1_556 S
C693   C700    1.431   .     A
C693   C697    1.416   .     A
C694   C698    1.401   .     A
C695   C696    1.388   .     A
C695   C73     1.418   1_556 S
C695   C93     1.397   1_556 S
C696   C697    1.383   .     A
C696   H727    1.085   .     S
C697   H733    1.077   .     S
C698   H729    1.076   .     S
C698   C715    1.400   .     A
C699   C715    1.399   .     A
C699   C714    1.389   .     A
C699   H721    1.083   .     S
C700   C702    1.485   .     S
C700   C716    1.403   .     A
C701   H734    1.084   .     S
C701   C707    1.394   .     A
C701   C910    1.387   .     S
C702   O740    1.289   .     A
C702   O739    1.311   .     A
C703   C704    1.415   .     A
C703   O745    1.386   .     S
C703   C1115   1.387   1_545 S
C704   C712    1.450   .     S
C704   C705    1.419   .     A
C705   C756    1.487   .     S
C705   C1120   1.390   1_545 S
C706   H722    1.085   .     S
C706   C707    1.394   .     A
C706   C912    1.390   .     S
C708   N736    1.368   .     A
C708   H723    1.082   .     S
C708   C778    1.417   .     S
C709   N735    1.367   .     A
C709   H724    1.082   .     S
C710   N735    1.368   .     A
C710   H725    1.082   .     S
C711   N736    1.367   .     A
C711   H726    1.081   .     S
C711   C779    1.417   .     S
C712   O742    1.291   .     A
C712   O741    1.290   .     A
C713   O743    1.294   .     A
C713   C715    1.461   .     S
C713   O744    1.296   .     A
C716   H730    1.083   .     S
C716   C717    1.391   .     A
C717   C97     1.389   1_556 S
C717   H111    1.080   1_556 S
C718   H731    1.078   .     S
Cu719  O739    1.956   .     S
Cu719  Cu720   2.680   .     S
Cu719  O737    1.958   .     S
Cu719  O741    1.958   .     S
Cu719  N735    2.014   .     S
Cu719  O743    1.948   .     S
Cu720  O740    1.948   .     S
Cu720  O744    1.956   .     S
Cu720  O738    1.958   .     S
Cu720  O742    1.958   .     S
Cu720  N736    2.014   .     S
H728   C93     1.080   1_556 S
O745   C746    1.418   .     S
C746   C749    1.531   .     S
C746   H748    1.116   .     S
C746   H747    1.111   .     S
C749   H750    1.112   .     S
C749   C752    1.527   .     S
C749   H1165   1.111   1_545 S
H751   C956    1.111   .     S
C752   H754    1.110   .     S
C752   H753    1.111   .     S
C752   H755    1.111   .     S
C756   O758    1.399   .     S
C756   O757    1.222   .     D
O758   H759    1.014   .     S
C760   O807    1.290   .     A
C760   O806    1.289   .     A
C760   C776    1.440   .     S
C761   C762    1.418   .     A
C761   C142    1.423   1_556 S
C761   C166    1.412   1_556 S
C762   C769    1.431   .     A
C762   C766    1.416   .     A
C763   C767    1.401   .     A
C764   C765    1.388   .     A
C764   C142    1.418   1_556 S
C764   C162    1.397   1_556 S
C765   C766    1.383   .     A
C765   H796    1.085   .     S
C766   H802    1.077   .     S
C767   H798    1.076   .     S
C767   C784    1.400   .     A
C768   C784    1.399   .     A
C768   C783    1.389   .     A
C768   H790    1.083   .     S
C769   C771    1.485   .     S
C769   C785    1.403   .     A
C770   H803    1.084   .     S
C770   C776    1.394   .     A
C770   C979    1.387   .     S
C771   O809    1.289   .     A
C771   O808    1.311   .     A
C772   C773    1.415   .     A
C772   O814    1.386   .     S
C772   C1184   1.387   1_545 S
C773   C781    1.450   .     S
C773   C774    1.419   .     A
C774   C825    1.487   .     S
C774   C1189   1.390   1_545 S
C775   H791    1.085   .     S
C775   C776    1.394   .     A
C775   C981    1.390   .     S
C777   N805    1.368   .     A
C777   H792    1.082   .     S
C777   C640    1.417   1_655 S
C778   N804    1.367   .     A
C778   H793    1.082   .     S
C779   N804    1.368   .     A
C779   H794    1.082   .     S
C780   N805    1.367   .     A
C780   H795    1.081   .     S
C780   C641    1.417   1_655 S
C781   O811    1.291   .     A
C781   O810    1.290   .     A
C782   O812    1.294   .     A
C782   C784    1.461   .     S
C782   O813    1.296   .     A
C785   H799    1.083   .     S
C785   C786    1.391   .     A
C786   C166    1.389   1_556 S
C786   H180    1.080   1_556 S
C787   H800    1.078   .     S
Cu788  O808    1.956   .     S
Cu788  Cu789   2.680   .     S
Cu788  O806    1.958   .     S
Cu788  O810    1.958   .     S
Cu788  N804    2.014   .     S
Cu788  O812    1.948   .     S
Cu789  O809    1.948   .     S
Cu789  O813    1.956   .     S
Cu789  O807    1.958   .     S
Cu789  O811    1.958   .     S
Cu789  N805    2.014   .     S
H797   C162    1.080   1_556 S
O814   C815    1.418   .     S
C815   C818    1.531   .     S
C815   H817    1.116   .     S
C815   H816    1.111   .     S
C818   H819    1.112   .     S
C818   C821    1.527   .     S
C818   H1234   1.111   1_545 S
H820   C1025   1.111   .     S
C821   H823    1.110   .     S
C821   H822    1.111   .     S
C821   H824    1.111   .     S
C825   O827    1.399   .     S
C825   O826    1.222   .     D
O827   H828    1.014   .     S
C829   O876    1.290   .     A
C829   O875    1.289   .     A
C829   C845    1.440   .     S
C830   C831    1.418   .     A
C830   C211    1.423   1_556 S
C830   C235    1.412   1_556 S
C831   C838    1.431   .     A
C831   C835    1.416   .     A
C832   C836    1.401   .     A
C833   C834    1.388   .     A
C833   C211    1.418   1_556 S
C833   C231    1.397   1_556 S
C834   C835    1.383   .     A
C834   H865    1.085   .     S
C835   H871    1.077   .     S
C836   H867    1.076   .     S
C836   C853    1.400   .     A
C837   C853    1.399   .     A
C837   C852    1.389   .     A
C837   H859    1.083   .     S
C838   C840    1.485   .     S
C838   C854    1.403   .     A
C839   H872    1.084   .     S
C839   C845    1.394   .     A
C839   C1048   1.387   .     S
C840   O878    1.289   .     A
C840   O877    1.311   .     A
C841   C842    1.415   .     A
C841   O883    1.386   .     S
C842   C850    1.450   .     S
C842   C843    1.419   .     A
C843   C894    1.487   .     S
C844   H860    1.085   .     S
C844   C845    1.394   .     A
C844   C1050   1.390   .     S
C846   N874    1.368   .     A
C846   H861    1.082   .     S
C846   C916    1.417   .     S
C847   N873    1.367   .     A
C847   H862    1.082   .     S
C847   C984    1.417   1_455 S
C848   N873    1.368   .     A
C848   H863    1.082   .     S
C848   C987    1.417   1_455 S
C849   N874    1.367   .     A
C849   H864    1.081   .     S
C849   C917    1.417   .     S
C850   O880    1.291   .     A
C850   O879    1.290   .     A
C851   O881    1.294   .     A
C851   C853    1.461   .     S
C851   O882    1.296   .     A
C854   H868    1.083   .     S
C854   C855    1.391   .     A
C855   C235    1.389   1_556 S
C855   H249    1.080   1_556 S
C856   H869    1.078   .     S
Cu857  O877    1.956   .     S
Cu857  Cu858   2.680   .     S
Cu857  O875    1.958   .     S
Cu857  O879    1.958   .     S
Cu857  N873    2.014   .     S
Cu857  O881    1.948   .     S
Cu858  O878    1.948   .     S
Cu858  O882    1.956   .     S
Cu858  O876    1.958   .     S
Cu858  O880    1.958   .     S
Cu858  N874    2.014   .     S
H866   C231    1.080   1_556 S
O883   C884    1.418   .     S
C884   C887    1.531   .     S
C884   H886    1.116   .     S
C884   H885    1.111   .     S
C887   H888    1.112   .     S
C887   C890    1.527   .     S
H889   C1094   1.111   .     S
C890   H892    1.110   .     S
C890   H891    1.111   .     S
C890   H893    1.111   .     S
C894   O896    1.399   .     S
C894   O895    1.222   .     D
O896   H897    1.014   .     S
C898   O945    1.290   .     A
C898   O944    1.289   .     A
C898   C914    1.440   .     S
C899   C900    1.418   .     A
C899   C280    1.423   1_556 S
C899   C304    1.412   1_556 S
C900   C907    1.431   .     A
C900   C904    1.416   .     A
C901   C905    1.401   .     A
C902   C903    1.388   .     A
C902   C280    1.418   1_556 S
C902   C300    1.397   1_556 S
C903   C904    1.383   .     A
C903   H934    1.085   .     S
C904   H940    1.077   .     S
C905   H936    1.076   .     S
C905   C922    1.400   .     A
C906   C922    1.399   .     A
C906   C921    1.389   .     A
C906   H928    1.083   .     S
C907   C909    1.485   .     S
C907   C923    1.403   .     A
C908   H941    1.084   .     S
C908   C914    1.394   .     A
C908   C1117   1.387   .     S
C909   O947    1.289   .     A
C909   O946    1.311   .     A
C910   C911    1.415   .     A
C910   O952    1.386   .     S
C911   C919    1.450   .     S
C911   C912    1.419   .     A
C912   C963    1.487   .     S
C913   H929    1.085   .     S
C913   C914    1.394   .     A
C913   C1119   1.390   .     S
C915   N943    1.368   .     A
C915   H930    1.082   .     S
C915   C985    1.417   .     S
C916   N942    1.367   .     A
C916   H931    1.082   .     S
C917   N942    1.368   .     A
C917   H932    1.082   .     S
C918   N943    1.367   .     A
C918   H933    1.081   .     S
C918   C986    1.417   .     S
C919   O949    1.291   .     A
C919   O948    1.290   .     A
C920   O950    1.294   .     A
C920   C922    1.461   .     S
C920   O951    1.296   .     A
C923   H937    1.083   .     S
C923   C924    1.391   .     A
C924   C304    1.389   1_556 S
C924   H318    1.080   1_556 S
C925   H938    1.078   .     S
Cu926  O946    1.956   .     S
Cu926  Cu927   2.680   .     S
Cu926  O944    1.958   .     S
Cu926  O948    1.958   .     S
Cu926  N942    2.014   .     S
Cu926  O950    1.948   .     S
Cu927  O947    1.948   .     S
Cu927  O951    1.956   .     S
Cu927  O945    1.958   .     S
Cu927  O949    1.958   .     S
Cu927  N943    2.014   .     S
H935   C300    1.080   1_556 S
O952   C953    1.418   .     S
C953   C956    1.531   .     S
C953   H955    1.116   .     S
C953   H954    1.111   .     S
C956   H957    1.112   .     S
C956   C959    1.527   .     S
H958   C1163   1.111   .     S
C959   H961    1.110   .     S
C959   H960    1.111   .     S
C959   H962    1.111   .     S
C963   O965    1.399   .     S
C963   O964    1.222   .     D
O965   H966    1.014   .     S
C967   O1014   1.290   .     A
C967   O1013   1.289   .     A
C967   C983    1.440   .     S
C968   C969    1.418   .     A
C968   C349    1.423   1_556 S
C968   C373    1.412   1_556 S
C969   C976    1.431   .     A
C969   C973    1.416   .     A
C970   C974    1.401   .     A
C971   C972    1.388   .     A
C971   C349    1.418   1_556 S
C971   C369    1.397   1_556 S
C972   C973    1.383   .     A
C972   H1003   1.085   .     S
C973   H1009   1.077   .     S
C974   H1005   1.076   .     S
C974   C991    1.400   .     A
C975   C991    1.399   .     A
C975   C990    1.389   .     A
C975   H997    1.083   .     S
C976   C978    1.485   .     S
C976   C992    1.403   .     A
C977   H1010   1.084   .     S
C977   C983    1.394   .     A
C977   C1186   1.387   .     S
C978   O1016   1.289   .     A
C978   O1015   1.311   .     A
C979   C980    1.415   .     A
C979   O1021   1.386   .     S
C980   C988    1.450   .     S
C980   C981    1.419   .     A
C981   C1032   1.487   .     S
C982   H998    1.085   .     S
C982   C983    1.394   .     A
C982   C1188   1.390   .     S
C984   N1012   1.368   .     A
C984   H999    1.082   .     S
C984   C847    1.417   1_655 S
C985   N1011   1.367   .     A
C985   H1000   1.082   .     S
C986   N1011   1.368   .     A
C986   H1001   1.082   .     S
C987   N1012   1.367   .     A
C987   H1002   1.081   .     S
C987   C848    1.417   1_655 S
C988   O1018   1.291   .     A
C988   O1017   1.290   .     A
C989   O1019   1.294   .     A
C989   C991    1.461   .     S
C989   O1020   1.296   .     A
C992   H1006   1.083   .     S
C992   C993    1.391   .     A
C993   C373    1.389   1_556 S
C993   H387    1.080   1_556 S
C994   H1007   1.078   .     S
Cu995  O1015   1.956   .     S
Cu995  Cu996   2.680   .     S
Cu995  O1013   1.958   .     S
Cu995  O1017   1.958   .     S
Cu995  N1011   2.014   .     S
Cu995  O1019   1.948   .     S
Cu996  O1016   1.948   .     S
Cu996  O1020   1.956   .     S
Cu996  O1014   1.958   .     S
Cu996  O1018   1.958   .     S
Cu996  N1012   2.014   .     S
H1004  C369    1.080   1_556 S
O1021  C1022   1.418   .     S
C1022  C1025   1.531   .     S
C1022  H1024   1.116   .     S
C1022  H1023   1.111   .     S
C1025  H1026   1.112   .     S
C1025  C1028   1.527   .     S
H1027  C1232   1.111   .     S
C1028  H1030   1.110   .     S
C1028  H1029   1.111   .     S
C1028  H1031   1.111   .     S
C1032  O1034   1.399   .     S
C1032  O1033   1.222   .     D
O1034  H1035   1.014   .     S
C1036  O1083   1.290   .     A
C1036  O1082   1.289   .     A
C1036  C1052   1.440   .     S
C1037  C1038   1.418   .     A
C1037  C418    1.423   1_556 S
C1037  C442    1.412   1_556 S
C1038  C1045   1.431   .     A
C1038  C1042   1.416   .     A
C1039  C1043   1.401   .     A
C1040  C1041   1.388   .     A
C1040  C418    1.418   1_556 S
C1040  C438    1.397   1_556 S
C1041  C1042   1.383   .     A
C1041  H1072   1.085   .     S
C1042  H1078   1.077   .     S
C1043  H1074   1.076   .     S
C1043  C1060   1.400   .     A
C1044  C1060   1.399   .     A
C1044  C1059   1.389   .     A
C1044  H1066   1.083   .     S
C1045  C1047   1.485   .     S
C1045  C1061   1.403   .     A
C1046  H1079   1.084   .     S
C1046  C1052   1.394   .     A
C1046  C634    1.387   1_565 S
C1047  O1085   1.289   .     A
C1047  O1084   1.311   .     A
C1048  C1049   1.415   .     A
C1048  O1090   1.386   .     S
C1049  C1057   1.450   .     S
C1049  C1050   1.419   .     A
C1050  C1101   1.487   .     S
C1051  H1067   1.085   .     S
C1051  C1052   1.394   .     A
C1051  C636    1.390   1_565 S
C1053  N1081   1.368   .     A
C1053  H1068   1.082   .     S
C1053  C1123   1.417   .     S
C1054  N1080   1.367   .     A
C1054  H1069   1.082   .     S
C1054  C1191   1.417   1_455 S
C1055  N1080   1.368   .     A
C1055  H1070   1.082   .     S
C1055  C1194   1.417   1_455 S
C1056  N1081   1.367   .     A
C1056  H1071   1.081   .     S
C1056  C1124   1.417   .     S
C1057  O1087   1.291   .     A
C1057  O1086   1.290   .     A
C1058  O1088   1.294   .     A
C1058  C1060   1.461   .     S
C1058  O1089   1.296   .     A
C1061  H1075   1.083   .     S
C1061  C1062   1.391   .     A
C1062  C442    1.389   1_556 S
C1062  H456    1.080   1_556 S
C1063  H1076   1.078   .     S
Cu1064 O1084   1.956   .     S
Cu1064 Cu1065  2.680   .     S
Cu1064 O1082   1.958   .     S
Cu1064 O1086   1.958   .     S
Cu1064 N1080   2.014   .     S
Cu1064 O1088   1.948   .     S
Cu1065 O1085   1.948   .     S
Cu1065 O1089   1.956   .     S
Cu1065 O1083   1.958   .     S
Cu1065 O1087   1.958   .     S
Cu1065 N1081   2.014   .     S
H1073  C438    1.080   1_556 S
O1090  C1091   1.418   .     S
C1091  C1094   1.531   .     S
C1091  H1093   1.116   .     S
C1091  H1092   1.111   .     S
C1094  H1095   1.112   .     S
C1094  C1097   1.527   .     S
H1096  C680    1.111   1_565 S
C1097  H1099   1.110   .     S
C1097  H1098   1.111   .     S
C1097  H1100   1.111   .     S
C1101  O1103   1.399   .     S
C1101  O1102   1.222   .     D
O1103  H1104   1.014   .     S
C1105  O1152   1.290   .     A
C1105  O1151   1.289   .     A
C1105  C1121   1.440   .     S
C1106  C1107   1.418   .     A
C1106  C487    1.423   1_556 S
C1106  C511    1.412   1_556 S
C1107  C1114   1.431   .     A
C1107  C1111   1.416   .     A
C1108  C1112   1.401   .     A
C1109  C1110   1.388   .     A
C1109  C487    1.418   1_556 S
C1109  C507    1.397   1_556 S
C1110  C1111   1.383   .     A
C1110  H1141   1.085   .     S
C1111  H1147   1.077   .     S
C1112  H1143   1.076   .     S
C1112  C1129   1.400   .     A
C1113  C1129   1.399   .     A
C1113  C1128   1.389   .     A
C1113  H1135   1.083   .     S
C1114  C1116   1.485   .     S
C1114  C1130   1.403   .     A
C1115  H1148   1.084   .     S
C1115  C1121   1.394   .     A
C1115  C703    1.387   1_565 S
C1116  O1154   1.289   .     A
C1116  O1153   1.311   .     A
C1117  C1118   1.415   .     A
C1117  O1159   1.386   .     S
C1118  C1126   1.450   .     S
C1118  C1119   1.419   .     A
C1119  C1170   1.487   .     S
C1120  H1136   1.085   .     S
C1120  C1121   1.394   .     A
C1120  C705    1.390   1_565 S
C1122  N1150   1.368   .     A
C1122  H1137   1.082   .     S
C1122  C1192   1.417   .     S
C1123  N1149   1.367   .     A
C1123  H1138   1.082   .     S
C1124  N1149   1.368   .     A
C1124  H1139   1.082   .     S
C1125  N1150   1.367   .     A
C1125  H1140   1.081   .     S
C1125  C1193   1.417   .     S
C1126  O1156   1.291   .     A
C1126  O1155   1.290   .     A
C1127  O1157   1.294   .     A
C1127  C1129   1.461   .     S
C1127  O1158   1.296   .     A
C1130  H1144   1.083   .     S
C1130  C1131   1.391   .     A
C1131  C511    1.389   1_556 S
C1131  H525    1.080   1_556 S
C1132  H1145   1.078   .     S
Cu1133 O1153   1.956   .     S
Cu1133 Cu1134  2.680   .     S
Cu1133 O1151   1.958   .     S
Cu1133 O1155   1.958   .     S
Cu1133 N1149   2.014   .     S
Cu1133 O1157   1.948   .     S
Cu1134 O1154   1.948   .     S
Cu1134 O1158   1.956   .     S
Cu1134 O1152   1.958   .     S
Cu1134 O1156   1.958   .     S
Cu1134 N1150   2.014   .     S
H1142  C507    1.080   1_556 S
O1159  C1160   1.418   .     S
C1160  C1163   1.531   .     S
C1160  H1162   1.116   .     S
C1160  H1161   1.111   .     S
C1163  H1164   1.112   .     S
C1163  C1166   1.527   .     S
H1165  C749    1.111   1_565 S
C1166  H1168   1.110   .     S
C1166  H1167   1.111   .     S
C1166  H1169   1.111   .     S
C1170  O1172   1.399   .     S
C1170  O1171   1.222   .     D
O1172  H1173   1.014   .     S
C1174  O1221   1.290   .     A
C1174  O1220   1.289   .     A
C1174  C1190   1.440   .     S
C1175  C1176   1.418   .     A
C1175  C556    1.423   1_556 S
C1175  C580    1.412   1_556 S
C1176  C1183   1.431   .     A
C1176  C1180   1.416   .     A
C1177  C1181   1.401   .     A
C1178  C1179   1.388   .     A
C1178  C556    1.418   1_556 S
C1178  C576    1.397   1_556 S
C1179  C1180   1.383   .     A
C1179  H1210   1.085   .     S
C1180  H1216   1.077   .     S
C1181  H1212   1.076   .     S
C1181  C1198   1.400   .     A
C1182  C1198   1.399   .     A
C1182  C1197   1.389   .     A
C1182  H1204   1.083   .     S
C1183  C1185   1.485   .     S
C1183  C1199   1.403   .     A
C1184  H1217   1.084   .     S
C1184  C1190   1.394   .     A
C1184  C772    1.387   1_565 S
C1185  O1223   1.289   .     A
C1185  O1222   1.311   .     A
C1186  C1187   1.415   .     A
C1186  O1228   1.386   .     S
C1187  C1195   1.450   .     S
C1187  C1188   1.419   .     A
C1188  C1239   1.487   .     S
C1189  H1205   1.085   .     S
C1189  C1190   1.394   .     A
C1189  C774    1.390   1_565 S
C1191  N1219   1.368   .     A
C1191  H1206   1.082   .     S
C1191  C1054   1.417   1_655 S
C1192  N1218   1.367   .     A
C1192  H1207   1.082   .     S
C1193  N1218   1.368   .     A
C1193  H1208   1.082   .     S
C1194  N1219   1.367   .     A
C1194  H1209   1.081   .     S
C1194  C1055   1.417   1_655 S
C1195  O1225   1.291   .     A
C1195  O1224   1.290   .     A
C1196  O1226   1.294   .     A
C1196  C1198   1.461   .     S
C1196  O1227   1.296   .     A
C1199  H1213   1.083   .     S
C1199  C1200   1.391   .     A
C1200  C580    1.389   1_556 S
C1200  H594    1.080   1_556 S
C1201  H1214   1.078   .     S
Cu1202 O1222   1.956   .     S
Cu1202 Cu1203  2.680   .     S
Cu1202 O1220   1.958   .     S
Cu1202 O1224   1.958   .     S
Cu1202 N1218   2.014   .     S
Cu1202 O1226   1.948   .     S
Cu1203 O1223   1.948   .     S
Cu1203 O1227   1.956   .     S
Cu1203 O1221   1.958   .     S
Cu1203 O1225   1.958   .     S
Cu1203 N1219   2.014   .     S
H1211  C576    1.080   1_556 S
O1228  C1229   1.418   .     S
C1229  C1232   1.531   .     S
C1229  H1231   1.116   .     S
C1229  H1230   1.111   .     S
C1232  H1233   1.112   .     S
C1232  C1235   1.527   .     S
H1234  C818    1.111   1_565 S
C1235  H1237   1.110   .     S
C1235  H1236   1.111   .     S
C1235  H1238   1.111   .     S
C1239  O1241   1.399   .     S
C1239  O1240   1.222   .     D
O1241  H1242   1.014   .     S
