data_str_m2_o1_o18_pcu_sym.108
_audit_creation_date              2020-01-03
_audit_creation_method            'Materials Studio'
_symmetry_space_group_name_H-M    'P1'
_symmetry_Int_Tables_number       1
_symmetry_cell_setting            triclinic
loop_
_symmetry_equiv_pos_as_xyz
  x,y,z
_cell_length_a                    28.8209
_cell_length_b                    32.4427
_cell_length_c                    31.2990
_cell_angle_alpha                 88.2203
_cell_angle_beta                  73.4545
_cell_angle_gamma                 91.0478
loop_
_atom_site_label
_atom_site_type_symbol
_atom_site_fract_x
_atom_site_fract_y
_atom_site_fract_z
_atom_site_U_iso_or_equiv
_atom_site_adp_type
_atom_site_occupancy
C1     C     0.33295   0.08745   0.25033   0.00000  Uiso   1.00
C2     C     0.00028   0.24589   0.24994   0.00000  Uiso   1.00
C3     C     0.19259   0.19497   0.04267   0.00000  Uiso   1.00
C4     C     0.13762   0.16871   0.45262   0.00000  Uiso   1.00
C5     C     0.24107   0.20062   0.01916   0.00000  Uiso   1.00
C6     C     0.08908   0.16337   0.47583   0.00000  Uiso   1.00
C7     C     0.29627   0.02102   0.23863   0.00000  Uiso   1.00
C8     C     0.03630   0.31231   0.26267   0.00000  Uiso   1.00
C9     C     0.29680   0.31171   0.23821   0.00000  Uiso   1.00
C10    C     0.03592   0.02163   0.26285   0.00000  Uiso   1.00
C11    C     0.00028   0.29056   0.25007   0.00000  Uiso   1.00
C12    C     0.33262   0.04278   0.25075   0.00000  Uiso   1.00
C13    C     0.18228   0.13682   0.27424   0.00000  Uiso   1.00
C14    C     0.15092   0.19681   0.22608   0.00000  Uiso   1.00
C15    C     0.13350   0.13666   0.27252   0.00000  Uiso   1.00
C16    C     0.20004   0.19638   0.22702   0.00000  Uiso   1.00
C17    C     0.30586   0.16758   0.33578   0.00000  Uiso   1.00
C18    C     0.02749   0.16675   0.16414   0.00000  Uiso   1.00
C19    C     0.29044   0.17318   0.38403   0.00000  Uiso   1.00
C20    C     0.04278   0.16705   0.11522   0.00000  Uiso   1.00
C21    C     0.30639   0.19663   0.45120   0.00000  Uiso   1.00
C22    C     0.02493   0.15863   0.04500   0.00000  Uiso   1.00
C23    C     0.32303   0.18741   0.40634   0.00000  Uiso   1.00
C24    C     0.00931   0.15987   0.09127   0.00000  Uiso   1.00
C25    C     0.24138   0.16789   0.40704   0.00000  Uiso   1.00
C26    C     0.09170   0.17406   0.09240   0.00000  Uiso   1.00
C27    C     0.22340   0.17864   0.45175   0.00000  Uiso   1.00
C28    C     0.10823   0.17422   0.04558   0.00000  Uiso   1.00
C29    C     0.25703   0.19196   0.47415   0.00000  Uiso   1.00
C30    C     0.07402   0.16540   0.02204   0.00000  Uiso   1.00
C31    C     0.17314   0.17589   0.47490   0.00000  Uiso   1.00
C32    C     0.15788   0.18151   0.02165   0.00000  Uiso   1.00
Cu33   Cu    0.04689   0.16667   0.25000   0.00000  Uiso   1.00
Cu34   Cu    0.28645   0.16666   0.25000   0.00000  Uiso   1.00
H35    H     0.26635   0.21134   0.03654   0.00000  Uiso   1.00
H36    H     0.06327   0.15718   0.45739   0.00000  Uiso   1.00
H37    H     0.11640   0.17821   0.11210   0.00000  Uiso   1.00
H38    H     0.21799   0.15476   0.38935   0.00000  Uiso   1.00
H39    H     0.30458   0.15433   0.10830   0.00000  Uiso   1.00
H40    H     0.02778   0.19222   0.38896   0.00000  Uiso   1.00
H41    H     0.33200   0.20800   0.46785   0.00000  Uiso   1.00
H42    H     0.33199   0.15192   0.02719   0.00000  Uiso   1.00
H43    H     0.18322   0.20277   0.07709   0.00000  Uiso   1.00
H44    H     0.14602   0.16854   0.41689   0.00000  Uiso   1.00
H45    H     0.26795   0.03690   0.22885   0.00000  Uiso   1.00
H46    H     0.06424   0.29646   0.27301   0.00000  Uiso   1.00
H47    H     0.26865   0.29538   0.22827   0.00000  Uiso   1.00
H48    H     0.06404   0.03797   0.27282   0.00000  Uiso   1.00
H49    H     0.10787   0.11278   0.28990   0.00000  Uiso   1.00
H50    H     0.22600   0.21997   0.20963   0.00000  Uiso   1.00
N51    N     0.11736   0.16668   0.24999   0.00000  Uiso   1.00
N52    N     0.21597   0.16666   0.25001   0.00000  Uiso   1.00
O53    O     0.03958   0.10655   0.25000   0.00000  Uiso   1.00
O54    O     0.29375   0.22678   0.25000   0.00000  Uiso   1.00
O55    O     0.29372   0.10654   0.25001   0.00000  Uiso   1.00
O56    O     0.03961   0.22679   0.25000   0.00000  Uiso   1.00
O57    O     0.01852   0.16668   0.31492   0.00000  Uiso   1.00
O58    O     0.31481   0.16666   0.18509   0.00000  Uiso   1.00
O59    O     0.27267   0.16667   0.31492   0.00000  Uiso   1.00
O60    O     0.06067   0.16667   0.18508   0.00000  Uiso   1.00
C61    C     0.19509   0.10231   0.30257   0.00000  Uiso   1.00
C62    C     0.15708   0.09397   0.34771   0.00000  Uiso   1.00
H63    H     0.14283   0.12333   0.36269   0.00000  Uiso   1.00
H64    H     0.12663   0.07436   0.34392   0.00000  Uiso   1.00
H65    H     0.17357   0.07715   0.37096   0.00000  Uiso   1.00
H66    H     0.19992   0.07351   0.28369   0.00000  Uiso   1.00
H67    H     0.22855   0.10910   0.31094   0.00000  Uiso   1.00
C68    C     0.13655   0.23266   0.20037   0.00000  Uiso   1.00
C69    C     0.17679   0.25054   0.16034   0.00000  Uiso   1.00
H70    H     0.20141   0.27163   0.17155   0.00000  Uiso   1.00
H71    H     0.19795   0.22549   0.14121   0.00000  Uiso   1.00
H72    H     0.16066   0.26883   0.13784   0.00000  Uiso   1.00
H73    H     0.10739   0.22332   0.18643   0.00000  Uiso   1.00
H74    H     0.12377   0.25789   0.22357   0.00000  Uiso   1.00
C75    C     0.66628   0.08745   0.25033   0.00000  Uiso   1.00
C76    C     0.33361   0.24589   0.24994   0.00000  Uiso   1.00
C77    C     0.52592   0.19497   0.04267   0.00000  Uiso   1.00
C78    C     0.47095   0.16871   0.45262   0.00000  Uiso   1.00
C79    C     0.57441   0.20062   0.01916   0.00000  Uiso   1.00
C80    C     0.42242   0.16337   0.47583   0.00000  Uiso   1.00
C81    C     0.62960   0.02102   0.23863   0.00000  Uiso   1.00
C82    C     0.36963   0.31231   0.26267   0.00000  Uiso   1.00
C83    C     0.63013   0.31171   0.23821   0.00000  Uiso   1.00
C84    C     0.36926   0.02163   0.26285   0.00000  Uiso   1.00
C85    C     0.33361   0.29056   0.25007   0.00000  Uiso   1.00
C86    C     0.66595   0.04278   0.25075   0.00000  Uiso   1.00
C87    C     0.51561   0.13682   0.27424   0.00000  Uiso   1.00
C88    C     0.48425   0.19681   0.22608   0.00000  Uiso   1.00
C89    C     0.46683   0.13666   0.27252   0.00000  Uiso   1.00
C90    C     0.53337   0.19638   0.22702   0.00000  Uiso   1.00
C91    C     0.63919   0.16758   0.33578   0.00000  Uiso   1.00
C92    C     0.36083   0.16675   0.16414   0.00000  Uiso   1.00
C93    C     0.62378   0.17318   0.38403   0.00000  Uiso   1.00
C94    C     0.37611   0.16705   0.11522   0.00000  Uiso   1.00
C95    C     0.63973   0.19663   0.45120   0.00000  Uiso   1.00
C96    C     0.35826   0.15863   0.04500   0.00000  Uiso   1.00
C97    C     0.65637   0.18741   0.40634   0.00000  Uiso   1.00
C98    C     0.34264   0.15987   0.09127   0.00000  Uiso   1.00
C99    C     0.57472   0.16789   0.40704   0.00000  Uiso   1.00
C100   C     0.42504   0.17406   0.09240   0.00000  Uiso   1.00
C101   C     0.55673   0.17864   0.45175   0.00000  Uiso   1.00
C102   C     0.44156   0.17422   0.04558   0.00000  Uiso   1.00
C103   C     0.59036   0.19196   0.47415   0.00000  Uiso   1.00
C104   C     0.40735   0.16540   0.02204   0.00000  Uiso   1.00
C105   C     0.50647   0.17589   0.47490   0.00000  Uiso   1.00
C106   C     0.49121   0.18151   0.02165   0.00000  Uiso   1.00
Cu107  Cu    0.38022   0.16667   0.25000   0.00000  Uiso   1.00
Cu108  Cu    0.61978   0.16666   0.25000   0.00000  Uiso   1.00
H109   H     0.59968   0.21134   0.03654   0.00000  Uiso   1.00
H110   H     0.39660   0.15718   0.45739   0.00000  Uiso   1.00
H111   H     0.44974   0.17821   0.11210   0.00000  Uiso   1.00
H112   H     0.55132   0.15476   0.38935   0.00000  Uiso   1.00
H113   H     0.63792   0.15433   0.10830   0.00000  Uiso   1.00
H114   H     0.36112   0.19222   0.38896   0.00000  Uiso   1.00
H115   H     0.66533   0.20800   0.46785   0.00000  Uiso   1.00
H116   H     0.66533   0.15192   0.02719   0.00000  Uiso   1.00
H117   H     0.51656   0.20277   0.07709   0.00000  Uiso   1.00
H118   H     0.47936   0.16854   0.41689   0.00000  Uiso   1.00
H119   H     0.60129   0.03690   0.22885   0.00000  Uiso   1.00
H120   H     0.39757   0.29646   0.27301   0.00000  Uiso   1.00
H121   H     0.60199   0.29538   0.22827   0.00000  Uiso   1.00
H122   H     0.39737   0.03797   0.27282   0.00000  Uiso   1.00
H123   H     0.44121   0.11278   0.28990   0.00000  Uiso   1.00
H124   H     0.55933   0.21997   0.20963   0.00000  Uiso   1.00
N125   N     0.45069   0.16668   0.24999   0.00000  Uiso   1.00
N126   N     0.54931   0.16666   0.25001   0.00000  Uiso   1.00
O127   O     0.37291   0.10655   0.25000   0.00000  Uiso   1.00
O128   O     0.62709   0.22678   0.25000   0.00000  Uiso   1.00
O129   O     0.62706   0.10654   0.25001   0.00000  Uiso   1.00
O130   O     0.37294   0.22679   0.25000   0.00000  Uiso   1.00
O131   O     0.35186   0.16668   0.31492   0.00000  Uiso   1.00
O132   O     0.64814   0.16666   0.18509   0.00000  Uiso   1.00
O133   O     0.60600   0.16667   0.31492   0.00000  Uiso   1.00
O134   O     0.39400   0.16667   0.18508   0.00000  Uiso   1.00
C135   C     0.52842   0.10231   0.30257   0.00000  Uiso   1.00
C136   C     0.49041   0.09397   0.34771   0.00000  Uiso   1.00
H137   H     0.47616   0.12333   0.36269   0.00000  Uiso   1.00
H138   H     0.45997   0.07436   0.34392   0.00000  Uiso   1.00
H139   H     0.50690   0.07715   0.37096   0.00000  Uiso   1.00
H140   H     0.53325   0.07351   0.28369   0.00000  Uiso   1.00
H141   H     0.56188   0.10910   0.31094   0.00000  Uiso   1.00
C142   C     0.46988   0.23266   0.20037   0.00000  Uiso   1.00
C143   C     0.51013   0.25054   0.16034   0.00000  Uiso   1.00
H144   H     0.53474   0.27163   0.17155   0.00000  Uiso   1.00
H145   H     0.53128   0.22549   0.14121   0.00000  Uiso   1.00
H146   H     0.49399   0.26883   0.13784   0.00000  Uiso   1.00
H147   H     0.44072   0.22332   0.18643   0.00000  Uiso   1.00
H148   H     0.45711   0.25789   0.22357   0.00000  Uiso   1.00
C149   C     0.99961   0.08745   0.25033   0.00000  Uiso   1.00
C150   C     0.66695   0.24589   0.24994   0.00000  Uiso   1.00
C151   C     0.85926   0.19497   0.04267   0.00000  Uiso   1.00
C152   C     0.80428   0.16871   0.45262   0.00000  Uiso   1.00
C153   C     0.90774   0.20062   0.01916   0.00000  Uiso   1.00
C154   C     0.75575   0.16337   0.47583   0.00000  Uiso   1.00
C155   C     0.96294   0.02102   0.23863   0.00000  Uiso   1.00
C156   C     0.70296   0.31231   0.26267   0.00000  Uiso   1.00
C157   C     0.96347   0.31171   0.23821   0.00000  Uiso   1.00
C158   C     0.70259   0.02163   0.26285   0.00000  Uiso   1.00
C159   C     0.66694   0.29056   0.25007   0.00000  Uiso   1.00
C160   C     0.99928   0.04278   0.25075   0.00000  Uiso   1.00
C161   C     0.84894   0.13682   0.27424   0.00000  Uiso   1.00
C162   C     0.81758   0.19681   0.22608   0.00000  Uiso   1.00
C163   C     0.80016   0.13666   0.27252   0.00000  Uiso   1.00
C164   C     0.86670   0.19638   0.22702   0.00000  Uiso   1.00
C165   C     0.97252   0.16758   0.33578   0.00000  Uiso   1.00
C166   C     0.69416   0.16675   0.16414   0.00000  Uiso   1.00
C167   C     0.95711   0.17318   0.38403   0.00000  Uiso   1.00
C168   C     0.70944   0.16705   0.11522   0.00000  Uiso   1.00
C169   C     0.97306   0.19663   0.45120   0.00000  Uiso   1.00
C170   C     0.69160   0.15863   0.04500   0.00000  Uiso   1.00
C171   C     0.98970   0.18741   0.40634   0.00000  Uiso   1.00
C172   C     0.67597   0.15987   0.09127   0.00000  Uiso   1.00
C173   C     0.90805   0.16789   0.40704   0.00000  Uiso   1.00
C174   C     0.75837   0.17406   0.09240   0.00000  Uiso   1.00
C175   C     0.89007   0.17864   0.45175   0.00000  Uiso   1.00
C176   C     0.77489   0.17422   0.04558   0.00000  Uiso   1.00
C177   C     0.92370   0.19196   0.47415   0.00000  Uiso   1.00
C178   C     0.74069   0.16540   0.02204   0.00000  Uiso   1.00
C179   C     0.83981   0.17589   0.47490   0.00000  Uiso   1.00
C180   C     0.82454   0.18151   0.02165   0.00000  Uiso   1.00
Cu181  Cu    0.71355   0.16667   0.25000   0.00000  Uiso   1.00
Cu182  Cu    0.95311   0.16666   0.25000   0.00000  Uiso   1.00
H183   H     0.93302   0.21134   0.03654   0.00000  Uiso   1.00
H184   H     0.72993   0.15718   0.45739   0.00000  Uiso   1.00
H185   H     0.78307   0.17821   0.11210   0.00000  Uiso   1.00
H186   H     0.88466   0.15476   0.38935   0.00000  Uiso   1.00
H187   H     0.97125   0.15433   0.10830   0.00000  Uiso   1.00
H188   H     0.69445   0.19222   0.38896   0.00000  Uiso   1.00
H189   H     0.99867   0.20800   0.46785   0.00000  Uiso   1.00
H190   H     0.99866   0.15192   0.02719   0.00000  Uiso   1.00
H191   H     0.84989   0.20277   0.07709   0.00000  Uiso   1.00
H192   H     0.81269   0.16854   0.41689   0.00000  Uiso   1.00
H193   H     0.93462   0.03690   0.22885   0.00000  Uiso   1.00
H194   H     0.73091   0.29646   0.27301   0.00000  Uiso   1.00
H195   H     0.93532   0.29538   0.22827   0.00000  Uiso   1.00
H196   H     0.73070   0.03797   0.27282   0.00000  Uiso   1.00
H197   H     0.77454   0.11278   0.28990   0.00000  Uiso   1.00
H198   H     0.89266   0.21997   0.20963   0.00000  Uiso   1.00
N199   N     0.78403   0.16668   0.24999   0.00000  Uiso   1.00
N200   N     0.88264   0.16666   0.25001   0.00000  Uiso   1.00
O201   O     0.70625   0.10655   0.25000   0.00000  Uiso   1.00
O202   O     0.96042   0.22678   0.25000   0.00000  Uiso   1.00
O203   O     0.96039   0.10654   0.25001   0.00000  Uiso   1.00
O204   O     0.70628   0.22679   0.25000   0.00000  Uiso   1.00
O205   O     0.68519   0.16668   0.31492   0.00000  Uiso   1.00
O206   O     0.98148   0.16666   0.18509   0.00000  Uiso   1.00
O207   O     0.93933   0.16667   0.31492   0.00000  Uiso   1.00
O208   O     0.72733   0.16667   0.18508   0.00000  Uiso   1.00
C209   C     0.86176   0.10231   0.30257   0.00000  Uiso   1.00
C210   C     0.82375   0.09397   0.34771   0.00000  Uiso   1.00
H211   H     0.80949   0.12333   0.36269   0.00000  Uiso   1.00
H212   H     0.79330   0.07436   0.34392   0.00000  Uiso   1.00
H213   H     0.84024   0.07715   0.37096   0.00000  Uiso   1.00
H214   H     0.86659   0.07351   0.28369   0.00000  Uiso   1.00
H215   H     0.89522   0.10910   0.31094   0.00000  Uiso   1.00
C216   C     0.80322   0.23266   0.20037   0.00000  Uiso   1.00
C217   C     0.84346   0.25054   0.16034   0.00000  Uiso   1.00
H218   H     0.86808   0.27163   0.17155   0.00000  Uiso   1.00
H219   H     0.86462   0.22549   0.14121   0.00000  Uiso   1.00
H220   H     0.82733   0.26883   0.13784   0.00000  Uiso   1.00
H221   H     0.77405   0.22332   0.18643   0.00000  Uiso   1.00
H222   H     0.79044   0.25789   0.22357   0.00000  Uiso   1.00
C223   C     0.33295   0.42078   0.25033   0.00000  Uiso   1.00
C224   C     0.00028   0.57922   0.24994   0.00000  Uiso   1.00
C225   C     0.19259   0.52830   0.04267   0.00000  Uiso   1.00
C226   C     0.13762   0.50204   0.45262   0.00000  Uiso   1.00
C227   C     0.24107   0.53395   0.01916   0.00000  Uiso   1.00
C228   C     0.08908   0.49671   0.47583   0.00000  Uiso   1.00
C229   C     0.29627   0.35435   0.23863   0.00000  Uiso   1.00
C230   C     0.03630   0.64565   0.26267   0.00000  Uiso   1.00
C231   C     0.29680   0.64504   0.23821   0.00000  Uiso   1.00
C232   C     0.03592   0.35496   0.26285   0.00000  Uiso   1.00
C233   C     0.00028   0.62389   0.25007   0.00000  Uiso   1.00
C234   C     0.33262   0.37611   0.25075   0.00000  Uiso   1.00
C235   C     0.18228   0.47015   0.27424   0.00000  Uiso   1.00
C236   C     0.15092   0.53014   0.22608   0.00000  Uiso   1.00
C237   C     0.13350   0.47000   0.27252   0.00000  Uiso   1.00
C238   C     0.20004   0.52971   0.22702   0.00000  Uiso   1.00
C239   C     0.30586   0.50091   0.33578   0.00000  Uiso   1.00
C240   C     0.02749   0.50008   0.16414   0.00000  Uiso   1.00
C241   C     0.29044   0.50651   0.38403   0.00000  Uiso   1.00
C242   C     0.04278   0.50038   0.11522   0.00000  Uiso   1.00
C243   C     0.30639   0.52996   0.45120   0.00000  Uiso   1.00
C244   C     0.02493   0.49196   0.04500   0.00000  Uiso   1.00
C245   C     0.32303   0.52074   0.40634   0.00000  Uiso   1.00
C246   C     0.00931   0.49320   0.09127   0.00000  Uiso   1.00
C247   C     0.24138   0.50122   0.40704   0.00000  Uiso   1.00
C248   C     0.09170   0.50739   0.09240   0.00000  Uiso   1.00
C249   C     0.22340   0.51197   0.45175   0.00000  Uiso   1.00
C250   C     0.10823   0.50756   0.04558   0.00000  Uiso   1.00
C251   C     0.25703   0.52529   0.47415   0.00000  Uiso   1.00
C252   C     0.07402   0.49873   0.02204   0.00000  Uiso   1.00
C253   C     0.17314   0.50922   0.47490   0.00000  Uiso   1.00
C254   C     0.15788   0.51484   0.02165   0.00000  Uiso   1.00
Cu255  Cu    0.04689   0.50001   0.25000   0.00000  Uiso   1.00
Cu256  Cu    0.28645   0.49999   0.25000   0.00000  Uiso   1.00
H257   H     0.26635   0.54467   0.03654   0.00000  Uiso   1.00
H258   H     0.06327   0.49051   0.45739   0.00000  Uiso   1.00
H259   H     0.11640   0.51154   0.11210   0.00000  Uiso   1.00
H260   H     0.21799   0.48809   0.38935   0.00000  Uiso   1.00
H261   H     0.30458   0.48766   0.10830   0.00000  Uiso   1.00
H262   H     0.02778   0.52555   0.38896   0.00000  Uiso   1.00
H263   H     0.33200   0.54133   0.46785   0.00000  Uiso   1.00
H264   H     0.33199   0.48525   0.02719   0.00000  Uiso   1.00
H265   H     0.18322   0.53610   0.07709   0.00000  Uiso   1.00
H266   H     0.14602   0.50187   0.41689   0.00000  Uiso   1.00
H267   H     0.26795   0.37023   0.22885   0.00000  Uiso   1.00
H268   H     0.06424   0.62979   0.27301   0.00000  Uiso   1.00
H269   H     0.26865   0.62871   0.22827   0.00000  Uiso   1.00
H270   H     0.06404   0.37131   0.27282   0.00000  Uiso   1.00
H271   H     0.10787   0.44611   0.28990   0.00000  Uiso   1.00
H272   H     0.22600   0.55331   0.20963   0.00000  Uiso   1.00
N273   N     0.11736   0.50001   0.24999   0.00000  Uiso   1.00
N274   N     0.21597   0.49999   0.25001   0.00000  Uiso   1.00
O275   O     0.03958   0.43989   0.25000   0.00000  Uiso   1.00
O276   O     0.29375   0.56011   0.25000   0.00000  Uiso   1.00
O277   O     0.29372   0.43988   0.25001   0.00000  Uiso   1.00
O278   O     0.03961   0.56012   0.25000   0.00000  Uiso   1.00
O279   O     0.01852   0.50001   0.31492   0.00000  Uiso   1.00
O280   O     0.31481   0.49999   0.18509   0.00000  Uiso   1.00
O281   O     0.27267   0.50000   0.31492   0.00000  Uiso   1.00
O282   O     0.06067   0.50000   0.18508   0.00000  Uiso   1.00
C283   C     0.19509   0.43564   0.30257   0.00000  Uiso   1.00
C284   C     0.15708   0.42731   0.34771   0.00000  Uiso   1.00
H285   H     0.14283   0.45666   0.36269   0.00000  Uiso   1.00
H286   H     0.12663   0.40770   0.34392   0.00000  Uiso   1.00
H287   H     0.17357   0.41049   0.37096   0.00000  Uiso   1.00
H288   H     0.19992   0.40685   0.28369   0.00000  Uiso   1.00
H289   H     0.22855   0.44244   0.31094   0.00000  Uiso   1.00
C290   C     0.13655   0.56599   0.20037   0.00000  Uiso   1.00
C291   C     0.17679   0.58388   0.16034   0.00000  Uiso   1.00
H292   H     0.20141   0.60496   0.17155   0.00000  Uiso   1.00
H293   H     0.19795   0.55883   0.14121   0.00000  Uiso   1.00
H294   H     0.16066   0.60216   0.13784   0.00000  Uiso   1.00
H295   H     0.10739   0.55665   0.18643   0.00000  Uiso   1.00
H296   H     0.12377   0.59122   0.22357   0.00000  Uiso   1.00
C297   C     0.66628   0.42078   0.25033   0.00000  Uiso   1.00
C298   C     0.33361   0.57922   0.24994   0.00000  Uiso   1.00
C299   C     0.52592   0.52830   0.04267   0.00000  Uiso   1.00
C300   C     0.47095   0.50204   0.45262   0.00000  Uiso   1.00
C301   C     0.57441   0.53395   0.01916   0.00000  Uiso   1.00
C302   C     0.42242   0.49671   0.47583   0.00000  Uiso   1.00
C303   C     0.62960   0.35435   0.23863   0.00000  Uiso   1.00
C304   C     0.36963   0.64565   0.26267   0.00000  Uiso   1.00
C305   C     0.63013   0.64504   0.23821   0.00000  Uiso   1.00
C306   C     0.36926   0.35496   0.26285   0.00000  Uiso   1.00
C307   C     0.33361   0.62389   0.25007   0.00000  Uiso   1.00
C308   C     0.66595   0.37611   0.25075   0.00000  Uiso   1.00
C309   C     0.51561   0.47015   0.27424   0.00000  Uiso   1.00
C310   C     0.48425   0.53014   0.22608   0.00000  Uiso   1.00
C311   C     0.46683   0.47000   0.27252   0.00000  Uiso   1.00
C312   C     0.53337   0.52971   0.22702   0.00000  Uiso   1.00
C313   C     0.63919   0.50091   0.33578   0.00000  Uiso   1.00
C314   C     0.36083   0.50008   0.16414   0.00000  Uiso   1.00
C315   C     0.62378   0.50651   0.38403   0.00000  Uiso   1.00
C316   C     0.37611   0.50038   0.11522   0.00000  Uiso   1.00
C317   C     0.63973   0.52996   0.45120   0.00000  Uiso   1.00
C318   C     0.35826   0.49196   0.04500   0.00000  Uiso   1.00
C319   C     0.65637   0.52074   0.40634   0.00000  Uiso   1.00
C320   C     0.34264   0.49320   0.09127   0.00000  Uiso   1.00
C321   C     0.57472   0.50122   0.40704   0.00000  Uiso   1.00
C322   C     0.42504   0.50739   0.09240   0.00000  Uiso   1.00
C323   C     0.55673   0.51197   0.45175   0.00000  Uiso   1.00
C324   C     0.44156   0.50756   0.04558   0.00000  Uiso   1.00
C325   C     0.59036   0.52529   0.47415   0.00000  Uiso   1.00
C326   C     0.40735   0.49873   0.02204   0.00000  Uiso   1.00
C327   C     0.50647   0.50922   0.47490   0.00000  Uiso   1.00
C328   C     0.49121   0.51484   0.02165   0.00000  Uiso   1.00
Cu329  Cu    0.38022   0.50001   0.25000   0.00000  Uiso   1.00
Cu330  Cu    0.61978   0.49999   0.25000   0.00000  Uiso   1.00
H331   H     0.59968   0.54467   0.03654   0.00000  Uiso   1.00
H332   H     0.39660   0.49051   0.45739   0.00000  Uiso   1.00
H333   H     0.44974   0.51154   0.11210   0.00000  Uiso   1.00
H334   H     0.55132   0.48809   0.38935   0.00000  Uiso   1.00
H335   H     0.63792   0.48766   0.10830   0.00000  Uiso   1.00
H336   H     0.36112   0.52555   0.38896   0.00000  Uiso   1.00
H337   H     0.66533   0.54133   0.46785   0.00000  Uiso   1.00
H338   H     0.66533   0.48525   0.02719   0.00000  Uiso   1.00
H339   H     0.51656   0.53610   0.07709   0.00000  Uiso   1.00
H340   H     0.47936   0.50187   0.41689   0.00000  Uiso   1.00
H341   H     0.60129   0.37023   0.22885   0.00000  Uiso   1.00
H342   H     0.39757   0.62979   0.27301   0.00000  Uiso   1.00
H343   H     0.60199   0.62871   0.22827   0.00000  Uiso   1.00
H344   H     0.39737   0.37131   0.27282   0.00000  Uiso   1.00
H345   H     0.44121   0.44611   0.28990   0.00000  Uiso   1.00
H346   H     0.55933   0.55331   0.20963   0.00000  Uiso   1.00
N347   N     0.45069   0.50001   0.24999   0.00000  Uiso   1.00
N348   N     0.54931   0.49999   0.25001   0.00000  Uiso   1.00
O349   O     0.37291   0.43989   0.25000   0.00000  Uiso   1.00
O350   O     0.62709   0.56011   0.25000   0.00000  Uiso   1.00
O351   O     0.62706   0.43988   0.25001   0.00000  Uiso   1.00
O352   O     0.37294   0.56012   0.25000   0.00000  Uiso   1.00
O353   O     0.35186   0.50001   0.31492   0.00000  Uiso   1.00
O354   O     0.64814   0.49999   0.18509   0.00000  Uiso   1.00
O355   O     0.60600   0.50000   0.31492   0.00000  Uiso   1.00
O356   O     0.39400   0.50000   0.18508   0.00000  Uiso   1.00
C357   C     0.52842   0.43564   0.30257   0.00000  Uiso   1.00
C358   C     0.49041   0.42731   0.34771   0.00000  Uiso   1.00
H359   H     0.47616   0.45666   0.36269   0.00000  Uiso   1.00
H360   H     0.45997   0.40770   0.34392   0.00000  Uiso   1.00
H361   H     0.50690   0.41049   0.37096   0.00000  Uiso   1.00
H362   H     0.53325   0.40685   0.28369   0.00000  Uiso   1.00
H363   H     0.56188   0.44244   0.31094   0.00000  Uiso   1.00
C364   C     0.46988   0.56599   0.20037   0.00000  Uiso   1.00
C365   C     0.51013   0.58388   0.16034   0.00000  Uiso   1.00
H366   H     0.53474   0.60496   0.17155   0.00000  Uiso   1.00
H367   H     0.53128   0.55883   0.14121   0.00000  Uiso   1.00
H368   H     0.49399   0.60216   0.13784   0.00000  Uiso   1.00
H369   H     0.44072   0.55665   0.18643   0.00000  Uiso   1.00
H370   H     0.45711   0.59122   0.22357   0.00000  Uiso   1.00
C371   C     0.99961   0.42078   0.25033   0.00000  Uiso   1.00
C372   C     0.66695   0.57922   0.24994   0.00000  Uiso   1.00
C373   C     0.85926   0.52830   0.04267   0.00000  Uiso   1.00
C374   C     0.80428   0.50204   0.45262   0.00000  Uiso   1.00
C375   C     0.90774   0.53395   0.01916   0.00000  Uiso   1.00
C376   C     0.75575   0.49671   0.47583   0.00000  Uiso   1.00
C377   C     0.96294   0.35435   0.23863   0.00000  Uiso   1.00
C378   C     0.70296   0.64565   0.26267   0.00000  Uiso   1.00
C379   C     0.96347   0.64504   0.23821   0.00000  Uiso   1.00
C380   C     0.70259   0.35496   0.26285   0.00000  Uiso   1.00
C381   C     0.66694   0.62389   0.25007   0.00000  Uiso   1.00
C382   C     0.99928   0.37611   0.25075   0.00000  Uiso   1.00
C383   C     0.84894   0.47015   0.27424   0.00000  Uiso   1.00
C384   C     0.81758   0.53014   0.22608   0.00000  Uiso   1.00
C385   C     0.80016   0.47000   0.27252   0.00000  Uiso   1.00
C386   C     0.86670   0.52971   0.22702   0.00000  Uiso   1.00
C387   C     0.97252   0.50091   0.33578   0.00000  Uiso   1.00
C388   C     0.69416   0.50008   0.16414   0.00000  Uiso   1.00
C389   C     0.95711   0.50651   0.38403   0.00000  Uiso   1.00
C390   C     0.70944   0.50038   0.11522   0.00000  Uiso   1.00
C391   C     0.97306   0.52996   0.45120   0.00000  Uiso   1.00
C392   C     0.69160   0.49196   0.04500   0.00000  Uiso   1.00
C393   C     0.98970   0.52074   0.40634   0.00000  Uiso   1.00
C394   C     0.67597   0.49320   0.09127   0.00000  Uiso   1.00
C395   C     0.90805   0.50122   0.40704   0.00000  Uiso   1.00
C396   C     0.75837   0.50739   0.09240   0.00000  Uiso   1.00
C397   C     0.89007   0.51197   0.45175   0.00000  Uiso   1.00
C398   C     0.77489   0.50756   0.04558   0.00000  Uiso   1.00
C399   C     0.92370   0.52529   0.47415   0.00000  Uiso   1.00
C400   C     0.74069   0.49873   0.02204   0.00000  Uiso   1.00
C401   C     0.83981   0.50922   0.47490   0.00000  Uiso   1.00
C402   C     0.82454   0.51484   0.02165   0.00000  Uiso   1.00
Cu403  Cu    0.71355   0.50001   0.25000   0.00000  Uiso   1.00
Cu404  Cu    0.95311   0.49999   0.25000   0.00000  Uiso   1.00
H405   H     0.93302   0.54467   0.03654   0.00000  Uiso   1.00
H406   H     0.72993   0.49051   0.45739   0.00000  Uiso   1.00
H407   H     0.78307   0.51154   0.11210   0.00000  Uiso   1.00
H408   H     0.88466   0.48809   0.38935   0.00000  Uiso   1.00
H409   H     0.97125   0.48766   0.10830   0.00000  Uiso   1.00
H410   H     0.69445   0.52555   0.38896   0.00000  Uiso   1.00
H411   H     0.99867   0.54133   0.46785   0.00000  Uiso   1.00
H412   H     0.99866   0.48525   0.02719   0.00000  Uiso   1.00
H413   H     0.84989   0.53610   0.07709   0.00000  Uiso   1.00
H414   H     0.81269   0.50187   0.41689   0.00000  Uiso   1.00
H415   H     0.93462   0.37023   0.22885   0.00000  Uiso   1.00
H416   H     0.73091   0.62979   0.27301   0.00000  Uiso   1.00
H417   H     0.93532   0.62871   0.22827   0.00000  Uiso   1.00
H418   H     0.73070   0.37131   0.27282   0.00000  Uiso   1.00
H419   H     0.77454   0.44611   0.28990   0.00000  Uiso   1.00
H420   H     0.89266   0.55331   0.20963   0.00000  Uiso   1.00
N421   N     0.78403   0.50001   0.24999   0.00000  Uiso   1.00
N422   N     0.88264   0.49999   0.25001   0.00000  Uiso   1.00
O423   O     0.70625   0.43989   0.25000   0.00000  Uiso   1.00
O424   O     0.96042   0.56011   0.25000   0.00000  Uiso   1.00
O425   O     0.96039   0.43988   0.25001   0.00000  Uiso   1.00
O426   O     0.70628   0.56012   0.25000   0.00000  Uiso   1.00
O427   O     0.68519   0.50001   0.31492   0.00000  Uiso   1.00
O428   O     0.98148   0.49999   0.18509   0.00000  Uiso   1.00
O429   O     0.93933   0.50000   0.31492   0.00000  Uiso   1.00
O430   O     0.72733   0.50000   0.18508   0.00000  Uiso   1.00
C431   C     0.86176   0.43564   0.30257   0.00000  Uiso   1.00
C432   C     0.82375   0.42731   0.34771   0.00000  Uiso   1.00
H433   H     0.80949   0.45666   0.36269   0.00000  Uiso   1.00
H434   H     0.79330   0.40770   0.34392   0.00000  Uiso   1.00
H435   H     0.84024   0.41049   0.37096   0.00000  Uiso   1.00
H436   H     0.86659   0.40685   0.28369   0.00000  Uiso   1.00
H437   H     0.89522   0.44244   0.31094   0.00000  Uiso   1.00
C438   C     0.80322   0.56599   0.20037   0.00000  Uiso   1.00
C439   C     0.84346   0.58388   0.16034   0.00000  Uiso   1.00
H440   H     0.86808   0.60496   0.17155   0.00000  Uiso   1.00
H441   H     0.86462   0.55883   0.14121   0.00000  Uiso   1.00
H442   H     0.82733   0.60216   0.13784   0.00000  Uiso   1.00
H443   H     0.77405   0.55665   0.18643   0.00000  Uiso   1.00
H444   H     0.79044   0.59122   0.22357   0.00000  Uiso   1.00
C445   C     0.33295   0.75411   0.25033   0.00000  Uiso   1.00
C446   C     0.00028   0.91256   0.24994   0.00000  Uiso   1.00
C447   C     0.19259   0.86164   0.04267   0.00000  Uiso   1.00
C448   C     0.13762   0.83538   0.45262   0.00000  Uiso   1.00
C449   C     0.24107   0.86728   0.01916   0.00000  Uiso   1.00
C450   C     0.08908   0.83004   0.47583   0.00000  Uiso   1.00
C451   C     0.29627   0.68769   0.23863   0.00000  Uiso   1.00
C452   C     0.03630   0.97898   0.26267   0.00000  Uiso   1.00
C453   C     0.29680   0.97838   0.23821   0.00000  Uiso   1.00
C454   C     0.03592   0.68830   0.26285   0.00000  Uiso   1.00
C455   C     0.00028   0.95722   0.25007   0.00000  Uiso   1.00
C456   C     0.33262   0.70945   0.25075   0.00000  Uiso   1.00
C457   C     0.18228   0.80349   0.27424   0.00000  Uiso   1.00
C458   C     0.15092   0.86348   0.22608   0.00000  Uiso   1.00
C459   C     0.13350   0.80333   0.27252   0.00000  Uiso   1.00
C460   C     0.20004   0.86305   0.22702   0.00000  Uiso   1.00
C461   C     0.30586   0.83424   0.33578   0.00000  Uiso   1.00
C462   C     0.02749   0.83342   0.16414   0.00000  Uiso   1.00
C463   C     0.29044   0.83985   0.38403   0.00000  Uiso   1.00
C464   C     0.04278   0.83371   0.11522   0.00000  Uiso   1.00
C465   C     0.30639   0.86330   0.45120   0.00000  Uiso   1.00
C466   C     0.02493   0.82530   0.04500   0.00000  Uiso   1.00
C467   C     0.32303   0.85408   0.40634   0.00000  Uiso   1.00
C468   C     0.00931   0.82654   0.09127   0.00000  Uiso   1.00
C469   C     0.24138   0.83455   0.40704   0.00000  Uiso   1.00
C470   C     0.09170   0.84073   0.09240   0.00000  Uiso   1.00
C471   C     0.22340   0.84531   0.45175   0.00000  Uiso   1.00
C472   C     0.10823   0.84089   0.04558   0.00000  Uiso   1.00
C473   C     0.25703   0.85863   0.47415   0.00000  Uiso   1.00
C474   C     0.07402   0.83207   0.02204   0.00000  Uiso   1.00
C475   C     0.17314   0.84255   0.47490   0.00000  Uiso   1.00
C476   C     0.15788   0.84818   0.02165   0.00000  Uiso   1.00
Cu477  Cu    0.04689   0.83334   0.25000   0.00000  Uiso   1.00
Cu478  Cu    0.28645   0.83333   0.25000   0.00000  Uiso   1.00
H479   H     0.26635   0.87800   0.03654   0.00000  Uiso   1.00
H480   H     0.06327   0.82384   0.45739   0.00000  Uiso   1.00
H481   H     0.11640   0.84487   0.11210   0.00000  Uiso   1.00
H482   H     0.21799   0.82142   0.38935   0.00000  Uiso   1.00
H483   H     0.30458   0.82100   0.10830   0.00000  Uiso   1.00
H484   H     0.02778   0.85888   0.38896   0.00000  Uiso   1.00
H485   H     0.33200   0.87467   0.46785   0.00000  Uiso   1.00
H486   H     0.33199   0.81858   0.02719   0.00000  Uiso   1.00
H487   H     0.18322   0.86943   0.07709   0.00000  Uiso   1.00
H488   H     0.14602   0.83520   0.41689   0.00000  Uiso   1.00
H489   H     0.26795   0.70357   0.22885   0.00000  Uiso   1.00
H490   H     0.06424   0.96313   0.27301   0.00000  Uiso   1.00
H491   H     0.26865   0.96204   0.22827   0.00000  Uiso   1.00
H492   H     0.06404   0.70464   0.27282   0.00000  Uiso   1.00
H493   H     0.10787   0.77945   0.28990   0.00000  Uiso   1.00
H494   H     0.22600   0.88664   0.20963   0.00000  Uiso   1.00
N495   N     0.11736   0.83334   0.24999   0.00000  Uiso   1.00
N496   N     0.21597   0.83332   0.25001   0.00000  Uiso   1.00
O497   O     0.03958   0.77322   0.25000   0.00000  Uiso   1.00
O498   O     0.29375   0.89345   0.25000   0.00000  Uiso   1.00
O499   O     0.29372   0.77321   0.25001   0.00000  Uiso   1.00
O500   O     0.03961   0.89346   0.25000   0.00000  Uiso   1.00
O501   O     0.01852   0.83334   0.31492   0.00000  Uiso   1.00
O502   O     0.31481   0.83332   0.18509   0.00000  Uiso   1.00
O503   O     0.27267   0.83333   0.31492   0.00000  Uiso   1.00
O504   O     0.06067   0.83333   0.18508   0.00000  Uiso   1.00
C505   C     0.19509   0.76897   0.30257   0.00000  Uiso   1.00
C506   C     0.15708   0.76064   0.34771   0.00000  Uiso   1.00
H507   H     0.14283   0.78999   0.36269   0.00000  Uiso   1.00
H508   H     0.12663   0.74103   0.34392   0.00000  Uiso   1.00
H509   H     0.17357   0.74382   0.37096   0.00000  Uiso   1.00
H510   H     0.19992   0.74018   0.28369   0.00000  Uiso   1.00
H511   H     0.22855   0.77577   0.31094   0.00000  Uiso   1.00
C512   C     0.13655   0.89933   0.20037   0.00000  Uiso   1.00
C513   C     0.17679   0.91721   0.16034   0.00000  Uiso   1.00
H514   H     0.20141   0.93830   0.17155   0.00000  Uiso   1.00
H515   H     0.19795   0.89216   0.14121   0.00000  Uiso   1.00
H516   H     0.16066   0.93550   0.13784   0.00000  Uiso   1.00
H517   H     0.10739   0.88999   0.18643   0.00000  Uiso   1.00
H518   H     0.12377   0.92455   0.22357   0.00000  Uiso   1.00
C519   C     0.66628   0.75411   0.25033   0.00000  Uiso   1.00
C520   C     0.33361   0.91256   0.24994   0.00000  Uiso   1.00
C521   C     0.52592   0.86164   0.04267   0.00000  Uiso   1.00
C522   C     0.47095   0.83538   0.45262   0.00000  Uiso   1.00
C523   C     0.57441   0.86728   0.01916   0.00000  Uiso   1.00
C524   C     0.42242   0.83004   0.47583   0.00000  Uiso   1.00
C525   C     0.62960   0.68769   0.23863   0.00000  Uiso   1.00
C526   C     0.36963   0.97898   0.26267   0.00000  Uiso   1.00
C527   C     0.63013   0.97838   0.23821   0.00000  Uiso   1.00
C528   C     0.36926   0.68830   0.26285   0.00000  Uiso   1.00
C529   C     0.33361   0.95722   0.25007   0.00000  Uiso   1.00
C530   C     0.66595   0.70945   0.25075   0.00000  Uiso   1.00
C531   C     0.51561   0.80349   0.27424   0.00000  Uiso   1.00
C532   C     0.48425   0.86348   0.22608   0.00000  Uiso   1.00
C533   C     0.46683   0.80333   0.27252   0.00000  Uiso   1.00
C534   C     0.53337   0.86305   0.22702   0.00000  Uiso   1.00
C535   C     0.63919   0.83424   0.33578   0.00000  Uiso   1.00
C536   C     0.36083   0.83342   0.16414   0.00000  Uiso   1.00
C537   C     0.62378   0.83985   0.38403   0.00000  Uiso   1.00
C538   C     0.37611   0.83371   0.11522   0.00000  Uiso   1.00
C539   C     0.63973   0.86330   0.45120   0.00000  Uiso   1.00
C540   C     0.35826   0.82530   0.04500   0.00000  Uiso   1.00
C541   C     0.65637   0.85408   0.40634   0.00000  Uiso   1.00
C542   C     0.34264   0.82654   0.09127   0.00000  Uiso   1.00
C543   C     0.57472   0.83455   0.40704   0.00000  Uiso   1.00
C544   C     0.42504   0.84073   0.09240   0.00000  Uiso   1.00
C545   C     0.55673   0.84531   0.45175   0.00000  Uiso   1.00
C546   C     0.44156   0.84089   0.04558   0.00000  Uiso   1.00
C547   C     0.59036   0.85863   0.47415   0.00000  Uiso   1.00
C548   C     0.40735   0.83207   0.02204   0.00000  Uiso   1.00
C549   C     0.50647   0.84255   0.47490   0.00000  Uiso   1.00
C550   C     0.49121   0.84818   0.02165   0.00000  Uiso   1.00
Cu551  Cu    0.38022   0.83334   0.25000   0.00000  Uiso   1.00
Cu552  Cu    0.61978   0.83333   0.25000   0.00000  Uiso   1.00
H553   H     0.59968   0.87800   0.03654   0.00000  Uiso   1.00
H554   H     0.39660   0.82384   0.45739   0.00000  Uiso   1.00
H555   H     0.44974   0.84487   0.11210   0.00000  Uiso   1.00
H556   H     0.55132   0.82142   0.38935   0.00000  Uiso   1.00
H557   H     0.63792   0.82100   0.10830   0.00000  Uiso   1.00
H558   H     0.36112   0.85888   0.38896   0.00000  Uiso   1.00
H559   H     0.66533   0.87467   0.46785   0.00000  Uiso   1.00
H560   H     0.66533   0.81858   0.02719   0.00000  Uiso   1.00
H561   H     0.51656   0.86943   0.07709   0.00000  Uiso   1.00
H562   H     0.47936   0.83520   0.41689   0.00000  Uiso   1.00
H563   H     0.60129   0.70357   0.22885   0.00000  Uiso   1.00
H564   H     0.39757   0.96313   0.27301   0.00000  Uiso   1.00
H565   H     0.60199   0.96204   0.22827   0.00000  Uiso   1.00
H566   H     0.39737   0.70464   0.27282   0.00000  Uiso   1.00
H567   H     0.44121   0.77945   0.28990   0.00000  Uiso   1.00
H568   H     0.55933   0.88664   0.20963   0.00000  Uiso   1.00
N569   N     0.45069   0.83334   0.24999   0.00000  Uiso   1.00
N570   N     0.54931   0.83332   0.25001   0.00000  Uiso   1.00
O571   O     0.37291   0.77322   0.25000   0.00000  Uiso   1.00
O572   O     0.62709   0.89345   0.25000   0.00000  Uiso   1.00
O573   O     0.62706   0.77321   0.25001   0.00000  Uiso   1.00
O574   O     0.37294   0.89346   0.25000   0.00000  Uiso   1.00
O575   O     0.35186   0.83334   0.31492   0.00000  Uiso   1.00
O576   O     0.64814   0.83332   0.18509   0.00000  Uiso   1.00
O577   O     0.60600   0.83333   0.31492   0.00000  Uiso   1.00
O578   O     0.39400   0.83333   0.18508   0.00000  Uiso   1.00
C579   C     0.52842   0.76897   0.30257   0.00000  Uiso   1.00
C580   C     0.49041   0.76064   0.34771   0.00000  Uiso   1.00
H581   H     0.47616   0.78999   0.36269   0.00000  Uiso   1.00
H582   H     0.45997   0.74103   0.34392   0.00000  Uiso   1.00
H583   H     0.50690   0.74382   0.37096   0.00000  Uiso   1.00
H584   H     0.53325   0.74018   0.28369   0.00000  Uiso   1.00
H585   H     0.56188   0.77577   0.31094   0.00000  Uiso   1.00
C586   C     0.46988   0.89933   0.20037   0.00000  Uiso   1.00
C587   C     0.51013   0.91721   0.16034   0.00000  Uiso   1.00
H588   H     0.53474   0.93830   0.17155   0.00000  Uiso   1.00
H589   H     0.53128   0.89216   0.14121   0.00000  Uiso   1.00
H590   H     0.49399   0.93550   0.13784   0.00000  Uiso   1.00
H591   H     0.44072   0.88999   0.18643   0.00000  Uiso   1.00
H592   H     0.45711   0.92455   0.22357   0.00000  Uiso   1.00
C593   C     0.99961   0.75411   0.25033   0.00000  Uiso   1.00
C594   C     0.66695   0.91256   0.24994   0.00000  Uiso   1.00
C595   C     0.85926   0.86164   0.04267   0.00000  Uiso   1.00
C596   C     0.80428   0.83538   0.45262   0.00000  Uiso   1.00
C597   C     0.90774   0.86728   0.01916   0.00000  Uiso   1.00
C598   C     0.75575   0.83004   0.47583   0.00000  Uiso   1.00
C599   C     0.96294   0.68769   0.23863   0.00000  Uiso   1.00
C600   C     0.70296   0.97898   0.26267   0.00000  Uiso   1.00
C601   C     0.96347   0.97838   0.23821   0.00000  Uiso   1.00
C602   C     0.70259   0.68830   0.26285   0.00000  Uiso   1.00
C603   C     0.66694   0.95722   0.25007   0.00000  Uiso   1.00
C604   C     0.99928   0.70945   0.25075   0.00000  Uiso   1.00
C605   C     0.84894   0.80349   0.27424   0.00000  Uiso   1.00
C606   C     0.81758   0.86348   0.22608   0.00000  Uiso   1.00
C607   C     0.80016   0.80333   0.27252   0.00000  Uiso   1.00
C608   C     0.86670   0.86305   0.22702   0.00000  Uiso   1.00
C609   C     0.97252   0.83424   0.33578   0.00000  Uiso   1.00
C610   C     0.69416   0.83342   0.16414   0.00000  Uiso   1.00
C611   C     0.95711   0.83985   0.38403   0.00000  Uiso   1.00
C612   C     0.70944   0.83371   0.11522   0.00000  Uiso   1.00
C613   C     0.97306   0.86330   0.45120   0.00000  Uiso   1.00
C614   C     0.69160   0.82530   0.04500   0.00000  Uiso   1.00
C615   C     0.98970   0.85408   0.40634   0.00000  Uiso   1.00
C616   C     0.67597   0.82654   0.09127   0.00000  Uiso   1.00
C617   C     0.90805   0.83455   0.40704   0.00000  Uiso   1.00
C618   C     0.75837   0.84073   0.09240   0.00000  Uiso   1.00
C619   C     0.89007   0.84531   0.45175   0.00000  Uiso   1.00
C620   C     0.77489   0.84089   0.04558   0.00000  Uiso   1.00
C621   C     0.92370   0.85863   0.47415   0.00000  Uiso   1.00
C622   C     0.74069   0.83207   0.02204   0.00000  Uiso   1.00
C623   C     0.83981   0.84255   0.47490   0.00000  Uiso   1.00
C624   C     0.82454   0.84818   0.02165   0.00000  Uiso   1.00
Cu625  Cu    0.71355   0.83334   0.25000   0.00000  Uiso   1.00
Cu626  Cu    0.95311   0.83333   0.25000   0.00000  Uiso   1.00
H627   H     0.93302   0.87800   0.03654   0.00000  Uiso   1.00
H628   H     0.72993   0.82384   0.45739   0.00000  Uiso   1.00
H629   H     0.78307   0.84487   0.11210   0.00000  Uiso   1.00
H630   H     0.88466   0.82142   0.38935   0.00000  Uiso   1.00
H631   H     0.97125   0.82100   0.10830   0.00000  Uiso   1.00
H632   H     0.69445   0.85888   0.38896   0.00000  Uiso   1.00
H633   H     0.99867   0.87467   0.46785   0.00000  Uiso   1.00
H634   H     0.99866   0.81858   0.02719   0.00000  Uiso   1.00
H635   H     0.84989   0.86943   0.07709   0.00000  Uiso   1.00
H636   H     0.81269   0.83520   0.41689   0.00000  Uiso   1.00
H637   H     0.93462   0.70357   0.22885   0.00000  Uiso   1.00
H638   H     0.73091   0.96313   0.27301   0.00000  Uiso   1.00
H639   H     0.93532   0.96204   0.22827   0.00000  Uiso   1.00
H640   H     0.73070   0.70464   0.27282   0.00000  Uiso   1.00
H641   H     0.77454   0.77945   0.28990   0.00000  Uiso   1.00
H642   H     0.89266   0.88664   0.20963   0.00000  Uiso   1.00
N643   N     0.78403   0.83334   0.24999   0.00000  Uiso   1.00
N644   N     0.88264   0.83332   0.25001   0.00000  Uiso   1.00
O645   O     0.70625   0.77322   0.25000   0.00000  Uiso   1.00
O646   O     0.96042   0.89345   0.25000   0.00000  Uiso   1.00
O647   O     0.96039   0.77321   0.25001   0.00000  Uiso   1.00
O648   O     0.70628   0.89346   0.25000   0.00000  Uiso   1.00
O649   O     0.68519   0.83334   0.31492   0.00000  Uiso   1.00
O650   O     0.98148   0.83332   0.18509   0.00000  Uiso   1.00
O651   O     0.93933   0.83333   0.31492   0.00000  Uiso   1.00
O652   O     0.72733   0.83333   0.18508   0.00000  Uiso   1.00
C653   C     0.86176   0.76897   0.30257   0.00000  Uiso   1.00
C654   C     0.82375   0.76064   0.34771   0.00000  Uiso   1.00
H655   H     0.80949   0.78999   0.36269   0.00000  Uiso   1.00
H656   H     0.79330   0.74103   0.34392   0.00000  Uiso   1.00
H657   H     0.84024   0.74382   0.37096   0.00000  Uiso   1.00
H658   H     0.86659   0.74018   0.28369   0.00000  Uiso   1.00
H659   H     0.89522   0.77577   0.31094   0.00000  Uiso   1.00
C660   C     0.80322   0.89933   0.20037   0.00000  Uiso   1.00
C661   C     0.84346   0.91721   0.16034   0.00000  Uiso   1.00
H662   H     0.86808   0.93830   0.17155   0.00000  Uiso   1.00
H663   H     0.86462   0.89216   0.14121   0.00000  Uiso   1.00
H664   H     0.82733   0.93550   0.13784   0.00000  Uiso   1.00
H665   H     0.77405   0.88999   0.18643   0.00000  Uiso   1.00
H666   H     0.79044   0.92455   0.22357   0.00000  Uiso   1.00
C667   C     0.33295   0.08745   0.75033   0.00000  Uiso   1.00
C668   C     0.00028   0.24589   0.74994   0.00000  Uiso   1.00
C669   C     0.19259   0.19497   0.54267   0.00000  Uiso   1.00
C670   C     0.13762   0.16871   0.95262   0.00000  Uiso   1.00
C671   C     0.24107   0.20062   0.51916   0.00000  Uiso   1.00
C672   C     0.08908   0.16337   0.97583   0.00000  Uiso   1.00
C673   C     0.29627   0.02102   0.73863   0.00000  Uiso   1.00
C674   C     0.03630   0.31231   0.76267   0.00000  Uiso   1.00
C675   C     0.29680   0.31171   0.73821   0.00000  Uiso   1.00
C676   C     0.03592   0.02163   0.76285   0.00000  Uiso   1.00
C677   C     0.00028   0.29056   0.75007   0.00000  Uiso   1.00
C678   C     0.33262   0.04278   0.75075   0.00000  Uiso   1.00
C679   C     0.18228   0.13682   0.77424   0.00000  Uiso   1.00
C680   C     0.15092   0.19681   0.72608   0.00000  Uiso   1.00
C681   C     0.13350   0.13666   0.77252   0.00000  Uiso   1.00
C682   C     0.20004   0.19638   0.72702   0.00000  Uiso   1.00
C683   C     0.30586   0.16758   0.83578   0.00000  Uiso   1.00
C684   C     0.02749   0.16675   0.66414   0.00000  Uiso   1.00
C685   C     0.29044   0.17318   0.88403   0.00000  Uiso   1.00
C686   C     0.04278   0.16705   0.61522   0.00000  Uiso   1.00
C687   C     0.30639   0.19663   0.95120   0.00000  Uiso   1.00
C688   C     0.02493   0.15863   0.54500   0.00000  Uiso   1.00
C689   C     0.32303   0.18741   0.90634   0.00000  Uiso   1.00
C690   C     0.00931   0.15987   0.59127   0.00000  Uiso   1.00
C691   C     0.24138   0.16789   0.90704   0.00000  Uiso   1.00
C692   C     0.09170   0.17406   0.59240   0.00000  Uiso   1.00
C693   C     0.22340   0.17864   0.95175   0.00000  Uiso   1.00
C694   C     0.10823   0.17422   0.54558   0.00000  Uiso   1.00
C695   C     0.25703   0.19196   0.97415   0.00000  Uiso   1.00
C696   C     0.07402   0.16540   0.52204   0.00000  Uiso   1.00
C697   C     0.17314   0.17589   0.97490   0.00000  Uiso   1.00
C698   C     0.15788   0.18151   0.52165   0.00000  Uiso   1.00
Cu699  Cu    0.04689   0.16667   0.75000   0.00000  Uiso   1.00
Cu700  Cu    0.28645   0.16666   0.75000   0.00000  Uiso   1.00
H701   H     0.26635   0.21134   0.53654   0.00000  Uiso   1.00
H702   H     0.06327   0.15718   0.95739   0.00000  Uiso   1.00
H703   H     0.11640   0.17821   0.61210   0.00000  Uiso   1.00
H704   H     0.21799   0.15476   0.88935   0.00000  Uiso   1.00
H705   H     0.30458   0.15433   0.60830   0.00000  Uiso   1.00
H706   H     0.02778   0.19222   0.88896   0.00000  Uiso   1.00
H707   H     0.33200   0.20800   0.96785   0.00000  Uiso   1.00
H708   H     0.33199   0.15192   0.52719   0.00000  Uiso   1.00
H709   H     0.18322   0.20277   0.57709   0.00000  Uiso   1.00
H710   H     0.14602   0.16854   0.91689   0.00000  Uiso   1.00
H711   H     0.26795   0.03690   0.72885   0.00000  Uiso   1.00
H712   H     0.06424   0.29646   0.77301   0.00000  Uiso   1.00
H713   H     0.26865   0.29538   0.72827   0.00000  Uiso   1.00
H714   H     0.06404   0.03797   0.77282   0.00000  Uiso   1.00
H715   H     0.10787   0.11278   0.78990   0.00000  Uiso   1.00
H716   H     0.22600   0.21997   0.70963   0.00000  Uiso   1.00
N717   N     0.11736   0.16668   0.74999   0.00000  Uiso   1.00
N718   N     0.21597   0.16666   0.75001   0.00000  Uiso   1.00
O719   O     0.03958   0.10655   0.75000   0.00000  Uiso   1.00
O720   O     0.29375   0.22678   0.75000   0.00000  Uiso   1.00
O721   O     0.29372   0.10654   0.75001   0.00000  Uiso   1.00
O722   O     0.03961   0.22679   0.75000   0.00000  Uiso   1.00
O723   O     0.01852   0.16668   0.81492   0.00000  Uiso   1.00
O724   O     0.31481   0.16666   0.68509   0.00000  Uiso   1.00
O725   O     0.27267   0.16667   0.81492   0.00000  Uiso   1.00
O726   O     0.06067   0.16667   0.68508   0.00000  Uiso   1.00
C727   C     0.19509   0.10231   0.80257   0.00000  Uiso   1.00
C728   C     0.15708   0.09397   0.84771   0.00000  Uiso   1.00
H729   H     0.14283   0.12333   0.86269   0.00000  Uiso   1.00
H730   H     0.12663   0.07436   0.84392   0.00000  Uiso   1.00
H731   H     0.17357   0.07715   0.87096   0.00000  Uiso   1.00
H732   H     0.19992   0.07351   0.78369   0.00000  Uiso   1.00
H733   H     0.22855   0.10910   0.81094   0.00000  Uiso   1.00
C734   C     0.13655   0.23266   0.70037   0.00000  Uiso   1.00
C735   C     0.17679   0.25054   0.66034   0.00000  Uiso   1.00
H736   H     0.20141   0.27163   0.67155   0.00000  Uiso   1.00
H737   H     0.19795   0.22549   0.64121   0.00000  Uiso   1.00
H738   H     0.16066   0.26883   0.63784   0.00000  Uiso   1.00
H739   H     0.10739   0.22332   0.68643   0.00000  Uiso   1.00
H740   H     0.12377   0.25789   0.72357   0.00000  Uiso   1.00
C741   C     0.66628   0.08745   0.75033   0.00000  Uiso   1.00
C742   C     0.33361   0.24589   0.74994   0.00000  Uiso   1.00
C743   C     0.52592   0.19497   0.54267   0.00000  Uiso   1.00
C744   C     0.47095   0.16871   0.95262   0.00000  Uiso   1.00
C745   C     0.57441   0.20062   0.51916   0.00000  Uiso   1.00
C746   C     0.42242   0.16337   0.97583   0.00000  Uiso   1.00
C747   C     0.62960   0.02102   0.73863   0.00000  Uiso   1.00
C748   C     0.36963   0.31231   0.76267   0.00000  Uiso   1.00
C749   C     0.63013   0.31171   0.73821   0.00000  Uiso   1.00
C750   C     0.36926   0.02163   0.76285   0.00000  Uiso   1.00
C751   C     0.33361   0.29056   0.75007   0.00000  Uiso   1.00
C752   C     0.66595   0.04278   0.75075   0.00000  Uiso   1.00
C753   C     0.51561   0.13682   0.77424   0.00000  Uiso   1.00
C754   C     0.48425   0.19681   0.72608   0.00000  Uiso   1.00
C755   C     0.46683   0.13666   0.77252   0.00000  Uiso   1.00
C756   C     0.53337   0.19638   0.72702   0.00000  Uiso   1.00
C757   C     0.63919   0.16758   0.83578   0.00000  Uiso   1.00
C758   C     0.36083   0.16675   0.66414   0.00000  Uiso   1.00
C759   C     0.62378   0.17318   0.88403   0.00000  Uiso   1.00
C760   C     0.37611   0.16705   0.61522   0.00000  Uiso   1.00
C761   C     0.63973   0.19663   0.95120   0.00000  Uiso   1.00
C762   C     0.35826   0.15863   0.54500   0.00000  Uiso   1.00
C763   C     0.65637   0.18741   0.90634   0.00000  Uiso   1.00
C764   C     0.34264   0.15987   0.59127   0.00000  Uiso   1.00
C765   C     0.57472   0.16789   0.90704   0.00000  Uiso   1.00
C766   C     0.42504   0.17406   0.59240   0.00000  Uiso   1.00
C767   C     0.55673   0.17864   0.95175   0.00000  Uiso   1.00
C768   C     0.44156   0.17422   0.54558   0.00000  Uiso   1.00
C769   C     0.59036   0.19196   0.97415   0.00000  Uiso   1.00
C770   C     0.40735   0.16540   0.52204   0.00000  Uiso   1.00
C771   C     0.50647   0.17589   0.97490   0.00000  Uiso   1.00
C772   C     0.49121   0.18151   0.52165   0.00000  Uiso   1.00
Cu773  Cu    0.38022   0.16667   0.75000   0.00000  Uiso   1.00
Cu774  Cu    0.61978   0.16666   0.75000   0.00000  Uiso   1.00
H775   H     0.59968   0.21134   0.53654   0.00000  Uiso   1.00
H776   H     0.39660   0.15718   0.95739   0.00000  Uiso   1.00
H777   H     0.44974   0.17821   0.61210   0.00000  Uiso   1.00
H778   H     0.55132   0.15476   0.88935   0.00000  Uiso   1.00
H779   H     0.63792   0.15433   0.60830   0.00000  Uiso   1.00
H780   H     0.36112   0.19222   0.88896   0.00000  Uiso   1.00
H781   H     0.66533   0.20800   0.96785   0.00000  Uiso   1.00
H782   H     0.66533   0.15192   0.52719   0.00000  Uiso   1.00
H783   H     0.51656   0.20277   0.57709   0.00000  Uiso   1.00
H784   H     0.47936   0.16854   0.91689   0.00000  Uiso   1.00
H785   H     0.60129   0.03690   0.72885   0.00000  Uiso   1.00
H786   H     0.39757   0.29646   0.77301   0.00000  Uiso   1.00
H787   H     0.60199   0.29538   0.72827   0.00000  Uiso   1.00
H788   H     0.39737   0.03797   0.77282   0.00000  Uiso   1.00
H789   H     0.44121   0.11278   0.78990   0.00000  Uiso   1.00
H790   H     0.55933   0.21997   0.70963   0.00000  Uiso   1.00
N791   N     0.45069   0.16668   0.74999   0.00000  Uiso   1.00
N792   N     0.54931   0.16666   0.75001   0.00000  Uiso   1.00
O793   O     0.37291   0.10655   0.75000   0.00000  Uiso   1.00
O794   O     0.62709   0.22678   0.75000   0.00000  Uiso   1.00
O795   O     0.62706   0.10654   0.75001   0.00000  Uiso   1.00
O796   O     0.37294   0.22679   0.75000   0.00000  Uiso   1.00
O797   O     0.35186   0.16668   0.81492   0.00000  Uiso   1.00
O798   O     0.64814   0.16666   0.68509   0.00000  Uiso   1.00
O799   O     0.60600   0.16667   0.81492   0.00000  Uiso   1.00
O800   O     0.39400   0.16667   0.68508   0.00000  Uiso   1.00
C801   C     0.52842   0.10231   0.80257   0.00000  Uiso   1.00
C802   C     0.49041   0.09397   0.84771   0.00000  Uiso   1.00
H803   H     0.47616   0.12333   0.86269   0.00000  Uiso   1.00
H804   H     0.45997   0.07436   0.84392   0.00000  Uiso   1.00
H805   H     0.50690   0.07715   0.87096   0.00000  Uiso   1.00
H806   H     0.53325   0.07351   0.78369   0.00000  Uiso   1.00
H807   H     0.56188   0.10910   0.81094   0.00000  Uiso   1.00
C808   C     0.46988   0.23266   0.70037   0.00000  Uiso   1.00
C809   C     0.51013   0.25054   0.66034   0.00000  Uiso   1.00
H810   H     0.53474   0.27163   0.67155   0.00000  Uiso   1.00
H811   H     0.53128   0.22549   0.64121   0.00000  Uiso   1.00
H812   H     0.49399   0.26883   0.63784   0.00000  Uiso   1.00
H813   H     0.44072   0.22332   0.68643   0.00000  Uiso   1.00
H814   H     0.45711   0.25789   0.72357   0.00000  Uiso   1.00
C815   C     0.99961   0.08745   0.75033   0.00000  Uiso   1.00
C816   C     0.66695   0.24589   0.74994   0.00000  Uiso   1.00
C817   C     0.85926   0.19497   0.54267   0.00000  Uiso   1.00
C818   C     0.80428   0.16871   0.95262   0.00000  Uiso   1.00
C819   C     0.90774   0.20062   0.51916   0.00000  Uiso   1.00
C820   C     0.75575   0.16337   0.97583   0.00000  Uiso   1.00
C821   C     0.96294   0.02102   0.73863   0.00000  Uiso   1.00
C822   C     0.70296   0.31231   0.76267   0.00000  Uiso   1.00
C823   C     0.96347   0.31171   0.73821   0.00000  Uiso   1.00
C824   C     0.70259   0.02163   0.76285   0.00000  Uiso   1.00
C825   C     0.66694   0.29056   0.75007   0.00000  Uiso   1.00
C826   C     0.99928   0.04278   0.75075   0.00000  Uiso   1.00
C827   C     0.84894   0.13682   0.77424   0.00000  Uiso   1.00
C828   C     0.81758   0.19681   0.72608   0.00000  Uiso   1.00
C829   C     0.80016   0.13666   0.77252   0.00000  Uiso   1.00
C830   C     0.86670   0.19638   0.72702   0.00000  Uiso   1.00
C831   C     0.97252   0.16758   0.83578   0.00000  Uiso   1.00
C832   C     0.69416   0.16675   0.66414   0.00000  Uiso   1.00
C833   C     0.95711   0.17318   0.88403   0.00000  Uiso   1.00
C834   C     0.70944   0.16705   0.61522   0.00000  Uiso   1.00
C835   C     0.97306   0.19663   0.95120   0.00000  Uiso   1.00
C836   C     0.69160   0.15863   0.54500   0.00000  Uiso   1.00
C837   C     0.98970   0.18741   0.90634   0.00000  Uiso   1.00
C838   C     0.67597   0.15987   0.59127   0.00000  Uiso   1.00
C839   C     0.90805   0.16789   0.90704   0.00000  Uiso   1.00
C840   C     0.75837   0.17406   0.59240   0.00000  Uiso   1.00
C841   C     0.89007   0.17864   0.95175   0.00000  Uiso   1.00
C842   C     0.77489   0.17422   0.54558   0.00000  Uiso   1.00
C843   C     0.92370   0.19196   0.97415   0.00000  Uiso   1.00
C844   C     0.74069   0.16540   0.52204   0.00000  Uiso   1.00
C845   C     0.83981   0.17589   0.97490   0.00000  Uiso   1.00
C846   C     0.82454   0.18151   0.52165   0.00000  Uiso   1.00
Cu847  Cu    0.71355   0.16667   0.75000   0.00000  Uiso   1.00
Cu848  Cu    0.95311   0.16666   0.75000   0.00000  Uiso   1.00
H849   H     0.93302   0.21134   0.53654   0.00000  Uiso   1.00
H850   H     0.72993   0.15718   0.95739   0.00000  Uiso   1.00
H851   H     0.78307   0.17821   0.61210   0.00000  Uiso   1.00
H852   H     0.88466   0.15476   0.88935   0.00000  Uiso   1.00
H853   H     0.97125   0.15433   0.60830   0.00000  Uiso   1.00
H854   H     0.69445   0.19222   0.88896   0.00000  Uiso   1.00
H855   H     0.99867   0.20800   0.96785   0.00000  Uiso   1.00
H856   H     0.99866   0.15192   0.52719   0.00000  Uiso   1.00
H857   H     0.84989   0.20277   0.57709   0.00000  Uiso   1.00
H858   H     0.81269   0.16854   0.91689   0.00000  Uiso   1.00
H859   H     0.93462   0.03690   0.72885   0.00000  Uiso   1.00
H860   H     0.73091   0.29646   0.77301   0.00000  Uiso   1.00
H861   H     0.93532   0.29538   0.72827   0.00000  Uiso   1.00
H862   H     0.73070   0.03797   0.77282   0.00000  Uiso   1.00
H863   H     0.77454   0.11278   0.78990   0.00000  Uiso   1.00
H864   H     0.89266   0.21997   0.70963   0.00000  Uiso   1.00
N865   N     0.78403   0.16668   0.74999   0.00000  Uiso   1.00
N866   N     0.88264   0.16666   0.75001   0.00000  Uiso   1.00
O867   O     0.70625   0.10655   0.75000   0.00000  Uiso   1.00
O868   O     0.96042   0.22678   0.75000   0.00000  Uiso   1.00
O869   O     0.96039   0.10654   0.75001   0.00000  Uiso   1.00
O870   O     0.70628   0.22679   0.75000   0.00000  Uiso   1.00
O871   O     0.68519   0.16668   0.81492   0.00000  Uiso   1.00
O872   O     0.98148   0.16666   0.68509   0.00000  Uiso   1.00
O873   O     0.93933   0.16667   0.81492   0.00000  Uiso   1.00
O874   O     0.72733   0.16667   0.68508   0.00000  Uiso   1.00
C875   C     0.86176   0.10231   0.80257   0.00000  Uiso   1.00
C876   C     0.82375   0.09397   0.84771   0.00000  Uiso   1.00
H877   H     0.80949   0.12333   0.86269   0.00000  Uiso   1.00
H878   H     0.79330   0.07436   0.84392   0.00000  Uiso   1.00
H879   H     0.84024   0.07715   0.87096   0.00000  Uiso   1.00
H880   H     0.86659   0.07351   0.78369   0.00000  Uiso   1.00
H881   H     0.89522   0.10910   0.81094   0.00000  Uiso   1.00
C882   C     0.80322   0.23266   0.70037   0.00000  Uiso   1.00
C883   C     0.84346   0.25054   0.66034   0.00000  Uiso   1.00
H884   H     0.86808   0.27163   0.67155   0.00000  Uiso   1.00
H885   H     0.86462   0.22549   0.64121   0.00000  Uiso   1.00
H886   H     0.82733   0.26883   0.63784   0.00000  Uiso   1.00
H887   H     0.77405   0.22332   0.68643   0.00000  Uiso   1.00
H888   H     0.79044   0.25789   0.72357   0.00000  Uiso   1.00
C889   C     0.33295   0.42078   0.75033   0.00000  Uiso   1.00
C890   C     0.00028   0.57922   0.74994   0.00000  Uiso   1.00
C891   C     0.19259   0.52830   0.54267   0.00000  Uiso   1.00
C892   C     0.13762   0.50204   0.95262   0.00000  Uiso   1.00
C893   C     0.24107   0.53395   0.51916   0.00000  Uiso   1.00
C894   C     0.08908   0.49671   0.97583   0.00000  Uiso   1.00
C895   C     0.29627   0.35435   0.73863   0.00000  Uiso   1.00
C896   C     0.03630   0.64565   0.76267   0.00000  Uiso   1.00
C897   C     0.29680   0.64504   0.73821   0.00000  Uiso   1.00
C898   C     0.03592   0.35496   0.76285   0.00000  Uiso   1.00
C899   C     0.00028   0.62389   0.75007   0.00000  Uiso   1.00
C900   C     0.33262   0.37611   0.75075   0.00000  Uiso   1.00
C901   C     0.18228   0.47015   0.77424   0.00000  Uiso   1.00
C902   C     0.15092   0.53014   0.72608   0.00000  Uiso   1.00
C903   C     0.13350   0.47000   0.77252   0.00000  Uiso   1.00
C904   C     0.20004   0.52971   0.72702   0.00000  Uiso   1.00
C905   C     0.30586   0.50091   0.83578   0.00000  Uiso   1.00
C906   C     0.02749   0.50008   0.66414   0.00000  Uiso   1.00
C907   C     0.29044   0.50651   0.88403   0.00000  Uiso   1.00
C908   C     0.04278   0.50038   0.61522   0.00000  Uiso   1.00
C909   C     0.30639   0.52996   0.95120   0.00000  Uiso   1.00
C910   C     0.02493   0.49196   0.54500   0.00000  Uiso   1.00
C911   C     0.32303   0.52074   0.90634   0.00000  Uiso   1.00
C912   C     0.00931   0.49320   0.59127   0.00000  Uiso   1.00
C913   C     0.24138   0.50122   0.90704   0.00000  Uiso   1.00
C914   C     0.09170   0.50739   0.59240   0.00000  Uiso   1.00
C915   C     0.22340   0.51197   0.95175   0.00000  Uiso   1.00
C916   C     0.10823   0.50756   0.54558   0.00000  Uiso   1.00
C917   C     0.25703   0.52529   0.97415   0.00000  Uiso   1.00
C918   C     0.07402   0.49873   0.52204   0.00000  Uiso   1.00
C919   C     0.17314   0.50922   0.97490   0.00000  Uiso   1.00
C920   C     0.15788   0.51484   0.52165   0.00000  Uiso   1.00
Cu921  Cu    0.04689   0.50001   0.75000   0.00000  Uiso   1.00
Cu922  Cu    0.28645   0.49999   0.75000   0.00000  Uiso   1.00
H923   H     0.26635   0.54467   0.53654   0.00000  Uiso   1.00
H924   H     0.06327   0.49051   0.95739   0.00000  Uiso   1.00
H925   H     0.11640   0.51154   0.61210   0.00000  Uiso   1.00
H926   H     0.21799   0.48809   0.88935   0.00000  Uiso   1.00
H927   H     0.30458   0.48766   0.60830   0.00000  Uiso   1.00
H928   H     0.02778   0.52555   0.88896   0.00000  Uiso   1.00
H929   H     0.33200   0.54133   0.96785   0.00000  Uiso   1.00
H930   H     0.33199   0.48525   0.52719   0.00000  Uiso   1.00
H931   H     0.18322   0.53610   0.57709   0.00000  Uiso   1.00
H932   H     0.14602   0.50187   0.91689   0.00000  Uiso   1.00
H933   H     0.26795   0.37023   0.72885   0.00000  Uiso   1.00
H934   H     0.06424   0.62979   0.77301   0.00000  Uiso   1.00
H935   H     0.26865   0.62871   0.72827   0.00000  Uiso   1.00
H936   H     0.06404   0.37131   0.77282   0.00000  Uiso   1.00
H937   H     0.10787   0.44611   0.78990   0.00000  Uiso   1.00
H938   H     0.22600   0.55331   0.70963   0.00000  Uiso   1.00
N939   N     0.11736   0.50001   0.74999   0.00000  Uiso   1.00
N940   N     0.21597   0.49999   0.75001   0.00000  Uiso   1.00
O941   O     0.03958   0.43989   0.75000   0.00000  Uiso   1.00
O942   O     0.29375   0.56011   0.75000   0.00000  Uiso   1.00
O943   O     0.29372   0.43988   0.75001   0.00000  Uiso   1.00
O944   O     0.03961   0.56012   0.75000   0.00000  Uiso   1.00
O945   O     0.01852   0.50001   0.81492   0.00000  Uiso   1.00
O946   O     0.31481   0.49999   0.68509   0.00000  Uiso   1.00
O947   O     0.27267   0.50000   0.81492   0.00000  Uiso   1.00
O948   O     0.06067   0.50000   0.68508   0.00000  Uiso   1.00
C949   C     0.19509   0.43564   0.80257   0.00000  Uiso   1.00
C950   C     0.15708   0.42731   0.84771   0.00000  Uiso   1.00
H951   H     0.14283   0.45666   0.86269   0.00000  Uiso   1.00
H952   H     0.12663   0.40770   0.84392   0.00000  Uiso   1.00
H953   H     0.17357   0.41049   0.87096   0.00000  Uiso   1.00
H954   H     0.19992   0.40685   0.78369   0.00000  Uiso   1.00
H955   H     0.22855   0.44244   0.81094   0.00000  Uiso   1.00
C956   C     0.13655   0.56599   0.70037   0.00000  Uiso   1.00
C957   C     0.17679   0.58388   0.66034   0.00000  Uiso   1.00
H958   H     0.20141   0.60496   0.67155   0.00000  Uiso   1.00
H959   H     0.19795   0.55883   0.64121   0.00000  Uiso   1.00
H960   H     0.16066   0.60216   0.63784   0.00000  Uiso   1.00
H961   H     0.10739   0.55665   0.68643   0.00000  Uiso   1.00
H962   H     0.12377   0.59122   0.72357   0.00000  Uiso   1.00
C963   C     0.66628   0.42078   0.75033   0.00000  Uiso   1.00
C964   C     0.33361   0.57922   0.74994   0.00000  Uiso   1.00
C965   C     0.52592   0.52830   0.54267   0.00000  Uiso   1.00
C966   C     0.47095   0.50204   0.95262   0.00000  Uiso   1.00
C967   C     0.57441   0.53395   0.51916   0.00000  Uiso   1.00
C968   C     0.42242   0.49671   0.97583   0.00000  Uiso   1.00
C969   C     0.62960   0.35435   0.73863   0.00000  Uiso   1.00
C970   C     0.36963   0.64565   0.76267   0.00000  Uiso   1.00
C971   C     0.63013   0.64504   0.73821   0.00000  Uiso   1.00
C972   C     0.36926   0.35496   0.76285   0.00000  Uiso   1.00
C973   C     0.33361   0.62389   0.75007   0.00000  Uiso   1.00
C974   C     0.66595   0.37611   0.75075   0.00000  Uiso   1.00
C975   C     0.51561   0.47015   0.77424   0.00000  Uiso   1.00
C976   C     0.48425   0.53014   0.72608   0.00000  Uiso   1.00
C977   C     0.46683   0.47000   0.77252   0.00000  Uiso   1.00
C978   C     0.53337   0.52971   0.72702   0.00000  Uiso   1.00
C979   C     0.63919   0.50091   0.83578   0.00000  Uiso   1.00
C980   C     0.36083   0.50008   0.66414   0.00000  Uiso   1.00
C981   C     0.62378   0.50651   0.88403   0.00000  Uiso   1.00
C982   C     0.37611   0.50038   0.61522   0.00000  Uiso   1.00
C983   C     0.63973   0.52996   0.95120   0.00000  Uiso   1.00
C984   C     0.35826   0.49196   0.54500   0.00000  Uiso   1.00
C985   C     0.65637   0.52074   0.90634   0.00000  Uiso   1.00
C986   C     0.34264   0.49320   0.59127   0.00000  Uiso   1.00
C987   C     0.57472   0.50122   0.90704   0.00000  Uiso   1.00
C988   C     0.42504   0.50739   0.59240   0.00000  Uiso   1.00
C989   C     0.55673   0.51197   0.95175   0.00000  Uiso   1.00
C990   C     0.44156   0.50756   0.54558   0.00000  Uiso   1.00
C991   C     0.59036   0.52529   0.97415   0.00000  Uiso   1.00
C992   C     0.40735   0.49873   0.52204   0.00000  Uiso   1.00
C993   C     0.50647   0.50922   0.97490   0.00000  Uiso   1.00
C994   C     0.49121   0.51484   0.52165   0.00000  Uiso   1.00
Cu995  Cu    0.38022   0.50001   0.75000   0.00000  Uiso   1.00
Cu996  Cu    0.61978   0.49999   0.75000   0.00000  Uiso   1.00
H997   H     0.59968   0.54467   0.53654   0.00000  Uiso   1.00
H998   H     0.39660   0.49051   0.95739   0.00000  Uiso   1.00
H999   H     0.44974   0.51154   0.61210   0.00000  Uiso   1.00
H1000  H     0.55132   0.48809   0.88935   0.00000  Uiso   1.00
H1001  H     0.63792   0.48766   0.60830   0.00000  Uiso   1.00
H1002  H     0.36112   0.52555   0.88896   0.00000  Uiso   1.00
H1003  H     0.66533   0.54133   0.96785   0.00000  Uiso   1.00
H1004  H     0.66533   0.48525   0.52719   0.00000  Uiso   1.00
H1005  H     0.51656   0.53610   0.57709   0.00000  Uiso   1.00
H1006  H     0.47936   0.50187   0.91689   0.00000  Uiso   1.00
H1007  H     0.60129   0.37023   0.72885   0.00000  Uiso   1.00
H1008  H     0.39757   0.62979   0.77301   0.00000  Uiso   1.00
H1009  H     0.60199   0.62871   0.72827   0.00000  Uiso   1.00
H1010  H     0.39737   0.37131   0.77282   0.00000  Uiso   1.00
H1011  H     0.44121   0.44611   0.78990   0.00000  Uiso   1.00
H1012  H     0.55933   0.55331   0.70963   0.00000  Uiso   1.00
N1013  N     0.45069   0.50001   0.74999   0.00000  Uiso   1.00
N1014  N     0.54931   0.49999   0.75001   0.00000  Uiso   1.00
O1015  O     0.37291   0.43989   0.75000   0.00000  Uiso   1.00
O1016  O     0.62709   0.56011   0.75000   0.00000  Uiso   1.00
O1017  O     0.62706   0.43988   0.75001   0.00000  Uiso   1.00
O1018  O     0.37294   0.56012   0.75000   0.00000  Uiso   1.00
O1019  O     0.35186   0.50001   0.81492   0.00000  Uiso   1.00
O1020  O     0.64814   0.49999   0.68509   0.00000  Uiso   1.00
O1021  O     0.60600   0.50000   0.81492   0.00000  Uiso   1.00
O1022  O     0.39400   0.50000   0.68508   0.00000  Uiso   1.00
C1023  C     0.52842   0.43564   0.80257   0.00000  Uiso   1.00
C1024  C     0.49041   0.42731   0.84771   0.00000  Uiso   1.00
H1025  H     0.47616   0.45666   0.86269   0.00000  Uiso   1.00
H1026  H     0.45997   0.40770   0.84392   0.00000  Uiso   1.00
H1027  H     0.50690   0.41049   0.87096   0.00000  Uiso   1.00
H1028  H     0.53325   0.40685   0.78369   0.00000  Uiso   1.00
H1029  H     0.56188   0.44244   0.81094   0.00000  Uiso   1.00
C1030  C     0.46988   0.56599   0.70037   0.00000  Uiso   1.00
C1031  C     0.51013   0.58388   0.66034   0.00000  Uiso   1.00
H1032  H     0.53474   0.60496   0.67155   0.00000  Uiso   1.00
H1033  H     0.53128   0.55883   0.64121   0.00000  Uiso   1.00
H1034  H     0.49399   0.60216   0.63784   0.00000  Uiso   1.00
H1035  H     0.44072   0.55665   0.68643   0.00000  Uiso   1.00
H1036  H     0.45711   0.59122   0.72357   0.00000  Uiso   1.00
C1037  C     0.99961   0.42078   0.75033   0.00000  Uiso   1.00
C1038  C     0.66695   0.57922   0.74994   0.00000  Uiso   1.00
C1039  C     0.85926   0.52830   0.54267   0.00000  Uiso   1.00
C1040  C     0.80428   0.50204   0.95262   0.00000  Uiso   1.00
C1041  C     0.90774   0.53395   0.51916   0.00000  Uiso   1.00
C1042  C     0.75575   0.49671   0.97583   0.00000  Uiso   1.00
C1043  C     0.96294   0.35435   0.73863   0.00000  Uiso   1.00
C1044  C     0.70296   0.64565   0.76267   0.00000  Uiso   1.00
C1045  C     0.96347   0.64504   0.73821   0.00000  Uiso   1.00
C1046  C     0.70259   0.35496   0.76285   0.00000  Uiso   1.00
C1047  C     0.66694   0.62389   0.75007   0.00000  Uiso   1.00
C1048  C     0.99928   0.37611   0.75075   0.00000  Uiso   1.00
C1049  C     0.84894   0.47015   0.77424   0.00000  Uiso   1.00
C1050  C     0.81758   0.53014   0.72608   0.00000  Uiso   1.00
C1051  C     0.80016   0.47000   0.77252   0.00000  Uiso   1.00
C1052  C     0.86670   0.52971   0.72702   0.00000  Uiso   1.00
C1053  C     0.97252   0.50091   0.83578   0.00000  Uiso   1.00
C1054  C     0.69416   0.50008   0.66414   0.00000  Uiso   1.00
C1055  C     0.95711   0.50651   0.88403   0.00000  Uiso   1.00
C1056  C     0.70944   0.50038   0.61522   0.00000  Uiso   1.00
C1057  C     0.97306   0.52996   0.95120   0.00000  Uiso   1.00
C1058  C     0.69160   0.49196   0.54500   0.00000  Uiso   1.00
C1059  C     0.98970   0.52074   0.90634   0.00000  Uiso   1.00
C1060  C     0.67597   0.49320   0.59127   0.00000  Uiso   1.00
C1061  C     0.90805   0.50122   0.90704   0.00000  Uiso   1.00
C1062  C     0.75837   0.50739   0.59240   0.00000  Uiso   1.00
C1063  C     0.89007   0.51197   0.95175   0.00000  Uiso   1.00
C1064  C     0.77489   0.50756   0.54558   0.00000  Uiso   1.00
C1065  C     0.92370   0.52529   0.97415   0.00000  Uiso   1.00
C1066  C     0.74069   0.49873   0.52204   0.00000  Uiso   1.00
C1067  C     0.83981   0.50922   0.97490   0.00000  Uiso   1.00
C1068  C     0.82454   0.51484   0.52165   0.00000  Uiso   1.00
Cu1069 Cu    0.71355   0.50001   0.75000   0.00000  Uiso   1.00
Cu1070 Cu    0.95311   0.49999   0.75000   0.00000  Uiso   1.00
H1071  H     0.93302   0.54467   0.53654   0.00000  Uiso   1.00
H1072  H     0.72993   0.49051   0.95739   0.00000  Uiso   1.00
H1073  H     0.78307   0.51154   0.61210   0.00000  Uiso   1.00
H1074  H     0.88466   0.48809   0.88935   0.00000  Uiso   1.00
H1075  H     0.97125   0.48766   0.60830   0.00000  Uiso   1.00
H1076  H     0.69445   0.52555   0.88896   0.00000  Uiso   1.00
H1077  H     0.99867   0.54133   0.96785   0.00000  Uiso   1.00
H1078  H     0.99866   0.48525   0.52719   0.00000  Uiso   1.00
H1079  H     0.84989   0.53610   0.57709   0.00000  Uiso   1.00
H1080  H     0.81269   0.50187   0.91689   0.00000  Uiso   1.00
H1081  H     0.93462   0.37023   0.72885   0.00000  Uiso   1.00
H1082  H     0.73091   0.62979   0.77301   0.00000  Uiso   1.00
H1083  H     0.93532   0.62871   0.72827   0.00000  Uiso   1.00
H1084  H     0.73070   0.37131   0.77282   0.00000  Uiso   1.00
H1085  H     0.77454   0.44611   0.78990   0.00000  Uiso   1.00
H1086  H     0.89266   0.55331   0.70963   0.00000  Uiso   1.00
N1087  N     0.78403   0.50001   0.74999   0.00000  Uiso   1.00
N1088  N     0.88264   0.49999   0.75001   0.00000  Uiso   1.00
O1089  O     0.70625   0.43989   0.75000   0.00000  Uiso   1.00
O1090  O     0.96042   0.56011   0.75000   0.00000  Uiso   1.00
O1091  O     0.96039   0.43988   0.75001   0.00000  Uiso   1.00
O1092  O     0.70628   0.56012   0.75000   0.00000  Uiso   1.00
O1093  O     0.68519   0.50001   0.81492   0.00000  Uiso   1.00
O1094  O     0.98148   0.49999   0.68509   0.00000  Uiso   1.00
O1095  O     0.93933   0.50000   0.81492   0.00000  Uiso   1.00
O1096  O     0.72733   0.50000   0.68508   0.00000  Uiso   1.00
C1097  C     0.86176   0.43564   0.80257   0.00000  Uiso   1.00
C1098  C     0.82375   0.42731   0.84771   0.00000  Uiso   1.00
H1099  H     0.80949   0.45666   0.86269   0.00000  Uiso   1.00
H1100  H     0.79330   0.40770   0.84392   0.00000  Uiso   1.00
H1101  H     0.84024   0.41049   0.87096   0.00000  Uiso   1.00
H1102  H     0.86659   0.40685   0.78369   0.00000  Uiso   1.00
H1103  H     0.89522   0.44244   0.81094   0.00000  Uiso   1.00
C1104  C     0.80322   0.56599   0.70037   0.00000  Uiso   1.00
C1105  C     0.84346   0.58388   0.66034   0.00000  Uiso   1.00
H1106  H     0.86808   0.60496   0.67155   0.00000  Uiso   1.00
H1107  H     0.86462   0.55883   0.64121   0.00000  Uiso   1.00
H1108  H     0.82733   0.60216   0.63784   0.00000  Uiso   1.00
H1109  H     0.77405   0.55665   0.68643   0.00000  Uiso   1.00
H1110  H     0.79044   0.59122   0.72357   0.00000  Uiso   1.00
C1111  C     0.33295   0.75411   0.75033   0.00000  Uiso   1.00
C1112  C     0.00028   0.91256   0.74994   0.00000  Uiso   1.00
C1113  C     0.19259   0.86164   0.54267   0.00000  Uiso   1.00
C1114  C     0.13762   0.83538   0.95262   0.00000  Uiso   1.00
C1115  C     0.24107   0.86728   0.51916   0.00000  Uiso   1.00
C1116  C     0.08908   0.83004   0.97583   0.00000  Uiso   1.00
C1117  C     0.29627   0.68769   0.73863   0.00000  Uiso   1.00
C1118  C     0.03630   0.97898   0.76267   0.00000  Uiso   1.00
C1119  C     0.29680   0.97838   0.73821   0.00000  Uiso   1.00
C1120  C     0.03592   0.68830   0.76285   0.00000  Uiso   1.00
C1121  C     0.00028   0.95722   0.75007   0.00000  Uiso   1.00
C1122  C     0.33262   0.70945   0.75075   0.00000  Uiso   1.00
C1123  C     0.18228   0.80349   0.77424   0.00000  Uiso   1.00
C1124  C     0.15092   0.86348   0.72608   0.00000  Uiso   1.00
C1125  C     0.13350   0.80333   0.77252   0.00000  Uiso   1.00
C1126  C     0.20004   0.86305   0.72702   0.00000  Uiso   1.00
C1127  C     0.30586   0.83424   0.83578   0.00000  Uiso   1.00
C1128  C     0.02749   0.83342   0.66414   0.00000  Uiso   1.00
C1129  C     0.29044   0.83985   0.88403   0.00000  Uiso   1.00
C1130  C     0.04278   0.83371   0.61522   0.00000  Uiso   1.00
C1131  C     0.30639   0.86330   0.95120   0.00000  Uiso   1.00
C1132  C     0.02493   0.82530   0.54500   0.00000  Uiso   1.00
C1133  C     0.32303   0.85408   0.90634   0.00000  Uiso   1.00
C1134  C     0.00931   0.82654   0.59127   0.00000  Uiso   1.00
C1135  C     0.24138   0.83455   0.90704   0.00000  Uiso   1.00
C1136  C     0.09170   0.84073   0.59240   0.00000  Uiso   1.00
C1137  C     0.22340   0.84531   0.95175   0.00000  Uiso   1.00
C1138  C     0.10823   0.84089   0.54558   0.00000  Uiso   1.00
C1139  C     0.25703   0.85863   0.97415   0.00000  Uiso   1.00
C1140  C     0.07402   0.83207   0.52204   0.00000  Uiso   1.00
C1141  C     0.17314   0.84255   0.97490   0.00000  Uiso   1.00
C1142  C     0.15788   0.84818   0.52165   0.00000  Uiso   1.00
Cu1143 Cu    0.04689   0.83334   0.75000   0.00000  Uiso   1.00
Cu1144 Cu    0.28645   0.83333   0.75000   0.00000  Uiso   1.00
H1145  H     0.26635   0.87800   0.53654   0.00000  Uiso   1.00
H1146  H     0.06327   0.82384   0.95739   0.00000  Uiso   1.00
H1147  H     0.11640   0.84487   0.61210   0.00000  Uiso   1.00
H1148  H     0.21799   0.82142   0.88935   0.00000  Uiso   1.00
H1149  H     0.30458   0.82100   0.60830   0.00000  Uiso   1.00
H1150  H     0.02778   0.85888   0.88896   0.00000  Uiso   1.00
H1151  H     0.33200   0.87467   0.96785   0.00000  Uiso   1.00
H1152  H     0.33199   0.81858   0.52719   0.00000  Uiso   1.00
H1153  H     0.18322   0.86943   0.57709   0.00000  Uiso   1.00
H1154  H     0.14602   0.83520   0.91689   0.00000  Uiso   1.00
H1155  H     0.26795   0.70357   0.72885   0.00000  Uiso   1.00
H1156  H     0.06424   0.96313   0.77301   0.00000  Uiso   1.00
H1157  H     0.26865   0.96204   0.72827   0.00000  Uiso   1.00
H1158  H     0.06404   0.70464   0.77282   0.00000  Uiso   1.00
H1159  H     0.10787   0.77945   0.78990   0.00000  Uiso   1.00
H1160  H     0.22600   0.88664   0.70963   0.00000  Uiso   1.00
N1161  N     0.11736   0.83334   0.74999   0.00000  Uiso   1.00
N1162  N     0.21597   0.83332   0.75001   0.00000  Uiso   1.00
O1163  O     0.03958   0.77322   0.75000   0.00000  Uiso   1.00
O1164  O     0.29375   0.89345   0.75000   0.00000  Uiso   1.00
O1165  O     0.29372   0.77321   0.75001   0.00000  Uiso   1.00
O1166  O     0.03961   0.89346   0.75000   0.00000  Uiso   1.00
O1167  O     0.01852   0.83334   0.81492   0.00000  Uiso   1.00
O1168  O     0.31481   0.83332   0.68509   0.00000  Uiso   1.00
O1169  O     0.27267   0.83333   0.81492   0.00000  Uiso   1.00
O1170  O     0.06067   0.83333   0.68508   0.00000  Uiso   1.00
C1171  C     0.19509   0.76897   0.80257   0.00000  Uiso   1.00
C1172  C     0.15708   0.76064   0.84771   0.00000  Uiso   1.00
H1173  H     0.14283   0.78999   0.86269   0.00000  Uiso   1.00
H1174  H     0.12663   0.74103   0.84392   0.00000  Uiso   1.00
H1175  H     0.17357   0.74382   0.87096   0.00000  Uiso   1.00
H1176  H     0.19992   0.74018   0.78369   0.00000  Uiso   1.00
H1177  H     0.22855   0.77577   0.81094   0.00000  Uiso   1.00
C1178  C     0.13655   0.89933   0.70037   0.00000  Uiso   1.00
C1179  C     0.17679   0.91721   0.66034   0.00000  Uiso   1.00
H1180  H     0.20141   0.93830   0.67155   0.00000  Uiso   1.00
H1181  H     0.19795   0.89216   0.64121   0.00000  Uiso   1.00
H1182  H     0.16066   0.93550   0.63784   0.00000  Uiso   1.00
H1183  H     0.10739   0.88999   0.68643   0.00000  Uiso   1.00
H1184  H     0.12377   0.92455   0.72357   0.00000  Uiso   1.00
C1185  C     0.66628   0.75411   0.75033   0.00000  Uiso   1.00
C1186  C     0.33361   0.91256   0.74994   0.00000  Uiso   1.00
C1187  C     0.52592   0.86164   0.54267   0.00000  Uiso   1.00
C1188  C     0.47095   0.83538   0.95262   0.00000  Uiso   1.00
C1189  C     0.57441   0.86728   0.51916   0.00000  Uiso   1.00
C1190  C     0.42242   0.83004   0.97583   0.00000  Uiso   1.00
C1191  C     0.62960   0.68769   0.73863   0.00000  Uiso   1.00
C1192  C     0.36963   0.97898   0.76267   0.00000  Uiso   1.00
C1193  C     0.63013   0.97838   0.73821   0.00000  Uiso   1.00
C1194  C     0.36926   0.68830   0.76285   0.00000  Uiso   1.00
C1195  C     0.33361   0.95722   0.75007   0.00000  Uiso   1.00
C1196  C     0.66595   0.70945   0.75075   0.00000  Uiso   1.00
C1197  C     0.51561   0.80349   0.77424   0.00000  Uiso   1.00
C1198  C     0.48425   0.86348   0.72608   0.00000  Uiso   1.00
C1199  C     0.46683   0.80333   0.77252   0.00000  Uiso   1.00
C1200  C     0.53337   0.86305   0.72702   0.00000  Uiso   1.00
C1201  C     0.63919   0.83424   0.83578   0.00000  Uiso   1.00
C1202  C     0.36083   0.83342   0.66414   0.00000  Uiso   1.00
C1203  C     0.62378   0.83985   0.88403   0.00000  Uiso   1.00
C1204  C     0.37611   0.83371   0.61522   0.00000  Uiso   1.00
C1205  C     0.63973   0.86330   0.95120   0.00000  Uiso   1.00
C1206  C     0.35826   0.82530   0.54500   0.00000  Uiso   1.00
C1207  C     0.65637   0.85408   0.90634   0.00000  Uiso   1.00
C1208  C     0.34264   0.82654   0.59127   0.00000  Uiso   1.00
C1209  C     0.57472   0.83455   0.90704   0.00000  Uiso   1.00
C1210  C     0.42504   0.84073   0.59240   0.00000  Uiso   1.00
C1211  C     0.55673   0.84531   0.95175   0.00000  Uiso   1.00
C1212  C     0.44156   0.84089   0.54558   0.00000  Uiso   1.00
C1213  C     0.59036   0.85863   0.97415   0.00000  Uiso   1.00
C1214  C     0.40735   0.83207   0.52204   0.00000  Uiso   1.00
C1215  C     0.50647   0.84255   0.97490   0.00000  Uiso   1.00
C1216  C     0.49121   0.84818   0.52165   0.00000  Uiso   1.00
Cu1217 Cu    0.38022   0.83334   0.75000   0.00000  Uiso   1.00
Cu1218 Cu    0.61978   0.83333   0.75000   0.00000  Uiso   1.00
H1219  H     0.59968   0.87800   0.53654   0.00000  Uiso   1.00
H1220  H     0.39660   0.82384   0.95739   0.00000  Uiso   1.00
H1221  H     0.44974   0.84487   0.61210   0.00000  Uiso   1.00
H1222  H     0.55132   0.82142   0.88935   0.00000  Uiso   1.00
H1223  H     0.63792   0.82100   0.60830   0.00000  Uiso   1.00
H1224  H     0.36112   0.85888   0.88896   0.00000  Uiso   1.00
H1225  H     0.66533   0.87467   0.96785   0.00000  Uiso   1.00
H1226  H     0.66533   0.81858   0.52719   0.00000  Uiso   1.00
H1227  H     0.51656   0.86943   0.57709   0.00000  Uiso   1.00
H1228  H     0.47936   0.83520   0.91689   0.00000  Uiso   1.00
H1229  H     0.60129   0.70357   0.72885   0.00000  Uiso   1.00
H1230  H     0.39757   0.96313   0.77301   0.00000  Uiso   1.00
H1231  H     0.60199   0.96204   0.72827   0.00000  Uiso   1.00
H1232  H     0.39737   0.70464   0.77282   0.00000  Uiso   1.00
H1233  H     0.44121   0.77945   0.78990   0.00000  Uiso   1.00
H1234  H     0.55933   0.88664   0.70963   0.00000  Uiso   1.00
N1235  N     0.45069   0.83334   0.74999   0.00000  Uiso   1.00
N1236  N     0.54931   0.83332   0.75001   0.00000  Uiso   1.00
O1237  O     0.37291   0.77322   0.75000   0.00000  Uiso   1.00
O1238  O     0.62709   0.89345   0.75000   0.00000  Uiso   1.00
O1239  O     0.62706   0.77321   0.75001   0.00000  Uiso   1.00
O1240  O     0.37294   0.89346   0.75000   0.00000  Uiso   1.00
O1241  O     0.35186   0.83334   0.81492   0.00000  Uiso   1.00
O1242  O     0.64814   0.83332   0.68509   0.00000  Uiso   1.00
O1243  O     0.60600   0.83333   0.81492   0.00000  Uiso   1.00
O1244  O     0.39400   0.83333   0.68508   0.00000  Uiso   1.00
C1245  C     0.52842   0.76897   0.80257   0.00000  Uiso   1.00
C1246  C     0.49041   0.76064   0.84771   0.00000  Uiso   1.00
H1247  H     0.47616   0.78999   0.86269   0.00000  Uiso   1.00
H1248  H     0.45997   0.74103   0.84392   0.00000  Uiso   1.00
H1249  H     0.50690   0.74382   0.87096   0.00000  Uiso   1.00
H1250  H     0.53325   0.74018   0.78369   0.00000  Uiso   1.00
H1251  H     0.56188   0.77577   0.81094   0.00000  Uiso   1.00
C1252  C     0.46988   0.89933   0.70037   0.00000  Uiso   1.00
C1253  C     0.51013   0.91721   0.66034   0.00000  Uiso   1.00
H1254  H     0.53474   0.93830   0.67155   0.00000  Uiso   1.00
H1255  H     0.53128   0.89216   0.64121   0.00000  Uiso   1.00
H1256  H     0.49399   0.93550   0.63784   0.00000  Uiso   1.00
H1257  H     0.44072   0.88999   0.68643   0.00000  Uiso   1.00
H1258  H     0.45711   0.92455   0.72357   0.00000  Uiso   1.00
C1259  C     0.99961   0.75411   0.75033   0.00000  Uiso   1.00
C1260  C     0.66695   0.91256   0.74994   0.00000  Uiso   1.00
C1261  C     0.85926   0.86164   0.54267   0.00000  Uiso   1.00
C1262  C     0.80428   0.83538   0.95262   0.00000  Uiso   1.00
C1263  C     0.90774   0.86728   0.51916   0.00000  Uiso   1.00
C1264  C     0.75575   0.83004   0.97583   0.00000  Uiso   1.00
C1265  C     0.96294   0.68769   0.73863   0.00000  Uiso   1.00
C1266  C     0.70296   0.97898   0.76267   0.00000  Uiso   1.00
C1267  C     0.96347   0.97838   0.73821   0.00000  Uiso   1.00
C1268  C     0.70259   0.68830   0.76285   0.00000  Uiso   1.00
C1269  C     0.66694   0.95722   0.75007   0.00000  Uiso   1.00
C1270  C     0.99928   0.70945   0.75075   0.00000  Uiso   1.00
C1271  C     0.84894   0.80349   0.77424   0.00000  Uiso   1.00
C1272  C     0.81758   0.86348   0.72608   0.00000  Uiso   1.00
C1273  C     0.80016   0.80333   0.77252   0.00000  Uiso   1.00
C1274  C     0.86670   0.86305   0.72702   0.00000  Uiso   1.00
C1275  C     0.97252   0.83424   0.83578   0.00000  Uiso   1.00
C1276  C     0.69416   0.83342   0.66414   0.00000  Uiso   1.00
C1277  C     0.95711   0.83985   0.88403   0.00000  Uiso   1.00
C1278  C     0.70944   0.83371   0.61522   0.00000  Uiso   1.00
C1279  C     0.97306   0.86330   0.95120   0.00000  Uiso   1.00
C1280  C     0.69160   0.82530   0.54500   0.00000  Uiso   1.00
C1281  C     0.98970   0.85408   0.90634   0.00000  Uiso   1.00
C1282  C     0.67597   0.82654   0.59127   0.00000  Uiso   1.00
C1283  C     0.90805   0.83455   0.90704   0.00000  Uiso   1.00
C1284  C     0.75837   0.84073   0.59240   0.00000  Uiso   1.00
C1285  C     0.89007   0.84531   0.95175   0.00000  Uiso   1.00
C1286  C     0.77489   0.84089   0.54558   0.00000  Uiso   1.00
C1287  C     0.92370   0.85863   0.97415   0.00000  Uiso   1.00
C1288  C     0.74069   0.83207   0.52204   0.00000  Uiso   1.00
C1289  C     0.83981   0.84255   0.97490   0.00000  Uiso   1.00
C1290  C     0.82454   0.84818   0.52165   0.00000  Uiso   1.00
Cu1291 Cu    0.71355   0.83334   0.75000   0.00000  Uiso   1.00
Cu1292 Cu    0.95311   0.83333   0.75000   0.00000  Uiso   1.00
H1293  H     0.93302   0.87800   0.53654   0.00000  Uiso   1.00
H1294  H     0.72993   0.82384   0.95739   0.00000  Uiso   1.00
H1295  H     0.78307   0.84487   0.61210   0.00000  Uiso   1.00
H1296  H     0.88466   0.82142   0.88935   0.00000  Uiso   1.00
H1297  H     0.97125   0.82100   0.60830   0.00000  Uiso   1.00
H1298  H     0.69445   0.85888   0.88896   0.00000  Uiso   1.00
H1299  H     0.99867   0.87467   0.96785   0.00000  Uiso   1.00
H1300  H     0.99866   0.81858   0.52719   0.00000  Uiso   1.00
H1301  H     0.84989   0.86943   0.57709   0.00000  Uiso   1.00
H1302  H     0.81269   0.83520   0.91689   0.00000  Uiso   1.00
H1303  H     0.93462   0.70357   0.72885   0.00000  Uiso   1.00
H1304  H     0.73091   0.96313   0.77301   0.00000  Uiso   1.00
H1305  H     0.93532   0.96204   0.72827   0.00000  Uiso   1.00
H1306  H     0.73070   0.70464   0.77282   0.00000  Uiso   1.00
H1307  H     0.77454   0.77945   0.78990   0.00000  Uiso   1.00
H1308  H     0.89266   0.88664   0.70963   0.00000  Uiso   1.00
N1309  N     0.78403   0.83334   0.74999   0.00000  Uiso   1.00
N1310  N     0.88264   0.83332   0.75001   0.00000  Uiso   1.00
O1311  O     0.70625   0.77322   0.75000   0.00000  Uiso   1.00
O1312  O     0.96042   0.89345   0.75000   0.00000  Uiso   1.00
O1313  O     0.96039   0.77321   0.75001   0.00000  Uiso   1.00
O1314  O     0.70628   0.89346   0.75000   0.00000  Uiso   1.00
O1315  O     0.68519   0.83334   0.81492   0.00000  Uiso   1.00
O1316  O     0.98148   0.83332   0.68509   0.00000  Uiso   1.00
O1317  O     0.93933   0.83333   0.81492   0.00000  Uiso   1.00
O1318  O     0.72733   0.83333   0.68508   0.00000  Uiso   1.00
C1319  C     0.86176   0.76897   0.80257   0.00000  Uiso   1.00
C1320  C     0.82375   0.76064   0.84771   0.00000  Uiso   1.00
H1321  H     0.80949   0.78999   0.86269   0.00000  Uiso   1.00
H1322  H     0.79330   0.74103   0.84392   0.00000  Uiso   1.00
H1323  H     0.84024   0.74382   0.87096   0.00000  Uiso   1.00
H1324  H     0.86659   0.74018   0.78369   0.00000  Uiso   1.00
H1325  H     0.89522   0.77577   0.81094   0.00000  Uiso   1.00
C1326  C     0.80322   0.89933   0.70037   0.00000  Uiso   1.00
C1327  C     0.84346   0.91721   0.66034   0.00000  Uiso   1.00
H1328  H     0.86808   0.93830   0.67155   0.00000  Uiso   1.00
H1329  H     0.86462   0.89216   0.64121   0.00000  Uiso   1.00
H1330  H     0.82733   0.93550   0.63784   0.00000  Uiso   1.00
H1331  H     0.77405   0.88999   0.68643   0.00000  Uiso   1.00
H1332  H     0.79044   0.92455   0.72357   0.00000  Uiso   1.00
loop_
_geom_bond_atom_site_label_1
_geom_bond_atom_site_label_2
_geom_bond_distance
_geom_bond_site_symmetry_2
_ccdc_geom_bond_type
C1     C12     1.449   .     S
C1     O55     1.301   .     A
C1     O127    1.295   .     S
C2     C11     1.449   .     S
C2     O56     1.302   .     A
C2     O202    1.295   1_455 S
C3     H43     1.073   .     S
C3     C5      1.387   .     A
C3     C32     1.415   .     A
C4     C6      1.385   .     A
C4     H44     1.075   .     S
C4     C31     1.413   .     A
C5     H35     1.084   .     S
C5     C695    1.391   1_554 S
C6     H36     1.083   .     S
C6     C696    1.391   .     S
C7     H45     1.083   .     S
C7     C12     1.398   .     A
C7     C453    1.384   1_545 S
C8     C11     1.398   .     A
C8     H46     1.082   .     S
C8     C232    1.384   .     S
C9     H47     1.084   .     S
C9     C229    1.384   .     S
C9     C85     1.403   .     S
C10    H48     1.083   .     S
C10    C452    1.384   1_545 S
C10    C160    1.403   1_455 S
C11    C157    1.403   1_455 S
C12    C84     1.403   .     S
C13    N52     1.399   .     A
C13    C15     1.422   .     A
C13    C61     1.522   .     S
C14    C16     1.425   .     A
C14    N51     1.400   .     A
C14    C68     1.524   .     S
C15    N51     1.350   .     A
C15    H49     1.080   .     S
C16    H50     1.079   .     S
C16    N52     1.349   .     A
C17    O59     1.303   .     A
C17    C19     1.466   .     S
C17    O131    1.302   .     S
C18    O60     1.304   .     A
C18    C20     1.467   .     S
C18    O206    1.301   1_455 S
C19    C23     1.400   .     A
C19    C25     1.397   .     A
C20    C24     1.400   .     A
C20    C26     1.398   .     A
C21    C29     1.402   .     A
C21    H41     1.083   .     S
C21    C23     1.392   .     A
C22    C24     1.391   .     A
C22    C30     1.402   .     A
C22    H190    1.083   1_455 S
C23    H114    1.083   .     S
C24    H187    1.083   1_455 S
C25    H38     1.077   .     S
C25    C27     1.405   .     A
C26    H37     1.076   .     S
C26    C28     1.406   .     A
C27    C29     1.417   .     A
C27    C31     1.423   .     A
C28    C32     1.425   .     A
C28    C30     1.419   .     A
C29    C671    1.391   .     S
C30    C672    1.391   1_554 S
C31    C698    1.422   .     S
C32    C697    1.422   1_554 S
Cu33   O56     1.965   .     S
Cu33   O53     1.958   .     S
Cu33   O60     1.956   .     S
Cu33   O57     1.962   .     S
Cu33   N51     2.031   .     S
Cu33   Cu182   2.703   1_455 S
Cu34   O55     1.965   .     S
Cu34   O59     1.956   .     S
Cu34   N52     2.031   .     S
Cu34   O54     1.958   .     S
Cu34   O58     1.962   .     S
Cu34   Cu107   2.703   .     S
H39    C98     1.083   .     S
H40    C171    1.083   1_455 S
H42    C96     1.083   .     S
O53    C149    1.295   1_455 S
O54    C76     1.295   .     S
O57    C165    1.302   1_455 S
O58    C92     1.301   .     S
C61    H66     1.111   .     S
C61    C62     1.534   .     S
C61    H67     1.089   .     S
C62    H64     1.110   .     S
C62    H63     1.108   .     S
C62    H65     1.111   .     S
C68    H74     1.108   .     S
C68    C69     1.534   .     S
C68    H73     1.094   .     S
C69    H71     1.109   .     S
C69    H70     1.111   .     S
C69    H72     1.111   .     S
C75    C86     1.449   .     S
C75    O129    1.301   .     A
C75    O201    1.295   .     S
C76    C85     1.449   .     S
C76    O130    1.302   .     A
C77    H117    1.073   .     S
C77    C79     1.387   .     A
C77    C106    1.415   .     A
C78    C80     1.385   .     A
C78    H118    1.075   .     S
C78    C105    1.413   .     A
C79    H109    1.084   .     S
C79    C769    1.391   1_554 S
C80    H110    1.083   .     S
C80    C770    1.391   .     S
C81    H119    1.083   .     S
C81    C86     1.398   .     A
C81    C527    1.384   1_545 S
C82    C85     1.398   .     A
C82    H120    1.082   .     S
C82    C306    1.384   .     S
C83    H121    1.084   .     S
C83    C303    1.384   .     S
C83    C159    1.403   .     S
C84    H122    1.083   .     S
C84    C526    1.384   1_545 S
C86    C158    1.403   .     S
C87    N126    1.399   .     A
C87    C89     1.422   .     A
C87    C135    1.522   .     S
C88    C90     1.425   .     A
C88    N125    1.400   .     A
C88    C142    1.524   .     S
C89    N125    1.350   .     A
C89    H123    1.080   .     S
C90    H124    1.079   .     S
C90    N126    1.349   .     A
C91    O133    1.303   .     A
C91    C93     1.466   .     S
C91    O205    1.302   .     S
C92    O134    1.304   .     A
C92    C94     1.467   .     S
C93    C97     1.400   .     A
C93    C99     1.397   .     A
C94    C98     1.400   .     A
C94    C100    1.398   .     A
C95    C103    1.402   .     A
C95    H115    1.083   .     S
C95    C97     1.392   .     A
C96    C98     1.391   .     A
C96    C104    1.402   .     A
C97    H188    1.083   .     S
C99    H112    1.077   .     S
C99    C101    1.405   .     A
C100   H111    1.076   .     S
C100   C102    1.406   .     A
C101   C103    1.417   .     A
C101   C105    1.423   .     A
C102   C106    1.425   .     A
C102   C104    1.419   .     A
C103   C745    1.391   .     S
C104   C746    1.391   1_554 S
C105   C772    1.422   .     S
C106   C771    1.422   1_554 S
Cu107  O130    1.965   .     S
Cu107  O127    1.958   .     S
Cu107  O134    1.956   .     S
Cu107  O131    1.962   .     S
Cu107  N125    2.031   .     S
Cu108  O129    1.965   .     S
Cu108  O133    1.956   .     S
Cu108  N126    2.031   .     S
Cu108  O128    1.958   .     S
Cu108  O132    1.962   .     S
Cu108  Cu181   2.703   .     S
H113   C172    1.083   .     S
H116   C170    1.083   .     S
O128   C150    1.295   .     S
O132   C166    1.301   .     S
C135   H140    1.111   .     S
C135   C136    1.534   .     S
C135   H141    1.089   .     S
C136   H138    1.110   .     S
C136   H137    1.108   .     S
C136   H139    1.111   .     S
C142   H148    1.108   .     S
C142   C143    1.534   .     S
C142   H147    1.094   .     S
C143   H145    1.109   .     S
C143   H144    1.111   .     S
C143   H146    1.111   .     S
C149   C160    1.449   .     S
C149   O203    1.301   .     A
C149   O53     1.295   1_655 S
C150   C159    1.449   .     S
C150   O204    1.302   .     A
C151   H191    1.073   .     S
C151   C153    1.387   .     A
C151   C180    1.415   .     A
C152   C154    1.385   .     A
C152   H192    1.075   .     S
C152   C179    1.413   .     A
C153   H183    1.084   .     S
C153   C843    1.391   1_554 S
C154   H184    1.083   .     S
C154   C844    1.391   .     S
C155   H193    1.083   .     S
C155   C160    1.398   .     A
C155   C601    1.384   1_545 S
C156   C159    1.398   .     A
C156   H194    1.082   .     S
C156   C380    1.384   .     S
C157   H195    1.084   .     S
C157   C377    1.384   .     S
C157   C11     1.403   1_655 S
C158   H196    1.083   .     S
C158   C600    1.384   1_545 S
C160   C10     1.403   1_655 S
C161   N200    1.399   .     A
C161   C163    1.422   .     A
C161   C209    1.522   .     S
C162   C164    1.425   .     A
C162   N199    1.400   .     A
C162   C216    1.524   .     S
C163   N199    1.350   .     A
C163   H197    1.080   .     S
C164   H198    1.079   .     S
C164   N200    1.349   .     A
C165   O207    1.303   .     A
C165   C167    1.466   .     S
C165   O57     1.302   1_655 S
C166   O208    1.304   .     A
C166   C168    1.467   .     S
C167   C171    1.400   .     A
C167   C173    1.397   .     A
C168   C172    1.400   .     A
C168   C174    1.398   .     A
C169   C177    1.402   .     A
C169   H189    1.083   .     S
C169   C171    1.392   .     A
C170   C172    1.391   .     A
C170   C178    1.402   .     A
C171   H40     1.083   1_655 S
C173   H186    1.077   .     S
C173   C175    1.405   .     A
C174   H185    1.076   .     S
C174   C176    1.406   .     A
C175   C177    1.417   .     A
C175   C179    1.423   .     A
C176   C180    1.425   .     A
C176   C178    1.419   .     A
C177   C819    1.391   .     S
C178   C820    1.391   1_554 S
C179   C846    1.422   .     S
C180   C845    1.422   1_554 S
Cu181  O204    1.965   .     S
Cu181  O201    1.958   .     S
Cu181  O208    1.956   .     S
Cu181  O205    1.962   .     S
Cu181  N199    2.031   .     S
Cu182  O203    1.965   .     S
Cu182  O207    1.956   .     S
Cu182  N200    2.031   .     S
Cu182  O202    1.958   .     S
Cu182  O206    1.962   .     S
Cu182  Cu33    2.703   1_655 S
H187   C24     1.083   1_655 S
H190   C22     1.083   1_655 S
O202   C2      1.295   1_655 S
O206   C18     1.301   1_655 S
C209   H214    1.111   .     S
C209   C210    1.534   .     S
C209   H215    1.089   .     S
C210   H212    1.110   .     S
C210   H211    1.108   .     S
C210   H213    1.111   .     S
C216   H222    1.108   .     S
C216   C217    1.534   .     S
C216   H221    1.094   .     S
C217   H219    1.109   .     S
C217   H218    1.111   .     S
C217   H220    1.111   .     S
C223   C234    1.449   .     S
C223   O277    1.301   .     A
C223   O349    1.295   .     S
C224   C233    1.449   .     S
C224   O278    1.302   .     A
C224   O424    1.295   1_455 S
C225   H265    1.073   .     S
C225   C227    1.387   .     A
C225   C254    1.415   .     A
C226   C228    1.385   .     A
C226   H266    1.075   .     S
C226   C253    1.413   .     A
C227   H257    1.084   .     S
C227   C917    1.391   1_554 S
C228   H258    1.083   .     S
C228   C918    1.391   .     S
C229   H267    1.083   .     S
C229   C234    1.398   .     A
C230   C233    1.398   .     A
C230   H268    1.082   .     S
C230   C454    1.384   .     S
C231   H269    1.084   .     S
C231   C451    1.384   .     S
C231   C307    1.403   .     S
C232   H270    1.083   .     S
C232   C382    1.403   1_455 S
C233   C379    1.403   1_455 S
C234   C306    1.403   .     S
C235   N274    1.399   .     A
C235   C237    1.422   .     A
C235   C283    1.522   .     S
C236   C238    1.425   .     A
C236   N273    1.400   .     A
C236   C290    1.524   .     S
C237   N273    1.350   .     A
C237   H271    1.080   .     S
C238   H272    1.079   .     S
C238   N274    1.349   .     A
C239   O281    1.303   .     A
C239   C241    1.466   .     S
C239   O353    1.302   .     S
C240   O282    1.304   .     A
C240   C242    1.467   .     S
C240   O428    1.301   1_455 S
C241   C245    1.400   .     A
C241   C247    1.397   .     A
C242   C246    1.400   .     A
C242   C248    1.398   .     A
C243   C251    1.402   .     A
C243   H263    1.083   .     S
C243   C245    1.392   .     A
C244   C246    1.391   .     A
C244   C252    1.402   .     A
C244   H412    1.083   1_455 S
C245   H336    1.083   .     S
C246   H409    1.083   1_455 S
C247   H260    1.077   .     S
C247   C249    1.405   .     A
C248   H259    1.076   .     S
C248   C250    1.406   .     A
C249   C251    1.417   .     A
C249   C253    1.423   .     A
C250   C254    1.425   .     A
C250   C252    1.419   .     A
C251   C893    1.391   .     S
C252   C894    1.391   1_554 S
C253   C920    1.422   .     S
C254   C919    1.422   1_554 S
Cu255  O278    1.965   .     S
Cu255  O275    1.958   .     S
Cu255  O282    1.956   .     S
Cu255  O279    1.962   .     S
Cu255  N273    2.031   .     S
Cu255  Cu404   2.703   1_455 S
Cu256  O277    1.965   .     S
Cu256  O281    1.956   .     S
Cu256  N274    2.031   .     S
Cu256  O276    1.958   .     S
Cu256  O280    1.962   .     S
Cu256  Cu329   2.703   .     S
H261   C320    1.083   .     S
H262   C393    1.083   1_455 S
H264   C318    1.083   .     S
O275   C371    1.295   1_455 S
O276   C298    1.295   .     S
O279   C387    1.302   1_455 S
O280   C314    1.301   .     S
C283   H288    1.111   .     S
C283   C284    1.534   .     S
C283   H289    1.089   .     S
C284   H286    1.110   .     S
C284   H285    1.108   .     S
C284   H287    1.111   .     S
C290   H296    1.108   .     S
C290   C291    1.534   .     S
C290   H295    1.094   .     S
C291   H293    1.109   .     S
C291   H292    1.111   .     S
C291   H294    1.111   .     S
C297   C308    1.449   .     S
C297   O351    1.301   .     A
C297   O423    1.295   .     S
C298   C307    1.449   .     S
C298   O352    1.302   .     A
C299   H339    1.073   .     S
C299   C301    1.387   .     A
C299   C328    1.415   .     A
C300   C302    1.385   .     A
C300   H340    1.075   .     S
C300   C327    1.413   .     A
C301   H331    1.084   .     S
C301   C991    1.391   1_554 S
C302   H332    1.083   .     S
C302   C992    1.391   .     S
C303   H341    1.083   .     S
C303   C308    1.398   .     A
C304   C307    1.398   .     A
C304   H342    1.082   .     S
C304   C528    1.384   .     S
C305   H343    1.084   .     S
C305   C525    1.384   .     S
C305   C381    1.403   .     S
C306   H344    1.083   .     S
C308   C380    1.403   .     S
C309   N348    1.399   .     A
C309   C311    1.422   .     A
C309   C357    1.522   .     S
C310   C312    1.425   .     A
C310   N347    1.400   .     A
C310   C364    1.524   .     S
C311   N347    1.350   .     A
C311   H345    1.080   .     S
C312   H346    1.079   .     S
C312   N348    1.349   .     A
C313   O355    1.303   .     A
C313   C315    1.466   .     S
C313   O427    1.302   .     S
C314   O356    1.304   .     A
C314   C316    1.467   .     S
C315   C319    1.400   .     A
C315   C321    1.397   .     A
C316   C320    1.400   .     A
C316   C322    1.398   .     A
C317   C325    1.402   .     A
C317   H337    1.083   .     S
C317   C319    1.392   .     A
C318   C320    1.391   .     A
C318   C326    1.402   .     A
C319   H410    1.083   .     S
C321   H334    1.077   .     S
C321   C323    1.405   .     A
C322   H333    1.076   .     S
C322   C324    1.406   .     A
C323   C325    1.417   .     A
C323   C327    1.423   .     A
C324   C328    1.425   .     A
C324   C326    1.419   .     A
C325   C967    1.391   .     S
C326   C968    1.391   1_554 S
C327   C994    1.422   .     S
C328   C993    1.422   1_554 S
Cu329  O352    1.965   .     S
Cu329  O349    1.958   .     S
Cu329  O356    1.956   .     S
Cu329  O353    1.962   .     S
Cu329  N347    2.031   .     S
Cu330  O351    1.965   .     S
Cu330  O355    1.956   .     S
Cu330  N348    2.031   .     S
Cu330  O350    1.958   .     S
Cu330  O354    1.962   .     S
Cu330  Cu403   2.703   .     S
H335   C394    1.083   .     S
H338   C392    1.083   .     S
O350   C372    1.295   .     S
O354   C388    1.301   .     S
C357   H362    1.111   .     S
C357   C358    1.534   .     S
C357   H363    1.089   .     S
C358   H360    1.110   .     S
C358   H359    1.108   .     S
C358   H361    1.111   .     S
C364   H370    1.108   .     S
C364   C365    1.534   .     S
C364   H369    1.094   .     S
C365   H367    1.109   .     S
C365   H366    1.111   .     S
C365   H368    1.111   .     S
C371   C382    1.449   .     S
C371   O425    1.301   .     A
C371   O275    1.295   1_655 S
C372   C381    1.449   .     S
C372   O426    1.302   .     A
C373   H413    1.073   .     S
C373   C375    1.387   .     A
C373   C402    1.415   .     A
C374   C376    1.385   .     A
C374   H414    1.075   .     S
C374   C401    1.413   .     A
C375   H405    1.084   .     S
C375   C1065   1.391   1_554 S
C376   H406    1.083   .     S
C376   C1066   1.391   .     S
C377   H415    1.083   .     S
C377   C382    1.398   .     A
C378   C381    1.398   .     A
C378   H416    1.082   .     S
C378   C602    1.384   .     S
C379   H417    1.084   .     S
C379   C599    1.384   .     S
C379   C233    1.403   1_655 S
C380   H418    1.083   .     S
C382   C232    1.403   1_655 S
C383   N422    1.399   .     A
C383   C385    1.422   .     A
C383   C431    1.522   .     S
C384   C386    1.425   .     A
C384   N421    1.400   .     A
C384   C438    1.524   .     S
C385   N421    1.350   .     A
C385   H419    1.080   .     S
C386   H420    1.079   .     S
C386   N422    1.349   .     A
C387   O429    1.303   .     A
C387   C389    1.466   .     S
C387   O279    1.302   1_655 S
C388   O430    1.304   .     A
C388   C390    1.467   .     S
C389   C393    1.400   .     A
C389   C395    1.397   .     A
C390   C394    1.400   .     A
C390   C396    1.398   .     A
C391   C399    1.402   .     A
C391   H411    1.083   .     S
C391   C393    1.392   .     A
C392   C394    1.391   .     A
C392   C400    1.402   .     A
C393   H262    1.083   1_655 S
C395   H408    1.077   .     S
C395   C397    1.405   .     A
C396   H407    1.076   .     S
C396   C398    1.406   .     A
C397   C399    1.417   .     A
C397   C401    1.423   .     A
C398   C402    1.425   .     A
C398   C400    1.419   .     A
C399   C1041   1.391   .     S
C400   C1042   1.391   1_554 S
C401   C1068   1.422   .     S
C402   C1067   1.422   1_554 S
Cu403  O426    1.965   .     S
Cu403  O423    1.958   .     S
Cu403  O430    1.956   .     S
Cu403  O427    1.962   .     S
Cu403  N421    2.031   .     S
Cu404  O425    1.965   .     S
Cu404  O429    1.956   .     S
Cu404  N422    2.031   .     S
Cu404  O424    1.958   .     S
Cu404  O428    1.962   .     S
Cu404  Cu255   2.703   1_655 S
H409   C246    1.083   1_655 S
H412   C244    1.083   1_655 S
O424   C224    1.295   1_655 S
O428   C240    1.301   1_655 S
C431   H436    1.111   .     S
C431   C432    1.534   .     S
C431   H437    1.089   .     S
C432   H434    1.110   .     S
C432   H433    1.108   .     S
C432   H435    1.111   .     S
C438   H444    1.108   .     S
C438   C439    1.534   .     S
C438   H443    1.094   .     S
C439   H441    1.109   .     S
C439   H440    1.111   .     S
C439   H442    1.111   .     S
C445   C456    1.449   .     S
C445   O499    1.301   .     A
C445   O571    1.295   .     S
C446   C455    1.449   .     S
C446   O500    1.302   .     A
C446   O646    1.295   1_455 S
C447   H487    1.073   .     S
C447   C449    1.387   .     A
C447   C476    1.415   .     A
C448   C450    1.385   .     A
C448   H488    1.075   .     S
C448   C475    1.413   .     A
C449   H479    1.084   .     S
C449   C1139   1.391   1_554 S
C450   H480    1.083   .     S
C450   C1140   1.391   .     S
C451   H489    1.083   .     S
C451   C456    1.398   .     A
C452   C455    1.398   .     A
C452   H490    1.082   .     S
C452   C10     1.384   1_565 S
C453   H491    1.084   .     S
C453   C7      1.384   1_565 S
C453   C529    1.403   .     S
C454   H492    1.083   .     S
C454   C604    1.403   1_455 S
C455   C601    1.403   1_455 S
C456   C528    1.403   .     S
C457   N496    1.399   .     A
C457   C459    1.422   .     A
C457   C505    1.522   .     S
C458   C460    1.425   .     A
C458   N495    1.400   .     A
C458   C512    1.524   .     S
C459   N495    1.350   .     A
C459   H493    1.080   .     S
C460   H494    1.079   .     S
C460   N496    1.349   .     A
C461   O503    1.303   .     A
C461   C463    1.466   .     S
C461   O575    1.302   .     S
C462   O504    1.304   .     A
C462   C464    1.467   .     S
C462   O650    1.301   1_455 S
C463   C467    1.400   .     A
C463   C469    1.397   .     A
C464   C468    1.400   .     A
C464   C470    1.398   .     A
C465   C473    1.402   .     A
C465   H485    1.083   .     S
C465   C467    1.392   .     A
C466   C468    1.391   .     A
C466   C474    1.402   .     A
C466   H634    1.083   1_455 S
C467   H558    1.083   .     S
C468   H631    1.083   1_455 S
C469   H482    1.077   .     S
C469   C471    1.405   .     A
C470   H481    1.076   .     S
C470   C472    1.406   .     A
C471   C473    1.417   .     A
C471   C475    1.423   .     A
C472   C476    1.425   .     A
C472   C474    1.419   .     A
C473   C1115   1.391   .     S
C474   C1116   1.391   1_554 S
C475   C1142   1.422   .     S
C476   C1141   1.422   1_554 S
Cu477  O500    1.965   .     S
Cu477  O497    1.958   .     S
Cu477  O504    1.956   .     S
Cu477  O501    1.962   .     S
Cu477  N495    2.031   .     S
Cu477  Cu626   2.703   1_455 S
Cu478  O499    1.965   .     S
Cu478  O503    1.956   .     S
Cu478  N496    2.031   .     S
Cu478  O498    1.958   .     S
Cu478  O502    1.962   .     S
Cu478  Cu551   2.703   .     S
H483   C542    1.083   .     S
H484   C615    1.083   1_455 S
H486   C540    1.083   .     S
O497   C593    1.295   1_455 S
O498   C520    1.295   .     S
O501   C609    1.302   1_455 S
O502   C536    1.301   .     S
C505   H510    1.111   .     S
C505   C506    1.534   .     S
C505   H511    1.089   .     S
C506   H508    1.110   .     S
C506   H507    1.108   .     S
C506   H509    1.111   .     S
C512   H518    1.108   .     S
C512   C513    1.534   .     S
C512   H517    1.094   .     S
C513   H515    1.109   .     S
C513   H514    1.111   .     S
C513   H516    1.111   .     S
C519   C530    1.449   .     S
C519   O573    1.301   .     A
C519   O645    1.295   .     S
C520   C529    1.449   .     S
C520   O574    1.302   .     A
C521   H561    1.073   .     S
C521   C523    1.387   .     A
C521   C550    1.415   .     A
C522   C524    1.385   .     A
C522   H562    1.075   .     S
C522   C549    1.413   .     A
C523   H553    1.084   .     S
C523   C1213   1.391   1_554 S
C524   H554    1.083   .     S
C524   C1214   1.391   .     S
C525   H563    1.083   .     S
C525   C530    1.398   .     A
C526   C529    1.398   .     A
C526   H564    1.082   .     S
C526   C84     1.384   1_565 S
C527   H565    1.084   .     S
C527   C81     1.384   1_565 S
C527   C603    1.403   .     S
C528   H566    1.083   .     S
C530   C602    1.403   .     S
C531   N570    1.399   .     A
C531   C533    1.422   .     A
C531   C579    1.522   .     S
C532   C534    1.425   .     A
C532   N569    1.400   .     A
C532   C586    1.524   .     S
C533   N569    1.350   .     A
C533   H567    1.080   .     S
C534   H568    1.079   .     S
C534   N570    1.349   .     A
C535   O577    1.303   .     A
C535   C537    1.466   .     S
C535   O649    1.302   .     S
C536   O578    1.304   .     A
C536   C538    1.467   .     S
C537   C541    1.400   .     A
C537   C543    1.397   .     A
C538   C542    1.400   .     A
C538   C544    1.398   .     A
C539   C547    1.402   .     A
C539   H559    1.083   .     S
C539   C541    1.392   .     A
C540   C542    1.391   .     A
C540   C548    1.402   .     A
C541   H632    1.083   .     S
C543   H556    1.077   .     S
C543   C545    1.405   .     A
C544   H555    1.076   .     S
C544   C546    1.406   .     A
C545   C547    1.417   .     A
C545   C549    1.423   .     A
C546   C550    1.425   .     A
C546   C548    1.419   .     A
C547   C1189   1.391   .     S
C548   C1190   1.391   1_554 S
C549   C1216   1.422   .     S
C550   C1215   1.422   1_554 S
Cu551  O574    1.965   .     S
Cu551  O571    1.958   .     S
Cu551  O578    1.956   .     S
Cu551  O575    1.962   .     S
Cu551  N569    2.031   .     S
Cu552  O573    1.965   .     S
Cu552  O577    1.956   .     S
Cu552  N570    2.031   .     S
Cu552  O572    1.958   .     S
Cu552  O576    1.962   .     S
Cu552  Cu625   2.703   .     S
H557   C616    1.083   .     S
H560   C614    1.083   .     S
O572   C594    1.295   .     S
O576   C610    1.301   .     S
C579   H584    1.111   .     S
C579   C580    1.534   .     S
C579   H585    1.089   .     S
C580   H582    1.110   .     S
C580   H581    1.108   .     S
C580   H583    1.111   .     S
C586   H592    1.108   .     S
C586   C587    1.534   .     S
C586   H591    1.094   .     S
C587   H589    1.109   .     S
C587   H588    1.111   .     S
C587   H590    1.111   .     S
C593   C604    1.449   .     S
C593   O647    1.301   .     A
C593   O497    1.295   1_655 S
C594   C603    1.449   .     S
C594   O648    1.302   .     A
C595   H635    1.073   .     S
C595   C597    1.387   .     A
C595   C624    1.415   .     A
C596   C598    1.385   .     A
C596   H636    1.075   .     S
C596   C623    1.413   .     A
C597   H627    1.084   .     S
C597   C1287   1.391   1_554 S
C598   H628    1.083   .     S
C598   C1288   1.391   .     S
C599   H637    1.083   .     S
C599   C604    1.398   .     A
C600   C603    1.398   .     A
C600   H638    1.082   .     S
C600   C158    1.384   1_565 S
C601   H639    1.084   .     S
C601   C155    1.384   1_565 S
C601   C455    1.403   1_655 S
C602   H640    1.083   .     S
C604   C454    1.403   1_655 S
C605   N644    1.399   .     A
C605   C607    1.422   .     A
C605   C653    1.522   .     S
C606   C608    1.425   .     A
C606   N643    1.400   .     A
C606   C660    1.524   .     S
C607   N643    1.350   .     A
C607   H641    1.080   .     S
C608   H642    1.079   .     S
C608   N644    1.349   .     A
C609   O651    1.303   .     A
C609   C611    1.466   .     S
C609   O501    1.302   1_655 S
C610   O652    1.304   .     A
C610   C612    1.467   .     S
C611   C615    1.400   .     A
C611   C617    1.397   .     A
C612   C616    1.400   .     A
C612   C618    1.398   .     A
C613   C621    1.402   .     A
C613   H633    1.083   .     S
C613   C615    1.392   .     A
C614   C616    1.391   .     A
C614   C622    1.402   .     A
C615   H484    1.083   1_655 S
C617   H630    1.077   .     S
C617   C619    1.405   .     A
C618   H629    1.076   .     S
C618   C620    1.406   .     A
C619   C621    1.417   .     A
C619   C623    1.423   .     A
C620   C624    1.425   .     A
C620   C622    1.419   .     A
C621   C1263   1.391   .     S
C622   C1264   1.391   1_554 S
C623   C1290   1.422   .     S
C624   C1289   1.422   1_554 S
Cu625  O648    1.965   .     S
Cu625  O645    1.958   .     S
Cu625  O652    1.956   .     S
Cu625  O649    1.962   .     S
Cu625  N643    2.031   .     S
Cu626  O647    1.965   .     S
Cu626  O651    1.956   .     S
Cu626  N644    2.031   .     S
Cu626  O646    1.958   .     S
Cu626  O650    1.962   .     S
Cu626  Cu477   2.703   1_655 S
H631   C468    1.083   1_655 S
H634   C466    1.083   1_655 S
O646   C446    1.295   1_655 S
O650   C462    1.301   1_655 S
C653   H658    1.111   .     S
C653   C654    1.534   .     S
C653   H659    1.089   .     S
C654   H656    1.110   .     S
C654   H655    1.108   .     S
C654   H657    1.111   .     S
C660   H666    1.108   .     S
C660   C661    1.534   .     S
C660   H665    1.094   .     S
C661   H663    1.109   .     S
C661   H662    1.111   .     S
C661   H664    1.111   .     S
C667   C678    1.449   .     S
C667   O721    1.301   .     A
C667   O793    1.295   .     S
C668   C677    1.449   .     S
C668   O722    1.302   .     A
C668   O868    1.295   1_455 S
C669   H709    1.073   .     S
C669   C671    1.387   .     A
C669   C698    1.415   .     A
C670   C672    1.385   .     A
C670   H710    1.075   .     S
C670   C697    1.413   .     A
C671   H701    1.084   .     S
C672   H702    1.083   .     S
C672   C30     1.391   1_556 S
C673   H711    1.083   .     S
C673   C678    1.398   .     A
C673   C1119   1.384   1_545 S
C674   C677    1.398   .     A
C674   H712    1.082   .     S
C674   C898    1.384   .     S
C675   H713    1.084   .     S
C675   C895    1.384   .     S
C675   C751    1.403   .     S
C676   H714    1.083   .     S
C676   C1118   1.384   1_545 S
C676   C826    1.403   1_455 S
C677   C823    1.403   1_455 S
C678   C750    1.403   .     S
C679   N718    1.399   .     A
C679   C681    1.422   .     A
C679   C727    1.522   .     S
C680   C682    1.425   .     A
C680   N717    1.400   .     A
C680   C734    1.524   .     S
C681   N717    1.350   .     A
C681   H715    1.080   .     S
C682   H716    1.079   .     S
C682   N718    1.349   .     A
C683   O725    1.303   .     A
C683   C685    1.466   .     S
C683   O797    1.302   .     S
C684   O726    1.304   .     A
C684   C686    1.467   .     S
C684   O872    1.301   1_455 S
C685   C689    1.400   .     A
C685   C691    1.397   .     A
C686   C690    1.400   .     A
C686   C692    1.398   .     A
C687   C695    1.402   .     A
C687   H707    1.083   .     S
C687   C689    1.392   .     A
C688   C690    1.391   .     A
C688   C696    1.402   .     A
C688   H856    1.083   1_455 S
C689   H780    1.083   .     S
C690   H853    1.083   1_455 S
C691   H704    1.077   .     S
C691   C693    1.405   .     A
C692   H703    1.076   .     S
C692   C694    1.406   .     A
C693   C695    1.417   .     A
C693   C697    1.423   .     A
C694   C698    1.425   .     A
C694   C696    1.419   .     A
C695   C5      1.391   1_556 S
C697   C32     1.422   1_556 S
Cu699  O722    1.965   .     S
Cu699  O719    1.958   .     S
Cu699  O726    1.956   .     S
Cu699  O723    1.962   .     S
Cu699  N717    2.031   .     S
Cu699  Cu848   2.703   1_455 S
Cu700  O721    1.965   .     S
Cu700  O725    1.956   .     S
Cu700  N718    2.031   .     S
Cu700  O720    1.958   .     S
Cu700  O724    1.962   .     S
Cu700  Cu773   2.703   .     S
H705   C764    1.083   .     S
H706   C837    1.083   1_455 S
H708   C762    1.083   .     S
O719   C815    1.295   1_455 S
O720   C742    1.295   .     S
O723   C831    1.302   1_455 S
O724   C758    1.301   .     S
C727   H732    1.111   .     S
C727   C728    1.534   .     S
C727   H733    1.089   .     S
C728   H730    1.110   .     S
C728   H729    1.108   .     S
C728   H731    1.111   .     S
C734   H740    1.108   .     S
C734   C735    1.534   .     S
C734   H739    1.094   .     S
C735   H737    1.109   .     S
C735   H736    1.111   .     S
C735   H738    1.111   .     S
C741   C752    1.449   .     S
C741   O795    1.301   .     A
C741   O867    1.295   .     S
C742   C751    1.449   .     S
C742   O796    1.302   .     A
C743   H783    1.073   .     S
C743   C745    1.387   .     A
C743   C772    1.415   .     A
C744   C746    1.385   .     A
C744   H784    1.075   .     S
C744   C771    1.413   .     A
C745   H775    1.084   .     S
C746   H776    1.083   .     S
C746   C104    1.391   1_556 S
C747   H785    1.083   .     S
C747   C752    1.398   .     A
C747   C1193   1.384   1_545 S
C748   C751    1.398   .     A
C748   H786    1.082   .     S
C748   C972    1.384   .     S
C749   H787    1.084   .     S
C749   C969    1.384   .     S
C749   C825    1.403   .     S
C750   H788    1.083   .     S
C750   C1192   1.384   1_545 S
C752   C824    1.403   .     S
C753   N792    1.399   .     A
C753   C755    1.422   .     A
C753   C801    1.522   .     S
C754   C756    1.425   .     A
C754   N791    1.400   .     A
C754   C808    1.524   .     S
C755   N791    1.350   .     A
C755   H789    1.080   .     S
C756   H790    1.079   .     S
C756   N792    1.349   .     A
C757   O799    1.303   .     A
C757   C759    1.466   .     S
C757   O871    1.302   .     S
C758   O800    1.304   .     A
C758   C760    1.467   .     S
C759   C763    1.400   .     A
C759   C765    1.397   .     A
C760   C764    1.400   .     A
C760   C766    1.398   .     A
C761   C769    1.402   .     A
C761   H781    1.083   .     S
C761   C763    1.392   .     A
C762   C764    1.391   .     A
C762   C770    1.402   .     A
C763   H854    1.083   .     S
C765   H778    1.077   .     S
C765   C767    1.405   .     A
C766   H777    1.076   .     S
C766   C768    1.406   .     A
C767   C769    1.417   .     A
C767   C771    1.423   .     A
C768   C772    1.425   .     A
C768   C770    1.419   .     A
C769   C79     1.391   1_556 S
C771   C106    1.422   1_556 S
Cu773  O796    1.965   .     S
Cu773  O793    1.958   .     S
Cu773  O800    1.956   .     S
Cu773  O797    1.962   .     S
Cu773  N791    2.031   .     S
Cu774  O795    1.965   .     S
Cu774  O799    1.956   .     S
Cu774  N792    2.031   .     S
Cu774  O794    1.958   .     S
Cu774  O798    1.962   .     S
Cu774  Cu847   2.703   .     S
H779   C838    1.083   .     S
H782   C836    1.083   .     S
O794   C816    1.295   .     S
O798   C832    1.301   .     S
C801   H806    1.111   .     S
C801   C802    1.534   .     S
C801   H807    1.089   .     S
C802   H804    1.110   .     S
C802   H803    1.108   .     S
C802   H805    1.111   .     S
C808   H814    1.108   .     S
C808   C809    1.534   .     S
C808   H813    1.094   .     S
C809   H811    1.109   .     S
C809   H810    1.111   .     S
C809   H812    1.111   .     S
C815   C826    1.449   .     S
C815   O869    1.301   .     A
C815   O719    1.295   1_655 S
C816   C825    1.449   .     S
C816   O870    1.302   .     A
C817   H857    1.073   .     S
C817   C819    1.387   .     A
C817   C846    1.415   .     A
C818   C820    1.385   .     A
C818   H858    1.075   .     S
C818   C845    1.413   .     A
C819   H849    1.084   .     S
C820   H850    1.083   .     S
C820   C178    1.391   1_556 S
C821   H859    1.083   .     S
C821   C826    1.398   .     A
C821   C1267   1.384   1_545 S
C822   C825    1.398   .     A
C822   H860    1.082   .     S
C822   C1046   1.384   .     S
C823   H861    1.084   .     S
C823   C1043   1.384   .     S
C823   C677    1.403   1_655 S
C824   H862    1.083   .     S
C824   C1266   1.384   1_545 S
C826   C676    1.403   1_655 S
C827   N866    1.399   .     A
C827   C829    1.422   .     A
C827   C875    1.522   .     S
C828   C830    1.425   .     A
C828   N865    1.400   .     A
C828   C882    1.524   .     S
C829   N865    1.350   .     A
C829   H863    1.080   .     S
C830   H864    1.079   .     S
C830   N866    1.349   .     A
C831   O873    1.303   .     A
C831   C833    1.466   .     S
C831   O723    1.302   1_655 S
C832   O874    1.304   .     A
C832   C834    1.467   .     S
C833   C837    1.400   .     A
C833   C839    1.397   .     A
C834   C838    1.400   .     A
C834   C840    1.398   .     A
C835   C843    1.402   .     A
C835   H855    1.083   .     S
C835   C837    1.392   .     A
C836   C838    1.391   .     A
C836   C844    1.402   .     A
C837   H706    1.083   1_655 S
C839   H852    1.077   .     S
C839   C841    1.405   .     A
C840   H851    1.076   .     S
C840   C842    1.406   .     A
C841   C843    1.417   .     A
C841   C845    1.423   .     A
C842   C846    1.425   .     A
C842   C844    1.419   .     A
C843   C153    1.391   1_556 S
C845   C180    1.422   1_556 S
Cu847  O870    1.965   .     S
Cu847  O867    1.958   .     S
Cu847  O874    1.956   .     S
Cu847  O871    1.962   .     S
Cu847  N865    2.031   .     S
Cu848  O869    1.965   .     S
Cu848  O873    1.956   .     S
Cu848  N866    2.031   .     S
Cu848  O868    1.958   .     S
Cu848  O872    1.962   .     S
Cu848  Cu699   2.703   1_655 S
H853   C690    1.083   1_655 S
H856   C688    1.083   1_655 S
O868   C668    1.295   1_655 S
O872   C684    1.301   1_655 S
C875   H880    1.111   .     S
C875   C876    1.534   .     S
C875   H881    1.089   .     S
C876   H878    1.110   .     S
C876   H877    1.108   .     S
C876   H879    1.111   .     S
C882   H888    1.108   .     S
C882   C883    1.534   .     S
C882   H887    1.094   .     S
C883   H885    1.109   .     S
C883   H884    1.111   .     S
C883   H886    1.111   .     S
C889   C900    1.449   .     S
C889   O943    1.301   .     A
C889   O1015   1.295   .     S
C890   C899    1.449   .     S
C890   O944    1.302   .     A
C890   O1090   1.295   1_455 S
C891   H931    1.073   .     S
C891   C893    1.387   .     A
C891   C920    1.415   .     A
C892   C894    1.385   .     A
C892   H932    1.075   .     S
C892   C919    1.413   .     A
C893   H923    1.084   .     S
C894   H924    1.083   .     S
C894   C252    1.391   1_556 S
C895   H933    1.083   .     S
C895   C900    1.398   .     A
C896   C899    1.398   .     A
C896   H934    1.082   .     S
C896   C1120   1.384   .     S
C897   H935    1.084   .     S
C897   C1117   1.384   .     S
C897   C973    1.403   .     S
C898   H936    1.083   .     S
C898   C1048   1.403   1_455 S
C899   C1045   1.403   1_455 S
C900   C972    1.403   .     S
C901   N940    1.399   .     A
C901   C903    1.422   .     A
C901   C949    1.522   .     S
C902   C904    1.425   .     A
C902   N939    1.400   .     A
C902   C956    1.524   .     S
C903   N939    1.350   .     A
C903   H937    1.080   .     S
C904   H938    1.079   .     S
C904   N940    1.349   .     A
C905   O947    1.303   .     A
C905   C907    1.466   .     S
C905   O1019   1.302   .     S
C906   O948    1.304   .     A
C906   C908    1.467   .     S
C906   O1094   1.301   1_455 S
C907   C911    1.400   .     A
C907   C913    1.397   .     A
C908   C912    1.400   .     A
C908   C914    1.398   .     A
C909   C917    1.402   .     A
C909   H929    1.083   .     S
C909   C911    1.392   .     A
C910   C912    1.391   .     A
C910   C918    1.402   .     A
C910   H1078   1.083   1_455 S
C911   H1002   1.083   .     S
C912   H1075   1.083   1_455 S
C913   H926    1.077   .     S
C913   C915    1.405   .     A
C914   H925    1.076   .     S
C914   C916    1.406   .     A
C915   C917    1.417   .     A
C915   C919    1.423   .     A
C916   C920    1.425   .     A
C916   C918    1.419   .     A
C917   C227    1.391   1_556 S
C919   C254    1.422   1_556 S
Cu921  O944    1.965   .     S
Cu921  O941    1.958   .     S
Cu921  O948    1.956   .     S
Cu921  O945    1.962   .     S
Cu921  N939    2.031   .     S
Cu921  Cu1070  2.703   1_455 S
Cu922  O943    1.965   .     S
Cu922  O947    1.956   .     S
Cu922  N940    2.031   .     S
Cu922  O942    1.958   .     S
Cu922  O946    1.962   .     S
Cu922  Cu995   2.703   .     S
H927   C986    1.083   .     S
H928   C1059   1.083   1_455 S
H930   C984    1.083   .     S
O941   C1037   1.295   1_455 S
O942   C964    1.295   .     S
O945   C1053   1.302   1_455 S
O946   C980    1.301   .     S
C949   H954    1.111   .     S
C949   C950    1.534   .     S
C949   H955    1.089   .     S
C950   H952    1.110   .     S
C950   H951    1.108   .     S
C950   H953    1.111   .     S
C956   H962    1.108   .     S
C956   C957    1.534   .     S
C956   H961    1.094   .     S
C957   H959    1.109   .     S
C957   H958    1.111   .     S
C957   H960    1.111   .     S
C963   C974    1.449   .     S
C963   O1017   1.301   .     A
C963   O1089   1.295   .     S
C964   C973    1.449   .     S
C964   O1018   1.302   .     A
C965   H1005   1.073   .     S
C965   C967    1.387   .     A
C965   C994    1.415   .     A
C966   C968    1.385   .     A
C966   H1006   1.075   .     S
C966   C993    1.413   .     A
C967   H997    1.084   .     S
C968   H998    1.083   .     S
C968   C326    1.391   1_556 S
C969   H1007   1.083   .     S
C969   C974    1.398   .     A
C970   C973    1.398   .     A
C970   H1008   1.082   .     S
C970   C1194   1.384   .     S
C971   H1009   1.084   .     S
C971   C1191   1.384   .     S
C971   C1047   1.403   .     S
C972   H1010   1.083   .     S
C974   C1046   1.403   .     S
C975   N1014   1.399   .     A
C975   C977    1.422   .     A
C975   C1023   1.522   .     S
C976   C978    1.425   .     A
C976   N1013   1.400   .     A
C976   C1030   1.524   .     S
C977   N1013   1.350   .     A
C977   H1011   1.080   .     S
C978   H1012   1.079   .     S
C978   N1014   1.349   .     A
C979   O1021   1.303   .     A
C979   C981    1.466   .     S
C979   O1093   1.302   .     S
C980   O1022   1.304   .     A
C980   C982    1.467   .     S
C981   C985    1.400   .     A
C981   C987    1.397   .     A
C982   C986    1.400   .     A
C982   C988    1.398   .     A
C983   C991    1.402   .     A
C983   H1003   1.083   .     S
C983   C985    1.392   .     A
C984   C986    1.391   .     A
C984   C992    1.402   .     A
C985   H1076   1.083   .     S
C987   H1000   1.077   .     S
C987   C989    1.405   .     A
C988   H999    1.076   .     S
C988   C990    1.406   .     A
C989   C991    1.417   .     A
C989   C993    1.423   .     A
C990   C994    1.425   .     A
C990   C992    1.419   .     A
C991   C301    1.391   1_556 S
C993   C328    1.422   1_556 S
Cu995  O1018   1.965   .     S
Cu995  O1015   1.958   .     S
Cu995  O1022   1.956   .     S
Cu995  O1019   1.962   .     S
Cu995  N1013   2.031   .     S
Cu996  O1017   1.965   .     S
Cu996  O1021   1.956   .     S
Cu996  N1014   2.031   .     S
Cu996  O1016   1.958   .     S
Cu996  O1020   1.962   .     S
Cu996  Cu1069  2.703   .     S
H1001  C1060   1.083   .     S
H1004  C1058   1.083   .     S
O1016  C1038   1.295   .     S
O1020  C1054   1.301   .     S
C1023  H1028   1.111   .     S
C1023  C1024   1.534   .     S
C1023  H1029   1.089   .     S
C1024  H1026   1.110   .     S
C1024  H1025   1.108   .     S
C1024  H1027   1.111   .     S
C1030  H1036   1.108   .     S
C1030  C1031   1.534   .     S
C1030  H1035   1.094   .     S
C1031  H1033   1.109   .     S
C1031  H1032   1.111   .     S
C1031  H1034   1.111   .     S
C1037  C1048   1.449   .     S
C1037  O1091   1.301   .     A
C1037  O941    1.295   1_655 S
C1038  C1047   1.449   .     S
C1038  O1092   1.302   .     A
C1039  H1079   1.073   .     S
C1039  C1041   1.387   .     A
C1039  C1068   1.415   .     A
C1040  C1042   1.385   .     A
C1040  H1080   1.075   .     S
C1040  C1067   1.413   .     A
C1041  H1071   1.084   .     S
C1042  H1072   1.083   .     S
C1042  C400    1.391   1_556 S
C1043  H1081   1.083   .     S
C1043  C1048   1.398   .     A
C1044  C1047   1.398   .     A
C1044  H1082   1.082   .     S
C1044  C1268   1.384   .     S
C1045  H1083   1.084   .     S
C1045  C1265   1.384   .     S
C1045  C899    1.403   1_655 S
C1046  H1084   1.083   .     S
C1048  C898    1.403   1_655 S
C1049  N1088   1.399   .     A
C1049  C1051   1.422   .     A
C1049  C1097   1.522   .     S
C1050  C1052   1.425   .     A
C1050  N1087   1.400   .     A
C1050  C1104   1.524   .     S
C1051  N1087   1.350   .     A
C1051  H1085   1.080   .     S
C1052  H1086   1.079   .     S
C1052  N1088   1.349   .     A
C1053  O1095   1.303   .     A
C1053  C1055   1.466   .     S
C1053  O945    1.302   1_655 S
C1054  O1096   1.304   .     A
C1054  C1056   1.467   .     S
C1055  C1059   1.400   .     A
C1055  C1061   1.397   .     A
C1056  C1060   1.400   .     A
C1056  C1062   1.398   .     A
C1057  C1065   1.402   .     A
C1057  H1077   1.083   .     S
C1057  C1059   1.392   .     A
C1058  C1060   1.391   .     A
C1058  C1066   1.402   .     A
C1059  H928    1.083   1_655 S
C1061  H1074   1.077   .     S
C1061  C1063   1.405   .     A
C1062  H1073   1.076   .     S
C1062  C1064   1.406   .     A
C1063  C1065   1.417   .     A
C1063  C1067   1.423   .     A
C1064  C1068   1.425   .     A
C1064  C1066   1.419   .     A
C1065  C375    1.391   1_556 S
C1067  C402    1.422   1_556 S
Cu1069 O1092   1.965   .     S
Cu1069 O1089   1.958   .     S
Cu1069 O1096   1.956   .     S
Cu1069 O1093   1.962   .     S
Cu1069 N1087   2.031   .     S
Cu1070 O1091   1.965   .     S
Cu1070 O1095   1.956   .     S
Cu1070 N1088   2.031   .     S
Cu1070 O1090   1.958   .     S
Cu1070 O1094   1.962   .     S
Cu1070 Cu921   2.703   1_655 S
H1075  C912    1.083   1_655 S
H1078  C910    1.083   1_655 S
O1090  C890    1.295   1_655 S
O1094  C906    1.301   1_655 S
C1097  H1102   1.111   .     S
C1097  C1098   1.534   .     S
C1097  H1103   1.089   .     S
C1098  H1100   1.110   .     S
C1098  H1099   1.108   .     S
C1098  H1101   1.111   .     S
C1104  H1110   1.108   .     S
C1104  C1105   1.534   .     S
C1104  H1109   1.094   .     S
C1105  H1107   1.109   .     S
C1105  H1106   1.111   .     S
C1105  H1108   1.111   .     S
C1111  C1122   1.449   .     S
C1111  O1165   1.301   .     A
C1111  O1237   1.295   .     S
C1112  C1121   1.449   .     S
C1112  O1166   1.302   .     A
C1112  O1312   1.295   1_455 S
C1113  H1153   1.073   .     S
C1113  C1115   1.387   .     A
C1113  C1142   1.415   .     A
C1114  C1116   1.385   .     A
C1114  H1154   1.075   .     S
C1114  C1141   1.413   .     A
C1115  H1145   1.084   .     S
C1116  H1146   1.083   .     S
C1116  C474    1.391   1_556 S
C1117  H1155   1.083   .     S
C1117  C1122   1.398   .     A
C1118  C1121   1.398   .     A
C1118  H1156   1.082   .     S
C1118  C676    1.384   1_565 S
C1119  H1157   1.084   .     S
C1119  C673    1.384   1_565 S
C1119  C1195   1.403   .     S
C1120  H1158   1.083   .     S
C1120  C1270   1.403   1_455 S
C1121  C1267   1.403   1_455 S
C1122  C1194   1.403   .     S
C1123  N1162   1.399   .     A
C1123  C1125   1.422   .     A
C1123  C1171   1.522   .     S
C1124  C1126   1.425   .     A
C1124  N1161   1.400   .     A
C1124  C1178   1.524   .     S
C1125  N1161   1.350   .     A
C1125  H1159   1.080   .     S
C1126  H1160   1.079   .     S
C1126  N1162   1.349   .     A
C1127  O1169   1.303   .     A
C1127  C1129   1.466   .     S
C1127  O1241   1.302   .     S
C1128  O1170   1.304   .     A
C1128  C1130   1.467   .     S
C1128  O1316   1.301   1_455 S
C1129  C1133   1.400   .     A
C1129  C1135   1.397   .     A
C1130  C1134   1.400   .     A
C1130  C1136   1.398   .     A
C1131  C1139   1.402   .     A
C1131  H1151   1.083   .     S
C1131  C1133   1.392   .     A
C1132  C1134   1.391   .     A
C1132  C1140   1.402   .     A
C1132  H1300   1.083   1_455 S
C1133  H1224   1.083   .     S
C1134  H1297   1.083   1_455 S
C1135  H1148   1.077   .     S
C1135  C1137   1.405   .     A
C1136  H1147   1.076   .     S
C1136  C1138   1.406   .     A
C1137  C1139   1.417   .     A
C1137  C1141   1.423   .     A
C1138  C1142   1.425   .     A
C1138  C1140   1.419   .     A
C1139  C449    1.391   1_556 S
C1141  C476    1.422   1_556 S
Cu1143 O1166   1.965   .     S
Cu1143 O1163   1.958   .     S
Cu1143 O1170   1.956   .     S
Cu1143 O1167   1.962   .     S
Cu1143 N1161   2.031   .     S
Cu1143 Cu1292  2.703   1_455 S
Cu1144 O1165   1.965   .     S
Cu1144 O1169   1.956   .     S
Cu1144 N1162   2.031   .     S
Cu1144 O1164   1.958   .     S
Cu1144 O1168   1.962   .     S
Cu1144 Cu1217  2.703   .     S
H1149  C1208   1.083   .     S
H1150  C1281   1.083   1_455 S
H1152  C1206   1.083   .     S
O1163  C1259   1.295   1_455 S
O1164  C1186   1.295   .     S
O1167  C1275   1.302   1_455 S
O1168  C1202   1.301   .     S
C1171  H1176   1.111   .     S
C1171  C1172   1.534   .     S
C1171  H1177   1.089   .     S
C1172  H1174   1.110   .     S
C1172  H1173   1.108   .     S
C1172  H1175   1.111   .     S
C1178  H1184   1.108   .     S
C1178  C1179   1.534   .     S
C1178  H1183   1.094   .     S
C1179  H1181   1.109   .     S
C1179  H1180   1.111   .     S
C1179  H1182   1.111   .     S
C1185  C1196   1.449   .     S
C1185  O1239   1.301   .     A
C1185  O1311   1.295   .     S
C1186  C1195   1.449   .     S
C1186  O1240   1.302   .     A
C1187  H1227   1.073   .     S
C1187  C1189   1.387   .     A
C1187  C1216   1.415   .     A
C1188  C1190   1.385   .     A
C1188  H1228   1.075   .     S
C1188  C1215   1.413   .     A
C1189  H1219   1.084   .     S
C1190  H1220   1.083   .     S
C1190  C548    1.391   1_556 S
C1191  H1229   1.083   .     S
C1191  C1196   1.398   .     A
C1192  C1195   1.398   .     A
C1192  H1230   1.082   .     S
C1192  C750    1.384   1_565 S
C1193  H1231   1.084   .     S
C1193  C747    1.384   1_565 S
C1193  C1269   1.403   .     S
C1194  H1232   1.083   .     S
C1196  C1268   1.403   .     S
C1197  N1236   1.399   .     A
C1197  C1199   1.422   .     A
C1197  C1245   1.522   .     S
C1198  C1200   1.425   .     A
C1198  N1235   1.400   .     A
C1198  C1252   1.524   .     S
C1199  N1235   1.350   .     A
C1199  H1233   1.080   .     S
C1200  H1234   1.079   .     S
C1200  N1236   1.349   .     A
C1201  O1243   1.303   .     A
C1201  C1203   1.466   .     S
C1201  O1315   1.302   .     S
C1202  O1244   1.304   .     A
C1202  C1204   1.467   .     S
C1203  C1207   1.400   .     A
C1203  C1209   1.397   .     A
C1204  C1208   1.400   .     A
C1204  C1210   1.398   .     A
C1205  C1213   1.402   .     A
C1205  H1225   1.083   .     S
C1205  C1207   1.392   .     A
C1206  C1208   1.391   .     A
C1206  C1214   1.402   .     A
C1207  H1298   1.083   .     S
C1209  H1222   1.077   .     S
C1209  C1211   1.405   .     A
C1210  H1221   1.076   .     S
C1210  C1212   1.406   .     A
C1211  C1213   1.417   .     A
C1211  C1215   1.423   .     A
C1212  C1216   1.425   .     A
C1212  C1214   1.419   .     A
C1213  C523    1.391   1_556 S
C1215  C550    1.422   1_556 S
Cu1217 O1240   1.965   .     S
Cu1217 O1237   1.958   .     S
Cu1217 O1244   1.956   .     S
Cu1217 O1241   1.962   .     S
Cu1217 N1235   2.031   .     S
Cu1218 O1239   1.965   .     S
Cu1218 O1243   1.956   .     S
Cu1218 N1236   2.031   .     S
Cu1218 O1238   1.958   .     S
Cu1218 O1242   1.962   .     S
Cu1218 Cu1291  2.703   .     S
H1223  C1282   1.083   .     S
H1226  C1280   1.083   .     S
O1238  C1260   1.295   .     S
O1242  C1276   1.301   .     S
C1245  H1250   1.111   .     S
C1245  C1246   1.534   .     S
C1245  H1251   1.089   .     S
C1246  H1248   1.110   .     S
C1246  H1247   1.108   .     S
C1246  H1249   1.111   .     S
C1252  H1258   1.108   .     S
C1252  C1253   1.534   .     S
C1252  H1257   1.094   .     S
C1253  H1255   1.109   .     S
C1253  H1254   1.111   .     S
C1253  H1256   1.111   .     S
C1259  C1270   1.449   .     S
C1259  O1313   1.301   .     A
C1259  O1163   1.295   1_655 S
C1260  C1269   1.449   .     S
C1260  O1314   1.302   .     A
C1261  H1301   1.073   .     S
C1261  C1263   1.387   .     A
C1261  C1290   1.415   .     A
C1262  C1264   1.385   .     A
C1262  H1302   1.075   .     S
C1262  C1289   1.413   .     A
C1263  H1293   1.084   .     S
C1264  H1294   1.083   .     S
C1264  C622    1.391   1_556 S
C1265  H1303   1.083   .     S
C1265  C1270   1.398   .     A
C1266  C1269   1.398   .     A
C1266  H1304   1.082   .     S
C1266  C824    1.384   1_565 S
C1267  H1305   1.084   .     S
C1267  C821    1.384   1_565 S
C1267  C1121   1.403   1_655 S
C1268  H1306   1.083   .     S
C1270  C1120   1.403   1_655 S
C1271  N1310   1.399   .     A
C1271  C1273   1.422   .     A
C1271  C1319   1.522   .     S
C1272  C1274   1.425   .     A
C1272  N1309   1.400   .     A
C1272  C1326   1.524   .     S
C1273  N1309   1.350   .     A
C1273  H1307   1.080   .     S
C1274  H1308   1.079   .     S
C1274  N1310   1.349   .     A
C1275  O1317   1.303   .     A
C1275  C1277   1.466   .     S
C1275  O1167   1.302   1_655 S
C1276  O1318   1.304   .     A
C1276  C1278   1.467   .     S
C1277  C1281   1.400   .     A
C1277  C1283   1.397   .     A
C1278  C1282   1.400   .     A
C1278  C1284   1.398   .     A
C1279  C1287   1.402   .     A
C1279  H1299   1.083   .     S
C1279  C1281   1.392   .     A
C1280  C1282   1.391   .     A
C1280  C1288   1.402   .     A
C1281  H1150   1.083   1_655 S
C1283  H1296   1.077   .     S
C1283  C1285   1.405   .     A
C1284  H1295   1.076   .     S
C1284  C1286   1.406   .     A
C1285  C1287   1.417   .     A
C1285  C1289   1.423   .     A
C1286  C1290   1.425   .     A
C1286  C1288   1.419   .     A
C1287  C597    1.391   1_556 S
C1289  C624    1.422   1_556 S
Cu1291 O1314   1.965   .     S
Cu1291 O1311   1.958   .     S
Cu1291 O1318   1.956   .     S
Cu1291 O1315   1.962   .     S
Cu1291 N1309   2.031   .     S
Cu1292 O1313   1.965   .     S
Cu1292 O1317   1.956   .     S
Cu1292 N1310   2.031   .     S
Cu1292 O1312   1.958   .     S
Cu1292 O1316   1.962   .     S
Cu1292 Cu1143  2.703   1_655 S
H1297  C1134   1.083   1_655 S
H1300  C1132   1.083   1_655 S
O1312  C1112   1.295   1_655 S
O1316  C1128   1.301   1_655 S
C1319  H1324   1.111   .     S
C1319  C1320   1.534   .     S
C1319  H1325   1.089   .     S
C1320  H1322   1.110   .     S
C1320  H1321   1.108   .     S
C1320  H1323   1.111   .     S
C1326  H1332   1.108   .     S
C1326  C1327   1.534   .     S
C1326  H1331   1.094   .     S
C1327  H1329   1.109   .     S
C1327  H1328   1.111   .     S
C1327  H1330   1.111   .     S
