data_str_m2_o10_o17_pcu_sym.148
_audit_creation_date              2020-01-03
_audit_creation_method            'Materials Studio'
_symmetry_space_group_name_H-M    'P1'
_symmetry_Int_Tables_number       1
_symmetry_cell_setting            triclinic
loop_
_symmetry_equiv_pos_as_xyz
  x,y,z
_cell_length_a                    30.3510
_cell_length_b                    26.7989
_cell_length_c                    22.6221
_cell_angle_alpha                 103.0992
_cell_angle_beta                  93.4543
_cell_angle_gamma                 92.8785
loop_
_atom_site_label
_atom_site_type_symbol
_atom_site_fract_x
_atom_site_fract_y
_atom_site_fract_z
_atom_site_U_iso_or_equiv
_atom_site_adp_type
_atom_site_occupancy
O1     O     0.25326   0.09538   0.20659   0.00000  Uiso   1.00
O2     O     0.24675   0.23796   0.12674   0.00000  Uiso   1.00
O3     O     0.24480   0.08559   0.10279   0.00000  Uiso   1.00
O4     O     0.25520   0.24774   0.23055   0.00000  Uiso   1.00
C5     C     0.24861   0.06699   0.15146   0.00000  Uiso   1.00
C6     C     0.24983   0.26634   0.18213   0.00000  Uiso   1.00
O7     O     0.18936   0.17155   0.21857   0.00000  Uiso   1.00
O8     O     0.31065   0.16179   0.11476   0.00000  Uiso   1.00
O9     O     0.18090   0.16176   0.11477   0.00000  Uiso   1.00
O10    O     0.31910   0.17157   0.21857   0.00000  Uiso   1.00
C11    C     0.16455   0.16279   0.16690   0.00000  Uiso   1.00
C12    C     0.33540   0.16592   0.16564   0.00000  Uiso   1.00
Cu13   Cu    0.25501   0.17246   0.22813   0.00000  Uiso   1.00
Cu14   Cu    0.24500   0.16087   0.10521   0.00000  Uiso   1.00
C15    C     0.41074   0.21032   0.18968   0.00000  Uiso   1.00
C16    C     0.08987   0.11316   0.14995   0.00000  Uiso   1.00
C17    C     0.38389   0.16528   0.16431   0.00000  Uiso   1.00
C18    C     0.11590   0.16018   0.16728   0.00000  Uiso   1.00
C19    C     0.40326   0.11905   0.14231   0.00000  Uiso   1.00
C20    C     0.09542   0.20619   0.17934   0.00000  Uiso   1.00
C21    C     0.44959   0.11722   0.14661   0.00000  Uiso   1.00
C22    C     0.04973   0.20628   0.18586   0.00000  Uiso   1.00
C23    C     0.47670   0.16247   0.16897   0.00000  Uiso   1.00
C24    C     0.02310   0.16028   0.16846   0.00000  Uiso   1.00
C25    C     0.45741   0.20977   0.19205   0.00000  Uiso   1.00
C26    C     0.04281   0.11278   0.14841   0.00000  Uiso   1.00
C27    C     0.46878   0.07031   0.12894   0.00000  Uiso   1.00
C28    C     0.03070   0.25216   0.20989   0.00000  Uiso   1.00
C29    C     0.01510   0.06668   0.12767   0.00000  Uiso   1.00
C30    C     0.48507   0.25518   0.21620   0.00000  Uiso   1.00
H31    H     0.44676   0.03637   0.11688   0.00000  Uiso   1.00
H32    H     0.05215   0.28561   0.22579   0.00000  Uiso   1.00
C33    C     0.24751   0.01149   0.14306   0.00000  Uiso   1.00
C34    C     0.24838   0.32199   0.19126   0.00000  Uiso   1.00
N35    N     0.23745   0.15214   0.01284   0.00000  Uiso   1.00
N36    N     0.26256   0.18119   0.32049   0.00000  Uiso   1.00
O37    O     0.39089   0.25469   0.21384   0.00000  Uiso   1.00
C38    C     0.38032   0.27925   0.16647   0.00000  Uiso   1.00
H39    H     0.35830   0.25384   0.12971   0.00000  Uiso   1.00
H40    H     0.41052   0.29186   0.14691   0.00000  Uiso   1.00
C41    C     0.35561   0.32554   0.19251   0.00000  Uiso   1.00
H42    H     0.37823   0.02357   0.22027   0.00000  Uiso   1.00
H43    H     0.33751   0.00567   0.15592   0.00000  Uiso   1.00
H44    H     0.33152   0.31350   0.22171   0.00000  Uiso   1.00
O45    O     0.11025   0.06746   0.13789   0.00000  Uiso   1.00
C46    C     0.12779   0.05898   0.08038   0.00000  Uiso   1.00
H47    H     0.16353   0.06990   0.08678   0.00000  Uiso   1.00
H48    H     0.11196   0.08026   0.04846   0.00000  Uiso   1.00
C49    C     0.12296   0.00222   0.05114   0.00000  Uiso   1.00
H50    H     0.09074   0.32635   0.02443   0.00000  Uiso   1.00
H51    H     0.14928   0.32616   0.01981   0.00000  Uiso   1.00
H52    H     0.12611   0.31222   0.08576   0.00000  Uiso   1.00
O53    O     0.37666   0.07442   0.12167   0.00000  Uiso   1.00
C54    C     0.36842   0.06437   0.05777   0.00000  Uiso   1.00
H55    H     0.38903   0.08887   0.03472   0.00000  Uiso   1.00
H56    H     0.33324   0.07092   0.04824   0.00000  Uiso   1.00
C57    C     0.37550   0.00828   0.02997   0.00000  Uiso   1.00
H58    H     0.36551   0.31727   0.06078   0.00000  Uiso   1.00
H59    H     0.35550   0.32852   0.31965   0.00000  Uiso   1.00
H60    H     0.41050   0.00257   0.02146   0.00000  Uiso   1.00
O61    O     0.11865   0.24982   0.17231   0.00000  Uiso   1.00
C62    C     0.13529   0.27975   0.22919   0.00000  Uiso   1.00
H63    H     0.17023   0.27192   0.23722   0.00000  Uiso   1.00
H64    H     0.11762   0.27155   0.26807   0.00000  Uiso   1.00
C65    C     0.13148   0.00239   0.22736   0.00000  Uiso   1.00
H66    H     0.09967   0.00762   0.20369   0.00000  Uiso   1.00
H67    H     0.13194   0.02632   0.27383   0.00000  Uiso   1.00
H68    H     0.15870   0.01553   0.20283   0.00000  Uiso   1.00
O69    O     0.03464   0.01997   0.10681   0.00000  Uiso   1.00
C70    C     0.00430   0.31023   0.08369   0.00000  Uiso   1.00
H71    H     0.48211   0.31671   0.04574   0.00000  Uiso   1.00
H72    H     0.48471   0.30210   0.12058   0.00000  Uiso   1.00
C73    C     0.02833   0.26219   0.05887   0.00000  Uiso   1.00
H74    H     0.05785   0.26021   0.08920   0.00000  Uiso   1.00
H75    H     0.00586   0.22752   0.05577   0.00000  Uiso   1.00
H76    H     0.03842   0.26176   0.01248   0.00000  Uiso   1.00
O77    O     0.46624   0.30073   0.24475   0.00000  Uiso   1.00
C78    C     0.49621   0.01159   0.26105   0.00000  Uiso   1.00
H79    H     0.01292   0.01799   0.22093   0.00000  Uiso   1.00
H80    H     0.02111   0.00775   0.29759   0.00000  Uiso   1.00
C81    C     0.47224   0.05972   0.28495   0.00000  Uiso   1.00
H82    H     0.45880   0.05853   0.32895   0.00000  Uiso   1.00
H83    H     0.49593   0.09392   0.29256   0.00000  Uiso   1.00
H84    H     0.44535   0.06406   0.25159   0.00000  Uiso   1.00
N85    N     0.24691   0.31562   0.08129   0.00000  Uiso   1.00
O86    O     0.27912   0.32270   0.04826   0.00000  Uiso   1.00
O87    O     0.21158   0.28805   0.05547   0.00000  Uiso   1.00
N88    N     0.25140   0.01806   0.25356   0.00000  Uiso   1.00
O89    O     0.22142   0.01062   0.28977   0.00000  Uiso   1.00
O90    O     0.28794   0.04427   0.27723   0.00000  Uiso   1.00
N91    N     0.19357   0.14870   0.32446   0.00000  Uiso   1.00
O92    O     0.16949   0.18786   0.00576   0.00000  Uiso   1.00
O93    O     0.17523   0.10490   0.29445   0.00000  Uiso   1.00
N94    N     0.30651   0.18617   0.00875   0.00000  Uiso   1.00
O95    O     0.32987   0.14624   0.33034   0.00000  Uiso   1.00
O96    O     0.32708   0.23126   0.01967   0.00000  Uiso   1.00
O97    O     0.75326   0.09538   0.20659   0.00000  Uiso   1.00
O98    O     0.74675   0.23796   0.12674   0.00000  Uiso   1.00
O99    O     0.74480   0.08559   0.10279   0.00000  Uiso   1.00
O100   O     0.75520   0.24774   0.23055   0.00000  Uiso   1.00
C101   C     0.74861   0.06699   0.15146   0.00000  Uiso   1.00
C102   C     0.74983   0.26634   0.18213   0.00000  Uiso   1.00
O103   O     0.68936   0.17155   0.21857   0.00000  Uiso   1.00
O104   O     0.81065   0.16179   0.11476   0.00000  Uiso   1.00
O105   O     0.68090   0.16176   0.11477   0.00000  Uiso   1.00
O106   O     0.81910   0.17157   0.21857   0.00000  Uiso   1.00
C107   C     0.66455   0.16279   0.16690   0.00000  Uiso   1.00
C108   C     0.83540   0.16592   0.16564   0.00000  Uiso   1.00
Cu109  Cu    0.75501   0.17246   0.22813   0.00000  Uiso   1.00
Cu110  Cu    0.74500   0.16087   0.10521   0.00000  Uiso   1.00
C111   C     0.91074   0.21032   0.18968   0.00000  Uiso   1.00
C112   C     0.58987   0.11316   0.14995   0.00000  Uiso   1.00
C113   C     0.88389   0.16528   0.16431   0.00000  Uiso   1.00
C114   C     0.61590   0.16018   0.16728   0.00000  Uiso   1.00
C115   C     0.90326   0.11905   0.14231   0.00000  Uiso   1.00
C116   C     0.59542   0.20619   0.17934   0.00000  Uiso   1.00
C117   C     0.94959   0.11722   0.14661   0.00000  Uiso   1.00
C118   C     0.54973   0.20628   0.18586   0.00000  Uiso   1.00
C119   C     0.97670   0.16247   0.16897   0.00000  Uiso   1.00
C120   C     0.52310   0.16028   0.16846   0.00000  Uiso   1.00
C121   C     0.95741   0.20977   0.19205   0.00000  Uiso   1.00
C122   C     0.54281   0.11278   0.14841   0.00000  Uiso   1.00
C123   C     0.96878   0.07031   0.12894   0.00000  Uiso   1.00
C124   C     0.53070   0.25216   0.20989   0.00000  Uiso   1.00
C125   C     0.51510   0.06668   0.12767   0.00000  Uiso   1.00
C126   C     0.98507   0.25518   0.21620   0.00000  Uiso   1.00
H127   H     0.94676   0.03637   0.11688   0.00000  Uiso   1.00
H128   H     0.55215   0.28561   0.22579   0.00000  Uiso   1.00
C129   C     0.74751   0.01149   0.14306   0.00000  Uiso   1.00
C130   C     0.74838   0.32199   0.19126   0.00000  Uiso   1.00
N131   N     0.73745   0.15214   0.01284   0.00000  Uiso   1.00
N132   N     0.76256   0.18119   0.32049   0.00000  Uiso   1.00
O133   O     0.89089   0.25469   0.21384   0.00000  Uiso   1.00
C134   C     0.88032   0.27925   0.16647   0.00000  Uiso   1.00
H135   H     0.85830   0.25384   0.12971   0.00000  Uiso   1.00
H136   H     0.91052   0.29186   0.14691   0.00000  Uiso   1.00
C137   C     0.85561   0.32554   0.19251   0.00000  Uiso   1.00
H138   H     0.87823   0.02357   0.22027   0.00000  Uiso   1.00
H139   H     0.83751   0.00567   0.15592   0.00000  Uiso   1.00
H140   H     0.83152   0.31350   0.22171   0.00000  Uiso   1.00
O141   O     0.61025   0.06746   0.13789   0.00000  Uiso   1.00
C142   C     0.62779   0.05898   0.08038   0.00000  Uiso   1.00
H143   H     0.66353   0.06990   0.08678   0.00000  Uiso   1.00
H144   H     0.61196   0.08026   0.04846   0.00000  Uiso   1.00
C145   C     0.62296   0.00222   0.05114   0.00000  Uiso   1.00
H146   H     0.59074   0.32635   0.02443   0.00000  Uiso   1.00
H147   H     0.64928   0.32616   0.01981   0.00000  Uiso   1.00
H148   H     0.62611   0.31222   0.08576   0.00000  Uiso   1.00
O149   O     0.87666   0.07442   0.12167   0.00000  Uiso   1.00
C150   C     0.86842   0.06437   0.05777   0.00000  Uiso   1.00
H151   H     0.88903   0.08887   0.03472   0.00000  Uiso   1.00
H152   H     0.83324   0.07092   0.04824   0.00000  Uiso   1.00
C153   C     0.87550   0.00828   0.02997   0.00000  Uiso   1.00
H154   H     0.86551   0.31727   0.06078   0.00000  Uiso   1.00
H155   H     0.85550   0.32852   0.31965   0.00000  Uiso   1.00
H156   H     0.91050   0.00257   0.02146   0.00000  Uiso   1.00
O157   O     0.61865   0.24982   0.17231   0.00000  Uiso   1.00
C158   C     0.63529   0.27975   0.22919   0.00000  Uiso   1.00
H159   H     0.67023   0.27192   0.23722   0.00000  Uiso   1.00
H160   H     0.61762   0.27155   0.26807   0.00000  Uiso   1.00
C161   C     0.63148   0.00239   0.22736   0.00000  Uiso   1.00
H162   H     0.59967   0.00762   0.20369   0.00000  Uiso   1.00
H163   H     0.63194   0.02632   0.27383   0.00000  Uiso   1.00
H164   H     0.65870   0.01553   0.20283   0.00000  Uiso   1.00
O165   O     0.53464   0.01997   0.10681   0.00000  Uiso   1.00
C166   C     0.50430   0.31023   0.08369   0.00000  Uiso   1.00
H167   H     0.98211   0.31671   0.04574   0.00000  Uiso   1.00
H168   H     0.98471   0.30210   0.12058   0.00000  Uiso   1.00
C169   C     0.52833   0.26219   0.05887   0.00000  Uiso   1.00
H170   H     0.55785   0.26021   0.08920   0.00000  Uiso   1.00
H171   H     0.50586   0.22752   0.05577   0.00000  Uiso   1.00
H172   H     0.53842   0.26176   0.01248   0.00000  Uiso   1.00
O173   O     0.96624   0.30073   0.24475   0.00000  Uiso   1.00
C174   C     0.99621   0.01159   0.26105   0.00000  Uiso   1.00
H175   H     0.51292   0.01799   0.22093   0.00000  Uiso   1.00
H176   H     0.52111   0.00775   0.29759   0.00000  Uiso   1.00
C177   C     0.97224   0.05972   0.28495   0.00000  Uiso   1.00
H178   H     0.95880   0.05853   0.32895   0.00000  Uiso   1.00
H179   H     0.99593   0.09392   0.29256   0.00000  Uiso   1.00
H180   H     0.94535   0.06406   0.25159   0.00000  Uiso   1.00
N181   N     0.74691   0.31562   0.08129   0.00000  Uiso   1.00
O182   O     0.77912   0.32270   0.04826   0.00000  Uiso   1.00
O183   O     0.71158   0.28805   0.05547   0.00000  Uiso   1.00
N184   N     0.75140   0.01806   0.25356   0.00000  Uiso   1.00
O185   O     0.72142   0.01062   0.28977   0.00000  Uiso   1.00
O186   O     0.78794   0.04427   0.27723   0.00000  Uiso   1.00
N187   N     0.69357   0.14870   0.32446   0.00000  Uiso   1.00
O188   O     0.66949   0.18786   0.00576   0.00000  Uiso   1.00
O189   O     0.67523   0.10490   0.29445   0.00000  Uiso   1.00
N190   N     0.80651   0.18617   0.00875   0.00000  Uiso   1.00
O191   O     0.82987   0.14624   0.33034   0.00000  Uiso   1.00
O192   O     0.82708   0.23126   0.01967   0.00000  Uiso   1.00
O193   O     0.25326   0.42871   0.20659   0.00000  Uiso   1.00
O194   O     0.24675   0.57129   0.12674   0.00000  Uiso   1.00
O195   O     0.24480   0.41892   0.10279   0.00000  Uiso   1.00
O196   O     0.25520   0.58108   0.23055   0.00000  Uiso   1.00
C197   C     0.24861   0.40032   0.15146   0.00000  Uiso   1.00
C198   C     0.24983   0.59967   0.18213   0.00000  Uiso   1.00
O199   O     0.18936   0.50488   0.21857   0.00000  Uiso   1.00
O200   O     0.31065   0.49512   0.11476   0.00000  Uiso   1.00
O201   O     0.18090   0.49510   0.11477   0.00000  Uiso   1.00
O202   O     0.31910   0.50490   0.21857   0.00000  Uiso   1.00
C203   C     0.16455   0.49612   0.16690   0.00000  Uiso   1.00
C204   C     0.33540   0.49926   0.16564   0.00000  Uiso   1.00
Cu205  Cu    0.25501   0.50579   0.22813   0.00000  Uiso   1.00
Cu206  Cu    0.24500   0.49421   0.10521   0.00000  Uiso   1.00
C207   C     0.41074   0.54366   0.18968   0.00000  Uiso   1.00
C208   C     0.08987   0.44649   0.14995   0.00000  Uiso   1.00
C209   C     0.38389   0.49862   0.16431   0.00000  Uiso   1.00
C210   C     0.11590   0.49352   0.16728   0.00000  Uiso   1.00
C211   C     0.40326   0.45238   0.14231   0.00000  Uiso   1.00
C212   C     0.09542   0.53952   0.17934   0.00000  Uiso   1.00
C213   C     0.44959   0.45056   0.14661   0.00000  Uiso   1.00
C214   C     0.04973   0.53961   0.18586   0.00000  Uiso   1.00
C215   C     0.47670   0.49580   0.16897   0.00000  Uiso   1.00
C216   C     0.02310   0.49361   0.16846   0.00000  Uiso   1.00
C217   C     0.45741   0.54311   0.19205   0.00000  Uiso   1.00
C218   C     0.04281   0.44611   0.14841   0.00000  Uiso   1.00
C219   C     0.46878   0.40364   0.12894   0.00000  Uiso   1.00
C220   C     0.03070   0.58549   0.20989   0.00000  Uiso   1.00
C221   C     0.01510   0.40001   0.12767   0.00000  Uiso   1.00
C222   C     0.48507   0.58852   0.21620   0.00000  Uiso   1.00
H223   H     0.44676   0.36970   0.11688   0.00000  Uiso   1.00
H224   H     0.05215   0.61894   0.22579   0.00000  Uiso   1.00
C225   C     0.24751   0.34482   0.14306   0.00000  Uiso   1.00
C226   C     0.24838   0.65532   0.19126   0.00000  Uiso   1.00
N227   N     0.23745   0.48547   0.01284   0.00000  Uiso   1.00
N228   N     0.26256   0.51453   0.32049   0.00000  Uiso   1.00
O229   O     0.39089   0.58802   0.21384   0.00000  Uiso   1.00
C230   C     0.38032   0.61259   0.16647   0.00000  Uiso   1.00
H231   H     0.35830   0.58717   0.12971   0.00000  Uiso   1.00
H232   H     0.41052   0.62519   0.14691   0.00000  Uiso   1.00
C233   C     0.35561   0.65887   0.19251   0.00000  Uiso   1.00
H234   H     0.37823   0.35691   0.22027   0.00000  Uiso   1.00
H235   H     0.33751   0.33901   0.15592   0.00000  Uiso   1.00
H236   H     0.33152   0.64683   0.22171   0.00000  Uiso   1.00
O237   O     0.11025   0.40080   0.13789   0.00000  Uiso   1.00
C238   C     0.12779   0.39231   0.08038   0.00000  Uiso   1.00
H239   H     0.16353   0.40323   0.08678   0.00000  Uiso   1.00
H240   H     0.11196   0.41360   0.04846   0.00000  Uiso   1.00
C241   C     0.12296   0.33555   0.05114   0.00000  Uiso   1.00
H242   H     0.09074   0.65968   0.02443   0.00000  Uiso   1.00
H243   H     0.14928   0.65949   0.01981   0.00000  Uiso   1.00
H244   H     0.12611   0.64556   0.08576   0.00000  Uiso   1.00
O245   O     0.37666   0.40775   0.12167   0.00000  Uiso   1.00
C246   C     0.36842   0.39770   0.05777   0.00000  Uiso   1.00
H247   H     0.38903   0.42221   0.03472   0.00000  Uiso   1.00
H248   H     0.33324   0.40426   0.04824   0.00000  Uiso   1.00
C249   C     0.37550   0.34161   0.02997   0.00000  Uiso   1.00
H250   H     0.36551   0.65061   0.06078   0.00000  Uiso   1.00
H251   H     0.35550   0.66185   0.31965   0.00000  Uiso   1.00
H252   H     0.41050   0.33590   0.02146   0.00000  Uiso   1.00
O253   O     0.11865   0.58315   0.17231   0.00000  Uiso   1.00
C254   C     0.13529   0.61309   0.22919   0.00000  Uiso   1.00
H255   H     0.17023   0.60526   0.23722   0.00000  Uiso   1.00
H256   H     0.11762   0.60488   0.26807   0.00000  Uiso   1.00
C257   C     0.13148   0.33572   0.22736   0.00000  Uiso   1.00
H258   H     0.09967   0.34095   0.20369   0.00000  Uiso   1.00
H259   H     0.13194   0.35966   0.27383   0.00000  Uiso   1.00
H260   H     0.15870   0.34887   0.20283   0.00000  Uiso   1.00
O261   O     0.03464   0.35330   0.10681   0.00000  Uiso   1.00
C262   C     0.00430   0.64356   0.08369   0.00000  Uiso   1.00
H263   H     0.48211   0.65005   0.04574   0.00000  Uiso   1.00
H264   H     0.48471   0.63543   0.12058   0.00000  Uiso   1.00
C265   C     0.02833   0.59553   0.05887   0.00000  Uiso   1.00
H266   H     0.05785   0.59354   0.08920   0.00000  Uiso   1.00
H267   H     0.00586   0.56086   0.05577   0.00000  Uiso   1.00
H268   H     0.03842   0.59509   0.01248   0.00000  Uiso   1.00
O269   O     0.46624   0.63406   0.24475   0.00000  Uiso   1.00
C270   C     0.49621   0.34492   0.26105   0.00000  Uiso   1.00
H271   H     0.01292   0.35133   0.22093   0.00000  Uiso   1.00
H272   H     0.02111   0.34108   0.29759   0.00000  Uiso   1.00
C273   C     0.47224   0.39306   0.28495   0.00000  Uiso   1.00
H274   H     0.45880   0.39186   0.32895   0.00000  Uiso   1.00
H275   H     0.49593   0.42726   0.29256   0.00000  Uiso   1.00
H276   H     0.44535   0.39739   0.25159   0.00000  Uiso   1.00
N277   N     0.24691   0.64895   0.08129   0.00000  Uiso   1.00
O278   O     0.27912   0.65604   0.04826   0.00000  Uiso   1.00
O279   O     0.21158   0.62138   0.05547   0.00000  Uiso   1.00
N280   N     0.25140   0.35139   0.25356   0.00000  Uiso   1.00
O281   O     0.22142   0.34395   0.28977   0.00000  Uiso   1.00
O282   O     0.28794   0.37760   0.27723   0.00000  Uiso   1.00
N283   N     0.19357   0.48204   0.32446   0.00000  Uiso   1.00
O284   O     0.16949   0.52119   0.00576   0.00000  Uiso   1.00
O285   O     0.17523   0.43823   0.29445   0.00000  Uiso   1.00
N286   N     0.30651   0.51951   0.00875   0.00000  Uiso   1.00
O287   O     0.32987   0.47957   0.33034   0.00000  Uiso   1.00
O288   O     0.32708   0.56459   0.01967   0.00000  Uiso   1.00
O289   O     0.75326   0.42871   0.20659   0.00000  Uiso   1.00
O290   O     0.74675   0.57129   0.12674   0.00000  Uiso   1.00
O291   O     0.74480   0.41892   0.10279   0.00000  Uiso   1.00
O292   O     0.75520   0.58108   0.23055   0.00000  Uiso   1.00
C293   C     0.74861   0.40032   0.15146   0.00000  Uiso   1.00
C294   C     0.74983   0.59967   0.18213   0.00000  Uiso   1.00
O295   O     0.68936   0.50488   0.21857   0.00000  Uiso   1.00
O296   O     0.81065   0.49512   0.11476   0.00000  Uiso   1.00
O297   O     0.68090   0.49510   0.11477   0.00000  Uiso   1.00
O298   O     0.81910   0.50490   0.21857   0.00000  Uiso   1.00
C299   C     0.66455   0.49612   0.16690   0.00000  Uiso   1.00
C300   C     0.83540   0.49926   0.16564   0.00000  Uiso   1.00
Cu301  Cu    0.75501   0.50579   0.22813   0.00000  Uiso   1.00
Cu302  Cu    0.74500   0.49421   0.10521   0.00000  Uiso   1.00
C303   C     0.91074   0.54366   0.18968   0.00000  Uiso   1.00
C304   C     0.58987   0.44649   0.14995   0.00000  Uiso   1.00
C305   C     0.88389   0.49862   0.16431   0.00000  Uiso   1.00
C306   C     0.61590   0.49352   0.16728   0.00000  Uiso   1.00
C307   C     0.90326   0.45238   0.14231   0.00000  Uiso   1.00
C308   C     0.59542   0.53952   0.17934   0.00000  Uiso   1.00
C309   C     0.94959   0.45056   0.14661   0.00000  Uiso   1.00
C310   C     0.54973   0.53961   0.18586   0.00000  Uiso   1.00
C311   C     0.97670   0.49580   0.16897   0.00000  Uiso   1.00
C312   C     0.52310   0.49361   0.16846   0.00000  Uiso   1.00
C313   C     0.95741   0.54311   0.19205   0.00000  Uiso   1.00
C314   C     0.54281   0.44611   0.14841   0.00000  Uiso   1.00
C315   C     0.96878   0.40364   0.12894   0.00000  Uiso   1.00
C316   C     0.53070   0.58549   0.20989   0.00000  Uiso   1.00
C317   C     0.51510   0.40001   0.12767   0.00000  Uiso   1.00
C318   C     0.98507   0.58852   0.21620   0.00000  Uiso   1.00
H319   H     0.94676   0.36970   0.11688   0.00000  Uiso   1.00
H320   H     0.55215   0.61894   0.22579   0.00000  Uiso   1.00
C321   C     0.74751   0.34482   0.14306   0.00000  Uiso   1.00
C322   C     0.74838   0.65532   0.19126   0.00000  Uiso   1.00
N323   N     0.73745   0.48547   0.01284   0.00000  Uiso   1.00
N324   N     0.76256   0.51453   0.32049   0.00000  Uiso   1.00
O325   O     0.89089   0.58802   0.21384   0.00000  Uiso   1.00
C326   C     0.88032   0.61259   0.16647   0.00000  Uiso   1.00
H327   H     0.85830   0.58717   0.12971   0.00000  Uiso   1.00
H328   H     0.91052   0.62519   0.14691   0.00000  Uiso   1.00
C329   C     0.85561   0.65887   0.19251   0.00000  Uiso   1.00
H330   H     0.87823   0.35691   0.22027   0.00000  Uiso   1.00
H331   H     0.83751   0.33901   0.15592   0.00000  Uiso   1.00
H332   H     0.83152   0.64683   0.22171   0.00000  Uiso   1.00
O333   O     0.61025   0.40080   0.13789   0.00000  Uiso   1.00
C334   C     0.62779   0.39231   0.08038   0.00000  Uiso   1.00
H335   H     0.66353   0.40323   0.08678   0.00000  Uiso   1.00
H336   H     0.61196   0.41360   0.04846   0.00000  Uiso   1.00
C337   C     0.62296   0.33555   0.05114   0.00000  Uiso   1.00
H338   H     0.59074   0.65968   0.02443   0.00000  Uiso   1.00
H339   H     0.64928   0.65949   0.01981   0.00000  Uiso   1.00
H340   H     0.62611   0.64556   0.08576   0.00000  Uiso   1.00
O341   O     0.87666   0.40775   0.12167   0.00000  Uiso   1.00
C342   C     0.86842   0.39770   0.05777   0.00000  Uiso   1.00
H343   H     0.88903   0.42221   0.03472   0.00000  Uiso   1.00
H344   H     0.83324   0.40426   0.04824   0.00000  Uiso   1.00
C345   C     0.87550   0.34161   0.02997   0.00000  Uiso   1.00
H346   H     0.86551   0.65061   0.06078   0.00000  Uiso   1.00
H347   H     0.85550   0.66185   0.31965   0.00000  Uiso   1.00
H348   H     0.91050   0.33590   0.02146   0.00000  Uiso   1.00
O349   O     0.61865   0.58315   0.17231   0.00000  Uiso   1.00
C350   C     0.63529   0.61309   0.22919   0.00000  Uiso   1.00
H351   H     0.67023   0.60526   0.23722   0.00000  Uiso   1.00
H352   H     0.61762   0.60488   0.26807   0.00000  Uiso   1.00
C353   C     0.63148   0.33572   0.22736   0.00000  Uiso   1.00
H354   H     0.59967   0.34095   0.20369   0.00000  Uiso   1.00
H355   H     0.63194   0.35966   0.27383   0.00000  Uiso   1.00
H356   H     0.65870   0.34887   0.20283   0.00000  Uiso   1.00
O357   O     0.53464   0.35330   0.10681   0.00000  Uiso   1.00
C358   C     0.50430   0.64356   0.08369   0.00000  Uiso   1.00
H359   H     0.98211   0.65005   0.04574   0.00000  Uiso   1.00
H360   H     0.98471   0.63543   0.12058   0.00000  Uiso   1.00
C361   C     0.52833   0.59553   0.05887   0.00000  Uiso   1.00
H362   H     0.55785   0.59354   0.08920   0.00000  Uiso   1.00
H363   H     0.50586   0.56086   0.05577   0.00000  Uiso   1.00
H364   H     0.53842   0.59509   0.01248   0.00000  Uiso   1.00
O365   O     0.96624   0.63406   0.24475   0.00000  Uiso   1.00
C366   C     0.99621   0.34492   0.26105   0.00000  Uiso   1.00
H367   H     0.51292   0.35133   0.22093   0.00000  Uiso   1.00
H368   H     0.52111   0.34108   0.29759   0.00000  Uiso   1.00
C369   C     0.97224   0.39306   0.28495   0.00000  Uiso   1.00
H370   H     0.95880   0.39186   0.32895   0.00000  Uiso   1.00
H371   H     0.99593   0.42726   0.29256   0.00000  Uiso   1.00
H372   H     0.94535   0.39739   0.25159   0.00000  Uiso   1.00
N373   N     0.74691   0.64895   0.08129   0.00000  Uiso   1.00
O374   O     0.77912   0.65604   0.04826   0.00000  Uiso   1.00
O375   O     0.71158   0.62138   0.05547   0.00000  Uiso   1.00
N376   N     0.75140   0.35139   0.25356   0.00000  Uiso   1.00
O377   O     0.72142   0.34395   0.28977   0.00000  Uiso   1.00
O378   O     0.78794   0.37760   0.27723   0.00000  Uiso   1.00
N379   N     0.69357   0.48204   0.32446   0.00000  Uiso   1.00
O380   O     0.66949   0.52119   0.00576   0.00000  Uiso   1.00
O381   O     0.67523   0.43823   0.29445   0.00000  Uiso   1.00
N382   N     0.80651   0.51951   0.00875   0.00000  Uiso   1.00
O383   O     0.82987   0.47957   0.33034   0.00000  Uiso   1.00
O384   O     0.82708   0.56459   0.01967   0.00000  Uiso   1.00
O385   O     0.25326   0.76204   0.20659   0.00000  Uiso   1.00
O386   O     0.24675   0.90462   0.12674   0.00000  Uiso   1.00
O387   O     0.24480   0.75226   0.10279   0.00000  Uiso   1.00
O388   O     0.25520   0.91441   0.23055   0.00000  Uiso   1.00
C389   C     0.24861   0.73366   0.15146   0.00000  Uiso   1.00
C390   C     0.24983   0.93300   0.18213   0.00000  Uiso   1.00
O391   O     0.18936   0.83821   0.21857   0.00000  Uiso   1.00
O392   O     0.31065   0.82845   0.11476   0.00000  Uiso   1.00
O393   O     0.18090   0.82843   0.11477   0.00000  Uiso   1.00
O394   O     0.31910   0.83824   0.21857   0.00000  Uiso   1.00
C395   C     0.16455   0.82945   0.16690   0.00000  Uiso   1.00
C396   C     0.33540   0.83259   0.16564   0.00000  Uiso   1.00
Cu397  Cu    0.25501   0.83913   0.22813   0.00000  Uiso   1.00
Cu398  Cu    0.24500   0.82754   0.10521   0.00000  Uiso   1.00
C399   C     0.41074   0.87699   0.18968   0.00000  Uiso   1.00
C400   C     0.08987   0.77983   0.14995   0.00000  Uiso   1.00
C401   C     0.38389   0.83195   0.16431   0.00000  Uiso   1.00
C402   C     0.11590   0.82685   0.16728   0.00000  Uiso   1.00
C403   C     0.40326   0.78572   0.14231   0.00000  Uiso   1.00
C404   C     0.09542   0.87285   0.17934   0.00000  Uiso   1.00
C405   C     0.44959   0.78389   0.14661   0.00000  Uiso   1.00
C406   C     0.04973   0.87294   0.18586   0.00000  Uiso   1.00
C407   C     0.47670   0.82913   0.16897   0.00000  Uiso   1.00
C408   C     0.02310   0.82694   0.16846   0.00000  Uiso   1.00
C409   C     0.45741   0.87644   0.19205   0.00000  Uiso   1.00
C410   C     0.04281   0.77945   0.14841   0.00000  Uiso   1.00
C411   C     0.46878   0.73697   0.12894   0.00000  Uiso   1.00
C412   C     0.03070   0.91883   0.20989   0.00000  Uiso   1.00
C413   C     0.01510   0.73334   0.12767   0.00000  Uiso   1.00
C414   C     0.48507   0.92185   0.21620   0.00000  Uiso   1.00
H415   H     0.44676   0.70304   0.11688   0.00000  Uiso   1.00
H416   H     0.05215   0.95228   0.22579   0.00000  Uiso   1.00
C417   C     0.24751   0.67815   0.14306   0.00000  Uiso   1.00
C418   C     0.24838   0.98865   0.19126   0.00000  Uiso   1.00
N419   N     0.23745   0.81881   0.01284   0.00000  Uiso   1.00
N420   N     0.26256   0.84786   0.32049   0.00000  Uiso   1.00
O421   O     0.39089   0.92135   0.21384   0.00000  Uiso   1.00
C422   C     0.38032   0.94592   0.16647   0.00000  Uiso   1.00
H423   H     0.35830   0.92050   0.12971   0.00000  Uiso   1.00
H424   H     0.41052   0.95852   0.14691   0.00000  Uiso   1.00
C425   C     0.35561   0.99220   0.19251   0.00000  Uiso   1.00
H426   H     0.37823   0.69024   0.22027   0.00000  Uiso   1.00
H427   H     0.33751   0.67234   0.15592   0.00000  Uiso   1.00
H428   H     0.33152   0.98016   0.22171   0.00000  Uiso   1.00
O429   O     0.11025   0.73413   0.13789   0.00000  Uiso   1.00
C430   C     0.12779   0.72565   0.08038   0.00000  Uiso   1.00
H431   H     0.16353   0.73656   0.08678   0.00000  Uiso   1.00
H432   H     0.11196   0.74693   0.04846   0.00000  Uiso   1.00
C433   C     0.12296   0.66888   0.05114   0.00000  Uiso   1.00
H434   H     0.09074   0.99301   0.02443   0.00000  Uiso   1.00
H435   H     0.14928   0.99283   0.01981   0.00000  Uiso   1.00
H436   H     0.12611   0.97889   0.08576   0.00000  Uiso   1.00
O437   O     0.37666   0.74109   0.12167   0.00000  Uiso   1.00
C438   C     0.36842   0.73103   0.05777   0.00000  Uiso   1.00
H439   H     0.38903   0.75554   0.03472   0.00000  Uiso   1.00
H440   H     0.33324   0.73759   0.04824   0.00000  Uiso   1.00
C441   C     0.37550   0.67495   0.02997   0.00000  Uiso   1.00
H442   H     0.36551   0.98394   0.06078   0.00000  Uiso   1.00
H443   H     0.35550   0.99518   0.31965   0.00000  Uiso   1.00
H444   H     0.41050   0.66924   0.02146   0.00000  Uiso   1.00
O445   O     0.11865   0.91648   0.17231   0.00000  Uiso   1.00
C446   C     0.13529   0.94642   0.22919   0.00000  Uiso   1.00
H447   H     0.17023   0.93859   0.23722   0.00000  Uiso   1.00
H448   H     0.11762   0.93822   0.26807   0.00000  Uiso   1.00
C449   C     0.13148   0.66905   0.22736   0.00000  Uiso   1.00
H450   H     0.09967   0.67429   0.20369   0.00000  Uiso   1.00
H451   H     0.13194   0.69299   0.27383   0.00000  Uiso   1.00
H452   H     0.15870   0.68220   0.20283   0.00000  Uiso   1.00
O453   O     0.03464   0.68664   0.10681   0.00000  Uiso   1.00
C454   C     0.00430   0.97690   0.08369   0.00000  Uiso   1.00
H455   H     0.48211   0.98338   0.04574   0.00000  Uiso   1.00
H456   H     0.48471   0.96876   0.12058   0.00000  Uiso   1.00
C457   C     0.02833   0.92886   0.05887   0.00000  Uiso   1.00
H458   H     0.05785   0.92687   0.08920   0.00000  Uiso   1.00
H459   H     0.00586   0.89419   0.05577   0.00000  Uiso   1.00
H460   H     0.03842   0.92843   0.01248   0.00000  Uiso   1.00
O461   O     0.46624   0.96740   0.24475   0.00000  Uiso   1.00
C462   C     0.49621   0.67825   0.26105   0.00000  Uiso   1.00
H463   H     0.01292   0.68466   0.22093   0.00000  Uiso   1.00
H464   H     0.02111   0.67441   0.29759   0.00000  Uiso   1.00
C465   C     0.47224   0.72639   0.28495   0.00000  Uiso   1.00
H466   H     0.45880   0.72520   0.32895   0.00000  Uiso   1.00
H467   H     0.49593   0.76059   0.29256   0.00000  Uiso   1.00
H468   H     0.44535   0.73072   0.25159   0.00000  Uiso   1.00
N469   N     0.24691   0.98229   0.08129   0.00000  Uiso   1.00
O470   O     0.27912   0.98937   0.04826   0.00000  Uiso   1.00
O471   O     0.21158   0.95471   0.05547   0.00000  Uiso   1.00
N472   N     0.25140   0.68472   0.25356   0.00000  Uiso   1.00
O473   O     0.22142   0.67728   0.28977   0.00000  Uiso   1.00
O474   O     0.28794   0.71094   0.27723   0.00000  Uiso   1.00
N475   N     0.19357   0.81537   0.32446   0.00000  Uiso   1.00
O476   O     0.16949   0.85452   0.00576   0.00000  Uiso   1.00
O477   O     0.17523   0.77156   0.29445   0.00000  Uiso   1.00
N478   N     0.30651   0.85284   0.00875   0.00000  Uiso   1.00
O479   O     0.32987   0.81291   0.33034   0.00000  Uiso   1.00
O480   O     0.32708   0.89792   0.01967   0.00000  Uiso   1.00
O481   O     0.75326   0.76204   0.20659   0.00000  Uiso   1.00
O482   O     0.74675   0.90462   0.12674   0.00000  Uiso   1.00
O483   O     0.74480   0.75226   0.10279   0.00000  Uiso   1.00
O484   O     0.75520   0.91441   0.23055   0.00000  Uiso   1.00
C485   C     0.74861   0.73366   0.15146   0.00000  Uiso   1.00
C486   C     0.74983   0.93300   0.18213   0.00000  Uiso   1.00
O487   O     0.68936   0.83821   0.21857   0.00000  Uiso   1.00
O488   O     0.81065   0.82845   0.11476   0.00000  Uiso   1.00
O489   O     0.68090   0.82843   0.11477   0.00000  Uiso   1.00
O490   O     0.81910   0.83824   0.21857   0.00000  Uiso   1.00
C491   C     0.66455   0.82945   0.16690   0.00000  Uiso   1.00
C492   C     0.83540   0.83259   0.16564   0.00000  Uiso   1.00
Cu493  Cu    0.75501   0.83913   0.22813   0.00000  Uiso   1.00
Cu494  Cu    0.74500   0.82754   0.10521   0.00000  Uiso   1.00
C495   C     0.91074   0.87699   0.18968   0.00000  Uiso   1.00
C496   C     0.58987   0.77983   0.14995   0.00000  Uiso   1.00
C497   C     0.88389   0.83195   0.16431   0.00000  Uiso   1.00
C498   C     0.61590   0.82685   0.16728   0.00000  Uiso   1.00
C499   C     0.90326   0.78572   0.14231   0.00000  Uiso   1.00
C500   C     0.59542   0.87285   0.17934   0.00000  Uiso   1.00
C501   C     0.94959   0.78389   0.14661   0.00000  Uiso   1.00
C502   C     0.54973   0.87294   0.18586   0.00000  Uiso   1.00
C503   C     0.97670   0.82913   0.16897   0.00000  Uiso   1.00
C504   C     0.52310   0.82694   0.16846   0.00000  Uiso   1.00
C505   C     0.95741   0.87644   0.19205   0.00000  Uiso   1.00
C506   C     0.54281   0.77945   0.14841   0.00000  Uiso   1.00
C507   C     0.96878   0.73697   0.12894   0.00000  Uiso   1.00
C508   C     0.53070   0.91883   0.20989   0.00000  Uiso   1.00
C509   C     0.51510   0.73334   0.12767   0.00000  Uiso   1.00
C510   C     0.98507   0.92185   0.21620   0.00000  Uiso   1.00
H511   H     0.94676   0.70304   0.11688   0.00000  Uiso   1.00
H512   H     0.55215   0.95228   0.22579   0.00000  Uiso   1.00
C513   C     0.74751   0.67815   0.14306   0.00000  Uiso   1.00
C514   C     0.74838   0.98865   0.19126   0.00000  Uiso   1.00
N515   N     0.73745   0.81881   0.01284   0.00000  Uiso   1.00
N516   N     0.76256   0.84786   0.32049   0.00000  Uiso   1.00
O517   O     0.89089   0.92135   0.21384   0.00000  Uiso   1.00
C518   C     0.88032   0.94592   0.16647   0.00000  Uiso   1.00
H519   H     0.85830   0.92050   0.12971   0.00000  Uiso   1.00
H520   H     0.91052   0.95852   0.14691   0.00000  Uiso   1.00
C521   C     0.85561   0.99220   0.19251   0.00000  Uiso   1.00
H522   H     0.87823   0.69024   0.22027   0.00000  Uiso   1.00
H523   H     0.83751   0.67234   0.15592   0.00000  Uiso   1.00
H524   H     0.83152   0.98016   0.22171   0.00000  Uiso   1.00
O525   O     0.61025   0.73413   0.13789   0.00000  Uiso   1.00
C526   C     0.62779   0.72565   0.08038   0.00000  Uiso   1.00
H527   H     0.66353   0.73656   0.08678   0.00000  Uiso   1.00
H528   H     0.61196   0.74693   0.04846   0.00000  Uiso   1.00
C529   C     0.62296   0.66888   0.05114   0.00000  Uiso   1.00
H530   H     0.59074   0.99301   0.02443   0.00000  Uiso   1.00
H531   H     0.64928   0.99283   0.01981   0.00000  Uiso   1.00
H532   H     0.62611   0.97889   0.08576   0.00000  Uiso   1.00
O533   O     0.87666   0.74109   0.12167   0.00000  Uiso   1.00
C534   C     0.86842   0.73103   0.05777   0.00000  Uiso   1.00
H535   H     0.88903   0.75554   0.03472   0.00000  Uiso   1.00
H536   H     0.83324   0.73759   0.04824   0.00000  Uiso   1.00
C537   C     0.87550   0.67495   0.02997   0.00000  Uiso   1.00
H538   H     0.86551   0.98394   0.06078   0.00000  Uiso   1.00
H539   H     0.85550   0.99518   0.31965   0.00000  Uiso   1.00
H540   H     0.91050   0.66924   0.02146   0.00000  Uiso   1.00
O541   O     0.61865   0.91648   0.17231   0.00000  Uiso   1.00
C542   C     0.63529   0.94642   0.22919   0.00000  Uiso   1.00
H543   H     0.67023   0.93859   0.23722   0.00000  Uiso   1.00
H544   H     0.61762   0.93822   0.26807   0.00000  Uiso   1.00
C545   C     0.63148   0.66905   0.22736   0.00000  Uiso   1.00
H546   H     0.59967   0.67429   0.20369   0.00000  Uiso   1.00
H547   H     0.63194   0.69299   0.27383   0.00000  Uiso   1.00
H548   H     0.65870   0.68220   0.20283   0.00000  Uiso   1.00
O549   O     0.53464   0.68664   0.10681   0.00000  Uiso   1.00
C550   C     0.50430   0.97690   0.08369   0.00000  Uiso   1.00
H551   H     0.98211   0.98338   0.04574   0.00000  Uiso   1.00
H552   H     0.98471   0.96876   0.12058   0.00000  Uiso   1.00
C553   C     0.52833   0.92886   0.05887   0.00000  Uiso   1.00
H554   H     0.55785   0.92687   0.08920   0.00000  Uiso   1.00
H555   H     0.50586   0.89419   0.05577   0.00000  Uiso   1.00
H556   H     0.53842   0.92843   0.01248   0.00000  Uiso   1.00
O557   O     0.96624   0.96740   0.24475   0.00000  Uiso   1.00
C558   C     0.99621   0.67825   0.26105   0.00000  Uiso   1.00
H559   H     0.51292   0.68466   0.22093   0.00000  Uiso   1.00
H560   H     0.52111   0.67441   0.29759   0.00000  Uiso   1.00
C561   C     0.97224   0.72639   0.28495   0.00000  Uiso   1.00
H562   H     0.95880   0.72520   0.32895   0.00000  Uiso   1.00
H563   H     0.99593   0.76059   0.29256   0.00000  Uiso   1.00
H564   H     0.94535   0.73072   0.25159   0.00000  Uiso   1.00
N565   N     0.74691   0.98229   0.08129   0.00000  Uiso   1.00
O566   O     0.77912   0.98937   0.04826   0.00000  Uiso   1.00
O567   O     0.71158   0.95471   0.05547   0.00000  Uiso   1.00
N568   N     0.75140   0.68472   0.25356   0.00000  Uiso   1.00
O569   O     0.72142   0.67728   0.28977   0.00000  Uiso   1.00
O570   O     0.78794   0.71094   0.27723   0.00000  Uiso   1.00
N571   N     0.69357   0.81537   0.32446   0.00000  Uiso   1.00
O572   O     0.66949   0.85452   0.00576   0.00000  Uiso   1.00
O573   O     0.67523   0.77156   0.29445   0.00000  Uiso   1.00
N574   N     0.80651   0.85284   0.00875   0.00000  Uiso   1.00
O575   O     0.82987   0.81291   0.33034   0.00000  Uiso   1.00
O576   O     0.82708   0.89792   0.01967   0.00000  Uiso   1.00
O577   O     0.25326   0.09538   0.53992   0.00000  Uiso   1.00
O578   O     0.24675   0.23796   0.46008   0.00000  Uiso   1.00
O579   O     0.24480   0.08559   0.43612   0.00000  Uiso   1.00
O580   O     0.25520   0.24774   0.56388   0.00000  Uiso   1.00
C581   C     0.24861   0.06699   0.48479   0.00000  Uiso   1.00
C582   C     0.24983   0.26634   0.51546   0.00000  Uiso   1.00
O583   O     0.18936   0.17155   0.55191   0.00000  Uiso   1.00
O584   O     0.31065   0.16179   0.44809   0.00000  Uiso   1.00
O585   O     0.18090   0.16176   0.44810   0.00000  Uiso   1.00
O586   O     0.31910   0.17157   0.55190   0.00000  Uiso   1.00
C587   C     0.16455   0.16279   0.50024   0.00000  Uiso   1.00
C588   C     0.33540   0.16592   0.49897   0.00000  Uiso   1.00
Cu589  Cu    0.25501   0.17246   0.56146   0.00000  Uiso   1.00
Cu590  Cu    0.24500   0.16087   0.43854   0.00000  Uiso   1.00
C591   C     0.41074   0.21032   0.52301   0.00000  Uiso   1.00
C592   C     0.08987   0.11316   0.48328   0.00000  Uiso   1.00
C593   C     0.38389   0.16528   0.49765   0.00000  Uiso   1.00
C594   C     0.11590   0.16018   0.50061   0.00000  Uiso   1.00
C595   C     0.40326   0.11905   0.47565   0.00000  Uiso   1.00
C596   C     0.09542   0.20619   0.51267   0.00000  Uiso   1.00
C597   C     0.44959   0.11722   0.47995   0.00000  Uiso   1.00
C598   C     0.04973   0.20628   0.51919   0.00000  Uiso   1.00
C599   C     0.47670   0.16247   0.50231   0.00000  Uiso   1.00
C600   C     0.02310   0.16028   0.50180   0.00000  Uiso   1.00
C601   C     0.45741   0.20977   0.52538   0.00000  Uiso   1.00
C602   C     0.04281   0.11278   0.48174   0.00000  Uiso   1.00
C603   C     0.46878   0.07031   0.46227   0.00000  Uiso   1.00
C604   C     0.03070   0.25216   0.54322   0.00000  Uiso   1.00
C605   C     0.01510   0.06668   0.46101   0.00000  Uiso   1.00
C606   C     0.48507   0.25518   0.54954   0.00000  Uiso   1.00
H607   H     0.44676   0.03637   0.45021   0.00000  Uiso   1.00
H608   H     0.05215   0.28561   0.55912   0.00000  Uiso   1.00
C609   C     0.24751   0.01149   0.47639   0.00000  Uiso   1.00
C610   C     0.24838   0.32199   0.52460   0.00000  Uiso   1.00
N611   N     0.23745   0.15214   0.34617   0.00000  Uiso   1.00
N612   N     0.26256   0.18119   0.65383   0.00000  Uiso   1.00
O613   O     0.39089   0.25469   0.54717   0.00000  Uiso   1.00
C614   C     0.38032   0.27925   0.49980   0.00000  Uiso   1.00
H615   H     0.35830   0.25384   0.46305   0.00000  Uiso   1.00
H616   H     0.41052   0.29186   0.48024   0.00000  Uiso   1.00
C617   C     0.35561   0.32554   0.52584   0.00000  Uiso   1.00
H618   H     0.37823   0.02357   0.55361   0.00000  Uiso   1.00
H619   H     0.33751   0.00567   0.48926   0.00000  Uiso   1.00
H620   H     0.33152   0.31350   0.55504   0.00000  Uiso   1.00
O621   O     0.11025   0.06746   0.47123   0.00000  Uiso   1.00
C622   C     0.12779   0.05898   0.41372   0.00000  Uiso   1.00
H623   H     0.16353   0.06990   0.42011   0.00000  Uiso   1.00
H624   H     0.11196   0.08026   0.38179   0.00000  Uiso   1.00
C625   C     0.12296   0.00222   0.38448   0.00000  Uiso   1.00
H626   H     0.09074   0.32635   0.35777   0.00000  Uiso   1.00
H627   H     0.14928   0.32616   0.35314   0.00000  Uiso   1.00
H628   H     0.12611   0.31222   0.41909   0.00000  Uiso   1.00
O629   O     0.37666   0.07442   0.45500   0.00000  Uiso   1.00
C630   C     0.36842   0.06437   0.39110   0.00000  Uiso   1.00
H631   H     0.38903   0.08887   0.36805   0.00000  Uiso   1.00
H632   H     0.33324   0.07092   0.38157   0.00000  Uiso   1.00
C633   C     0.37550   0.00828   0.36330   0.00000  Uiso   1.00
H634   H     0.36551   0.31727   0.39411   0.00000  Uiso   1.00
H635   H     0.35550   0.32852   0.65299   0.00000  Uiso   1.00
H636   H     0.41050   0.00257   0.35479   0.00000  Uiso   1.00
O637   O     0.11865   0.24982   0.50565   0.00000  Uiso   1.00
C638   C     0.13529   0.27975   0.56253   0.00000  Uiso   1.00
H639   H     0.17023   0.27192   0.57055   0.00000  Uiso   1.00
H640   H     0.11762   0.27155   0.60140   0.00000  Uiso   1.00
C641   C     0.13148   0.00239   0.56069   0.00000  Uiso   1.00
H642   H     0.09967   0.00762   0.53702   0.00000  Uiso   1.00
H643   H     0.13194   0.02632   0.60717   0.00000  Uiso   1.00
H644   H     0.15870   0.01553   0.53617   0.00000  Uiso   1.00
O645   O     0.03464   0.01997   0.44015   0.00000  Uiso   1.00
C646   C     0.00430   0.31023   0.41703   0.00000  Uiso   1.00
H647   H     0.48211   0.31671   0.37907   0.00000  Uiso   1.00
H648   H     0.48471   0.30210   0.45392   0.00000  Uiso   1.00
C649   C     0.02833   0.26219   0.39221   0.00000  Uiso   1.00
H650   H     0.05785   0.26021   0.42253   0.00000  Uiso   1.00
H651   H     0.00586   0.22752   0.38911   0.00000  Uiso   1.00
H652   H     0.03842   0.26176   0.34581   0.00000  Uiso   1.00
O653   O     0.46624   0.30073   0.57809   0.00000  Uiso   1.00
C654   C     0.49621   0.01159   0.59439   0.00000  Uiso   1.00
H655   H     0.01292   0.01799   0.55426   0.00000  Uiso   1.00
H656   H     0.02111   0.00775   0.63093   0.00000  Uiso   1.00
C657   C     0.47224   0.05972   0.61829   0.00000  Uiso   1.00
H658   H     0.45880   0.05853   0.66228   0.00000  Uiso   1.00
H659   H     0.49593   0.09392   0.62590   0.00000  Uiso   1.00
H660   H     0.44535   0.06406   0.58492   0.00000  Uiso   1.00
N661   N     0.24691   0.31562   0.41462   0.00000  Uiso   1.00
O662   O     0.27912   0.32270   0.38159   0.00000  Uiso   1.00
O663   O     0.21158   0.28805   0.38880   0.00000  Uiso   1.00
N664   N     0.25140   0.01806   0.58690   0.00000  Uiso   1.00
O665   O     0.22142   0.01062   0.62311   0.00000  Uiso   1.00
O666   O     0.28794   0.04427   0.61057   0.00000  Uiso   1.00
N667   N     0.19357   0.14870   0.65779   0.00000  Uiso   1.00
O668   O     0.16949   0.18786   0.33910   0.00000  Uiso   1.00
O669   O     0.17523   0.10490   0.62779   0.00000  Uiso   1.00
N670   N     0.30651   0.18617   0.34208   0.00000  Uiso   1.00
O671   O     0.32987   0.14624   0.66367   0.00000  Uiso   1.00
O672   O     0.32708   0.23126   0.35300   0.00000  Uiso   1.00
O673   O     0.75326   0.09538   0.53992   0.00000  Uiso   1.00
O674   O     0.74675   0.23796   0.46008   0.00000  Uiso   1.00
O675   O     0.74480   0.08559   0.43612   0.00000  Uiso   1.00
O676   O     0.75520   0.24774   0.56388   0.00000  Uiso   1.00
C677   C     0.74861   0.06699   0.48479   0.00000  Uiso   1.00
C678   C     0.74983   0.26634   0.51546   0.00000  Uiso   1.00
O679   O     0.68936   0.17155   0.55191   0.00000  Uiso   1.00
O680   O     0.81065   0.16179   0.44809   0.00000  Uiso   1.00
O681   O     0.68090   0.16176   0.44810   0.00000  Uiso   1.00
O682   O     0.81910   0.17157   0.55190   0.00000  Uiso   1.00
C683   C     0.66455   0.16279   0.50024   0.00000  Uiso   1.00
C684   C     0.83540   0.16592   0.49897   0.00000  Uiso   1.00
Cu685  Cu    0.75501   0.17246   0.56146   0.00000  Uiso   1.00
Cu686  Cu    0.74500   0.16087   0.43854   0.00000  Uiso   1.00
C687   C     0.91074   0.21032   0.52301   0.00000  Uiso   1.00
C688   C     0.58987   0.11316   0.48328   0.00000  Uiso   1.00
C689   C     0.88389   0.16528   0.49765   0.00000  Uiso   1.00
C690   C     0.61590   0.16018   0.50061   0.00000  Uiso   1.00
C691   C     0.90326   0.11905   0.47565   0.00000  Uiso   1.00
C692   C     0.59542   0.20619   0.51267   0.00000  Uiso   1.00
C693   C     0.94959   0.11722   0.47995   0.00000  Uiso   1.00
C694   C     0.54973   0.20628   0.51919   0.00000  Uiso   1.00
C695   C     0.97670   0.16247   0.50231   0.00000  Uiso   1.00
C696   C     0.52310   0.16028   0.50180   0.00000  Uiso   1.00
C697   C     0.95741   0.20977   0.52538   0.00000  Uiso   1.00
C698   C     0.54281   0.11278   0.48174   0.00000  Uiso   1.00
C699   C     0.96878   0.07031   0.46227   0.00000  Uiso   1.00
C700   C     0.53070   0.25216   0.54322   0.00000  Uiso   1.00
C701   C     0.51510   0.06668   0.46101   0.00000  Uiso   1.00
C702   C     0.98507   0.25518   0.54954   0.00000  Uiso   1.00
H703   H     0.94676   0.03637   0.45021   0.00000  Uiso   1.00
H704   H     0.55215   0.28561   0.55912   0.00000  Uiso   1.00
C705   C     0.74751   0.01149   0.47639   0.00000  Uiso   1.00
C706   C     0.74838   0.32199   0.52460   0.00000  Uiso   1.00
N707   N     0.73745   0.15214   0.34617   0.00000  Uiso   1.00
N708   N     0.76256   0.18119   0.65383   0.00000  Uiso   1.00
O709   O     0.89089   0.25469   0.54717   0.00000  Uiso   1.00
C710   C     0.88032   0.27925   0.49980   0.00000  Uiso   1.00
H711   H     0.85830   0.25384   0.46305   0.00000  Uiso   1.00
H712   H     0.91052   0.29186   0.48024   0.00000  Uiso   1.00
C713   C     0.85561   0.32554   0.52584   0.00000  Uiso   1.00
H714   H     0.87823   0.02357   0.55361   0.00000  Uiso   1.00
H715   H     0.83751   0.00567   0.48926   0.00000  Uiso   1.00
H716   H     0.83152   0.31350   0.55504   0.00000  Uiso   1.00
O717   O     0.61025   0.06746   0.47123   0.00000  Uiso   1.00
C718   C     0.62779   0.05898   0.41372   0.00000  Uiso   1.00
H719   H     0.66353   0.06990   0.42011   0.00000  Uiso   1.00
H720   H     0.61196   0.08026   0.38179   0.00000  Uiso   1.00
C721   C     0.62296   0.00222   0.38448   0.00000  Uiso   1.00
H722   H     0.59074   0.32635   0.35777   0.00000  Uiso   1.00
H723   H     0.64928   0.32616   0.35314   0.00000  Uiso   1.00
H724   H     0.62611   0.31222   0.41909   0.00000  Uiso   1.00
O725   O     0.87666   0.07442   0.45500   0.00000  Uiso   1.00
C726   C     0.86842   0.06437   0.39110   0.00000  Uiso   1.00
H727   H     0.88903   0.08887   0.36805   0.00000  Uiso   1.00
H728   H     0.83324   0.07092   0.38157   0.00000  Uiso   1.00
C729   C     0.87550   0.00828   0.36330   0.00000  Uiso   1.00
H730   H     0.86551   0.31727   0.39411   0.00000  Uiso   1.00
H731   H     0.85550   0.32852   0.65299   0.00000  Uiso   1.00
H732   H     0.91050   0.00257   0.35479   0.00000  Uiso   1.00
O733   O     0.61865   0.24982   0.50565   0.00000  Uiso   1.00
C734   C     0.63529   0.27975   0.56253   0.00000  Uiso   1.00
H735   H     0.67023   0.27192   0.57055   0.00000  Uiso   1.00
H736   H     0.61762   0.27155   0.60140   0.00000  Uiso   1.00
C737   C     0.63148   0.00239   0.56069   0.00000  Uiso   1.00
H738   H     0.59967   0.00762   0.53702   0.00000  Uiso   1.00
H739   H     0.63194   0.02632   0.60717   0.00000  Uiso   1.00
H740   H     0.65870   0.01553   0.53617   0.00000  Uiso   1.00
O741   O     0.53464   0.01997   0.44015   0.00000  Uiso   1.00
C742   C     0.50430   0.31023   0.41703   0.00000  Uiso   1.00
H743   H     0.98211   0.31671   0.37907   0.00000  Uiso   1.00
H744   H     0.98471   0.30210   0.45392   0.00000  Uiso   1.00
C745   C     0.52833   0.26219   0.39221   0.00000  Uiso   1.00
H746   H     0.55785   0.26021   0.42253   0.00000  Uiso   1.00
H747   H     0.50586   0.22752   0.38911   0.00000  Uiso   1.00
H748   H     0.53842   0.26176   0.34581   0.00000  Uiso   1.00
O749   O     0.96624   0.30073   0.57809   0.00000  Uiso   1.00
C750   C     0.99621   0.01159   0.59439   0.00000  Uiso   1.00
H751   H     0.51292   0.01799   0.55426   0.00000  Uiso   1.00
H752   H     0.52111   0.00775   0.63093   0.00000  Uiso   1.00
C753   C     0.97224   0.05972   0.61829   0.00000  Uiso   1.00
H754   H     0.95880   0.05853   0.66228   0.00000  Uiso   1.00
H755   H     0.99593   0.09392   0.62590   0.00000  Uiso   1.00
H756   H     0.94535   0.06406   0.58492   0.00000  Uiso   1.00
N757   N     0.74691   0.31562   0.41462   0.00000  Uiso   1.00
O758   O     0.77912   0.32270   0.38159   0.00000  Uiso   1.00
O759   O     0.71158   0.28805   0.38880   0.00000  Uiso   1.00
N760   N     0.75140   0.01806   0.58690   0.00000  Uiso   1.00
O761   O     0.72142   0.01062   0.62311   0.00000  Uiso   1.00
O762   O     0.78794   0.04427   0.61057   0.00000  Uiso   1.00
N763   N     0.69357   0.14870   0.65779   0.00000  Uiso   1.00
O764   O     0.66949   0.18786   0.33910   0.00000  Uiso   1.00
O765   O     0.67523   0.10490   0.62779   0.00000  Uiso   1.00
N766   N     0.80651   0.18617   0.34208   0.00000  Uiso   1.00
O767   O     0.82987   0.14624   0.66367   0.00000  Uiso   1.00
O768   O     0.82708   0.23126   0.35300   0.00000  Uiso   1.00
O769   O     0.25326   0.42871   0.53992   0.00000  Uiso   1.00
O770   O     0.24675   0.57129   0.46008   0.00000  Uiso   1.00
O771   O     0.24480   0.41892   0.43612   0.00000  Uiso   1.00
O772   O     0.25520   0.58108   0.56388   0.00000  Uiso   1.00
C773   C     0.24861   0.40032   0.48479   0.00000  Uiso   1.00
C774   C     0.24983   0.59967   0.51546   0.00000  Uiso   1.00
O775   O     0.18936   0.50488   0.55191   0.00000  Uiso   1.00
O776   O     0.31065   0.49512   0.44809   0.00000  Uiso   1.00
O777   O     0.18090   0.49510   0.44810   0.00000  Uiso   1.00
O778   O     0.31910   0.50490   0.55190   0.00000  Uiso   1.00
C779   C     0.16455   0.49612   0.50024   0.00000  Uiso   1.00
C780   C     0.33540   0.49926   0.49897   0.00000  Uiso   1.00
Cu781  Cu    0.25501   0.50579   0.56146   0.00000  Uiso   1.00
Cu782  Cu    0.24500   0.49421   0.43854   0.00000  Uiso   1.00
C783   C     0.41074   0.54366   0.52301   0.00000  Uiso   1.00
C784   C     0.08987   0.44649   0.48328   0.00000  Uiso   1.00
C785   C     0.38389   0.49862   0.49765   0.00000  Uiso   1.00
C786   C     0.11590   0.49352   0.50061   0.00000  Uiso   1.00
C787   C     0.40326   0.45238   0.47565   0.00000  Uiso   1.00
C788   C     0.09542   0.53952   0.51267   0.00000  Uiso   1.00
C789   C     0.44959   0.45056   0.47995   0.00000  Uiso   1.00
C790   C     0.04973   0.53961   0.51919   0.00000  Uiso   1.00
C791   C     0.47670   0.49580   0.50231   0.00000  Uiso   1.00
C792   C     0.02310   0.49361   0.50180   0.00000  Uiso   1.00
C793   C     0.45741   0.54311   0.52538   0.00000  Uiso   1.00
C794   C     0.04281   0.44611   0.48174   0.00000  Uiso   1.00
C795   C     0.46878   0.40364   0.46227   0.00000  Uiso   1.00
C796   C     0.03070   0.58549   0.54322   0.00000  Uiso   1.00
C797   C     0.01510   0.40001   0.46101   0.00000  Uiso   1.00
C798   C     0.48507   0.58852   0.54954   0.00000  Uiso   1.00
H799   H     0.44676   0.36970   0.45021   0.00000  Uiso   1.00
H800   H     0.05215   0.61894   0.55912   0.00000  Uiso   1.00
C801   C     0.24751   0.34482   0.47639   0.00000  Uiso   1.00
C802   C     0.24838   0.65532   0.52460   0.00000  Uiso   1.00
N803   N     0.23745   0.48547   0.34617   0.00000  Uiso   1.00
N804   N     0.26256   0.51453   0.65383   0.00000  Uiso   1.00
O805   O     0.39089   0.58802   0.54717   0.00000  Uiso   1.00
C806   C     0.38032   0.61259   0.49980   0.00000  Uiso   1.00
H807   H     0.35830   0.58717   0.46305   0.00000  Uiso   1.00
H808   H     0.41052   0.62519   0.48024   0.00000  Uiso   1.00
C809   C     0.35561   0.65887   0.52584   0.00000  Uiso   1.00
H810   H     0.37823   0.35691   0.55361   0.00000  Uiso   1.00
H811   H     0.33751   0.33901   0.48926   0.00000  Uiso   1.00
H812   H     0.33152   0.64683   0.55504   0.00000  Uiso   1.00
O813   O     0.11025   0.40080   0.47123   0.00000  Uiso   1.00
C814   C     0.12779   0.39231   0.41372   0.00000  Uiso   1.00
H815   H     0.16353   0.40323   0.42011   0.00000  Uiso   1.00
H816   H     0.11196   0.41360   0.38179   0.00000  Uiso   1.00
C817   C     0.12296   0.33555   0.38448   0.00000  Uiso   1.00
H818   H     0.09074   0.65968   0.35777   0.00000  Uiso   1.00
H819   H     0.14928   0.65949   0.35314   0.00000  Uiso   1.00
H820   H     0.12611   0.64556   0.41909   0.00000  Uiso   1.00
O821   O     0.37666   0.40775   0.45500   0.00000  Uiso   1.00
C822   C     0.36842   0.39770   0.39110   0.00000  Uiso   1.00
H823   H     0.38903   0.42221   0.36805   0.00000  Uiso   1.00
H824   H     0.33324   0.40426   0.38157   0.00000  Uiso   1.00
C825   C     0.37550   0.34161   0.36330   0.00000  Uiso   1.00
H826   H     0.36551   0.65061   0.39411   0.00000  Uiso   1.00
H827   H     0.35550   0.66185   0.65299   0.00000  Uiso   1.00
H828   H     0.41050   0.33590   0.35479   0.00000  Uiso   1.00
O829   O     0.11865   0.58315   0.50565   0.00000  Uiso   1.00
C830   C     0.13529   0.61309   0.56253   0.00000  Uiso   1.00
H831   H     0.17023   0.60526   0.57055   0.00000  Uiso   1.00
H832   H     0.11762   0.60488   0.60140   0.00000  Uiso   1.00
C833   C     0.13148   0.33572   0.56069   0.00000  Uiso   1.00
H834   H     0.09967   0.34095   0.53702   0.00000  Uiso   1.00
H835   H     0.13194   0.35966   0.60717   0.00000  Uiso   1.00
H836   H     0.15870   0.34887   0.53617   0.00000  Uiso   1.00
O837   O     0.03464   0.35330   0.44015   0.00000  Uiso   1.00
C838   C     0.00430   0.64356   0.41703   0.00000  Uiso   1.00
H839   H     0.48211   0.65005   0.37907   0.00000  Uiso   1.00
H840   H     0.48471   0.63543   0.45392   0.00000  Uiso   1.00
C841   C     0.02833   0.59553   0.39221   0.00000  Uiso   1.00
H842   H     0.05785   0.59354   0.42253   0.00000  Uiso   1.00
H843   H     0.00586   0.56086   0.38911   0.00000  Uiso   1.00
H844   H     0.03842   0.59509   0.34581   0.00000  Uiso   1.00
O845   O     0.46624   0.63406   0.57809   0.00000  Uiso   1.00
C846   C     0.49621   0.34492   0.59439   0.00000  Uiso   1.00
H847   H     0.01292   0.35133   0.55426   0.00000  Uiso   1.00
H848   H     0.02111   0.34108   0.63093   0.00000  Uiso   1.00
C849   C     0.47224   0.39306   0.61829   0.00000  Uiso   1.00
H850   H     0.45880   0.39186   0.66228   0.00000  Uiso   1.00
H851   H     0.49593   0.42726   0.62590   0.00000  Uiso   1.00
H852   H     0.44535   0.39739   0.58492   0.00000  Uiso   1.00
N853   N     0.24691   0.64895   0.41462   0.00000  Uiso   1.00
O854   O     0.27912   0.65604   0.38159   0.00000  Uiso   1.00
O855   O     0.21158   0.62138   0.38880   0.00000  Uiso   1.00
N856   N     0.25140   0.35139   0.58690   0.00000  Uiso   1.00
O857   O     0.22142   0.34395   0.62311   0.00000  Uiso   1.00
O858   O     0.28794   0.37760   0.61057   0.00000  Uiso   1.00
N859   N     0.19357   0.48204   0.65779   0.00000  Uiso   1.00
O860   O     0.16949   0.52119   0.33910   0.00000  Uiso   1.00
O861   O     0.17523   0.43823   0.62779   0.00000  Uiso   1.00
N862   N     0.30651   0.51951   0.34208   0.00000  Uiso   1.00
O863   O     0.32987   0.47957   0.66367   0.00000  Uiso   1.00
O864   O     0.32708   0.56459   0.35300   0.00000  Uiso   1.00
O865   O     0.75326   0.42871   0.53992   0.00000  Uiso   1.00
O866   O     0.74675   0.57129   0.46008   0.00000  Uiso   1.00
O867   O     0.74480   0.41892   0.43612   0.00000  Uiso   1.00
O868   O     0.75520   0.58108   0.56388   0.00000  Uiso   1.00
C869   C     0.74861   0.40032   0.48479   0.00000  Uiso   1.00
C870   C     0.74983   0.59967   0.51546   0.00000  Uiso   1.00
O871   O     0.68936   0.50488   0.55191   0.00000  Uiso   1.00
O872   O     0.81065   0.49512   0.44809   0.00000  Uiso   1.00
O873   O     0.68090   0.49510   0.44810   0.00000  Uiso   1.00
O874   O     0.81910   0.50490   0.55190   0.00000  Uiso   1.00
C875   C     0.66455   0.49612   0.50024   0.00000  Uiso   1.00
C876   C     0.83540   0.49926   0.49897   0.00000  Uiso   1.00
Cu877  Cu    0.75501   0.50579   0.56146   0.00000  Uiso   1.00
Cu878  Cu    0.74500   0.49421   0.43854   0.00000  Uiso   1.00
C879   C     0.91074   0.54366   0.52301   0.00000  Uiso   1.00
C880   C     0.58987   0.44649   0.48328   0.00000  Uiso   1.00
C881   C     0.88389   0.49862   0.49765   0.00000  Uiso   1.00
C882   C     0.61590   0.49352   0.50061   0.00000  Uiso   1.00
C883   C     0.90326   0.45238   0.47565   0.00000  Uiso   1.00
C884   C     0.59542   0.53952   0.51267   0.00000  Uiso   1.00
C885   C     0.94959   0.45056   0.47995   0.00000  Uiso   1.00
C886   C     0.54973   0.53961   0.51919   0.00000  Uiso   1.00
C887   C     0.97670   0.49580   0.50231   0.00000  Uiso   1.00
C888   C     0.52310   0.49361   0.50180   0.00000  Uiso   1.00
C889   C     0.95741   0.54311   0.52538   0.00000  Uiso   1.00
C890   C     0.54281   0.44611   0.48174   0.00000  Uiso   1.00
C891   C     0.96878   0.40364   0.46227   0.00000  Uiso   1.00
C892   C     0.53070   0.58549   0.54322   0.00000  Uiso   1.00
C893   C     0.51510   0.40001   0.46101   0.00000  Uiso   1.00
C894   C     0.98507   0.58852   0.54954   0.00000  Uiso   1.00
H895   H     0.94676   0.36970   0.45021   0.00000  Uiso   1.00
H896   H     0.55215   0.61894   0.55912   0.00000  Uiso   1.00
C897   C     0.74751   0.34482   0.47639   0.00000  Uiso   1.00
C898   C     0.74838   0.65532   0.52460   0.00000  Uiso   1.00
N899   N     0.73745   0.48547   0.34617   0.00000  Uiso   1.00
N900   N     0.76256   0.51453   0.65383   0.00000  Uiso   1.00
O901   O     0.89089   0.58802   0.54717   0.00000  Uiso   1.00
C902   C     0.88032   0.61259   0.49980   0.00000  Uiso   1.00
H903   H     0.85830   0.58717   0.46305   0.00000  Uiso   1.00
H904   H     0.91052   0.62519   0.48024   0.00000  Uiso   1.00
C905   C     0.85561   0.65887   0.52584   0.00000  Uiso   1.00
H906   H     0.87823   0.35691   0.55361   0.00000  Uiso   1.00
H907   H     0.83751   0.33901   0.48926   0.00000  Uiso   1.00
H908   H     0.83152   0.64683   0.55504   0.00000  Uiso   1.00
O909   O     0.61025   0.40080   0.47123   0.00000  Uiso   1.00
C910   C     0.62779   0.39231   0.41372   0.00000  Uiso   1.00
H911   H     0.66353   0.40323   0.42011   0.00000  Uiso   1.00
H912   H     0.61196   0.41360   0.38179   0.00000  Uiso   1.00
C913   C     0.62296   0.33555   0.38448   0.00000  Uiso   1.00
H914   H     0.59074   0.65968   0.35777   0.00000  Uiso   1.00
H915   H     0.64928   0.65949   0.35314   0.00000  Uiso   1.00
H916   H     0.62611   0.64556   0.41909   0.00000  Uiso   1.00
O917   O     0.87666   0.40775   0.45500   0.00000  Uiso   1.00
C918   C     0.86842   0.39770   0.39110   0.00000  Uiso   1.00
H919   H     0.88903   0.42221   0.36805   0.00000  Uiso   1.00
H920   H     0.83324   0.40426   0.38157   0.00000  Uiso   1.00
C921   C     0.87550   0.34161   0.36330   0.00000  Uiso   1.00
H922   H     0.86551   0.65061   0.39411   0.00000  Uiso   1.00
H923   H     0.85550   0.66185   0.65299   0.00000  Uiso   1.00
H924   H     0.91050   0.33590   0.35479   0.00000  Uiso   1.00
O925   O     0.61865   0.58315   0.50565   0.00000  Uiso   1.00
C926   C     0.63529   0.61309   0.56253   0.00000  Uiso   1.00
H927   H     0.67023   0.60526   0.57055   0.00000  Uiso   1.00
H928   H     0.61762   0.60488   0.60140   0.00000  Uiso   1.00
C929   C     0.63148   0.33572   0.56069   0.00000  Uiso   1.00
H930   H     0.59967   0.34095   0.53702   0.00000  Uiso   1.00
H931   H     0.63194   0.35966   0.60717   0.00000  Uiso   1.00
H932   H     0.65870   0.34887   0.53617   0.00000  Uiso   1.00
O933   O     0.53464   0.35330   0.44015   0.00000  Uiso   1.00
C934   C     0.50430   0.64356   0.41703   0.00000  Uiso   1.00
H935   H     0.98211   0.65005   0.37907   0.00000  Uiso   1.00
H936   H     0.98471   0.63543   0.45392   0.00000  Uiso   1.00
C937   C     0.52833   0.59553   0.39221   0.00000  Uiso   1.00
H938   H     0.55785   0.59354   0.42253   0.00000  Uiso   1.00
H939   H     0.50586   0.56086   0.38911   0.00000  Uiso   1.00
H940   H     0.53842   0.59509   0.34581   0.00000  Uiso   1.00
O941   O     0.96624   0.63406   0.57809   0.00000  Uiso   1.00
C942   C     0.99621   0.34492   0.59439   0.00000  Uiso   1.00
H943   H     0.51292   0.35133   0.55426   0.00000  Uiso   1.00
H944   H     0.52111   0.34108   0.63093   0.00000  Uiso   1.00
C945   C     0.97224   0.39306   0.61829   0.00000  Uiso   1.00
H946   H     0.95880   0.39186   0.66228   0.00000  Uiso   1.00
H947   H     0.99593   0.42726   0.62590   0.00000  Uiso   1.00
H948   H     0.94535   0.39739   0.58492   0.00000  Uiso   1.00
N949   N     0.74691   0.64895   0.41462   0.00000  Uiso   1.00
O950   O     0.77912   0.65604   0.38159   0.00000  Uiso   1.00
O951   O     0.71158   0.62138   0.38880   0.00000  Uiso   1.00
N952   N     0.75140   0.35139   0.58690   0.00000  Uiso   1.00
O953   O     0.72142   0.34395   0.62311   0.00000  Uiso   1.00
O954   O     0.78794   0.37760   0.61057   0.00000  Uiso   1.00
N955   N     0.69357   0.48204   0.65779   0.00000  Uiso   1.00
O956   O     0.66949   0.52119   0.33910   0.00000  Uiso   1.00
O957   O     0.67523   0.43823   0.62779   0.00000  Uiso   1.00
N958   N     0.80651   0.51951   0.34208   0.00000  Uiso   1.00
O959   O     0.82987   0.47957   0.66367   0.00000  Uiso   1.00
O960   O     0.82708   0.56459   0.35300   0.00000  Uiso   1.00
O961   O     0.25326   0.76204   0.53992   0.00000  Uiso   1.00
O962   O     0.24675   0.90462   0.46008   0.00000  Uiso   1.00
O963   O     0.24480   0.75226   0.43612   0.00000  Uiso   1.00
O964   O     0.25520   0.91441   0.56388   0.00000  Uiso   1.00
C965   C     0.24861   0.73366   0.48479   0.00000  Uiso   1.00
C966   C     0.24983   0.93300   0.51546   0.00000  Uiso   1.00
O967   O     0.18936   0.83821   0.55191   0.00000  Uiso   1.00
O968   O     0.31065   0.82845   0.44809   0.00000  Uiso   1.00
O969   O     0.18090   0.82843   0.44810   0.00000  Uiso   1.00
O970   O     0.31910   0.83824   0.55190   0.00000  Uiso   1.00
C971   C     0.16455   0.82945   0.50024   0.00000  Uiso   1.00
C972   C     0.33540   0.83259   0.49897   0.00000  Uiso   1.00
Cu973  Cu    0.25501   0.83913   0.56146   0.00000  Uiso   1.00
Cu974  Cu    0.24500   0.82754   0.43854   0.00000  Uiso   1.00
C975   C     0.41074   0.87699   0.52301   0.00000  Uiso   1.00
C976   C     0.08987   0.77983   0.48328   0.00000  Uiso   1.00
C977   C     0.38389   0.83195   0.49765   0.00000  Uiso   1.00
C978   C     0.11590   0.82685   0.50061   0.00000  Uiso   1.00
C979   C     0.40326   0.78572   0.47565   0.00000  Uiso   1.00
C980   C     0.09542   0.87285   0.51267   0.00000  Uiso   1.00
C981   C     0.44959   0.78389   0.47995   0.00000  Uiso   1.00
C982   C     0.04973   0.87294   0.51919   0.00000  Uiso   1.00
C983   C     0.47670   0.82913   0.50231   0.00000  Uiso   1.00
C984   C     0.02310   0.82694   0.50180   0.00000  Uiso   1.00
C985   C     0.45741   0.87644   0.52538   0.00000  Uiso   1.00
C986   C     0.04281   0.77945   0.48174   0.00000  Uiso   1.00
C987   C     0.46878   0.73697   0.46227   0.00000  Uiso   1.00
C988   C     0.03070   0.91883   0.54322   0.00000  Uiso   1.00
C989   C     0.01510   0.73334   0.46101   0.00000  Uiso   1.00
C990   C     0.48507   0.92185   0.54954   0.00000  Uiso   1.00
H991   H     0.44676   0.70304   0.45021   0.00000  Uiso   1.00
H992   H     0.05215   0.95228   0.55912   0.00000  Uiso   1.00
C993   C     0.24751   0.67815   0.47639   0.00000  Uiso   1.00
C994   C     0.24838   0.98865   0.52460   0.00000  Uiso   1.00
N995   N     0.23745   0.81881   0.34617   0.00000  Uiso   1.00
N996   N     0.26256   0.84786   0.65383   0.00000  Uiso   1.00
O997   O     0.39089   0.92135   0.54717   0.00000  Uiso   1.00
C998   C     0.38032   0.94592   0.49980   0.00000  Uiso   1.00
H999   H     0.35830   0.92050   0.46305   0.00000  Uiso   1.00
H1000  H     0.41052   0.95852   0.48024   0.00000  Uiso   1.00
C1001  C     0.35561   0.99220   0.52584   0.00000  Uiso   1.00
H1002  H     0.37823   0.69024   0.55361   0.00000  Uiso   1.00
H1003  H     0.33751   0.67234   0.48926   0.00000  Uiso   1.00
H1004  H     0.33152   0.98016   0.55504   0.00000  Uiso   1.00
O1005  O     0.11025   0.73413   0.47123   0.00000  Uiso   1.00
C1006  C     0.12779   0.72565   0.41372   0.00000  Uiso   1.00
H1007  H     0.16353   0.73656   0.42011   0.00000  Uiso   1.00
H1008  H     0.11196   0.74693   0.38179   0.00000  Uiso   1.00
C1009  C     0.12296   0.66888   0.38448   0.00000  Uiso   1.00
H1010  H     0.09074   0.99301   0.35777   0.00000  Uiso   1.00
H1011  H     0.14928   0.99283   0.35314   0.00000  Uiso   1.00
H1012  H     0.12611   0.97889   0.41909   0.00000  Uiso   1.00
O1013  O     0.37666   0.74109   0.45500   0.00000  Uiso   1.00
C1014  C     0.36842   0.73103   0.39110   0.00000  Uiso   1.00
H1015  H     0.38903   0.75554   0.36805   0.00000  Uiso   1.00
H1016  H     0.33324   0.73759   0.38157   0.00000  Uiso   1.00
C1017  C     0.37550   0.67495   0.36330   0.00000  Uiso   1.00
H1018  H     0.36551   0.98394   0.39411   0.00000  Uiso   1.00
H1019  H     0.35550   0.99518   0.65299   0.00000  Uiso   1.00
H1020  H     0.41050   0.66924   0.35479   0.00000  Uiso   1.00
O1021  O     0.11865   0.91648   0.50565   0.00000  Uiso   1.00
C1022  C     0.13529   0.94642   0.56253   0.00000  Uiso   1.00
H1023  H     0.17023   0.93859   0.57055   0.00000  Uiso   1.00
H1024  H     0.11762   0.93822   0.60140   0.00000  Uiso   1.00
C1025  C     0.13148   0.66905   0.56069   0.00000  Uiso   1.00
H1026  H     0.09967   0.67429   0.53702   0.00000  Uiso   1.00
H1027  H     0.13194   0.69299   0.60717   0.00000  Uiso   1.00
H1028  H     0.15870   0.68220   0.53617   0.00000  Uiso   1.00
O1029  O     0.03464   0.68664   0.44015   0.00000  Uiso   1.00
C1030  C     0.00430   0.97690   0.41703   0.00000  Uiso   1.00
H1031  H     0.48211   0.98338   0.37907   0.00000  Uiso   1.00
H1032  H     0.48471   0.96876   0.45392   0.00000  Uiso   1.00
C1033  C     0.02833   0.92886   0.39221   0.00000  Uiso   1.00
H1034  H     0.05785   0.92687   0.42253   0.00000  Uiso   1.00
H1035  H     0.00586   0.89419   0.38911   0.00000  Uiso   1.00
H1036  H     0.03842   0.92843   0.34581   0.00000  Uiso   1.00
O1037  O     0.46624   0.96740   0.57809   0.00000  Uiso   1.00
C1038  C     0.49621   0.67825   0.59439   0.00000  Uiso   1.00
H1039  H     0.01292   0.68466   0.55426   0.00000  Uiso   1.00
H1040  H     0.02111   0.67441   0.63093   0.00000  Uiso   1.00
C1041  C     0.47224   0.72639   0.61829   0.00000  Uiso   1.00
H1042  H     0.45880   0.72520   0.66228   0.00000  Uiso   1.00
H1043  H     0.49593   0.76059   0.62590   0.00000  Uiso   1.00
H1044  H     0.44535   0.73072   0.58492   0.00000  Uiso   1.00
N1045  N     0.24691   0.98229   0.41462   0.00000  Uiso   1.00
O1046  O     0.27912   0.98937   0.38159   0.00000  Uiso   1.00
O1047  O     0.21158   0.95471   0.38880   0.00000  Uiso   1.00
N1048  N     0.25140   0.68472   0.58690   0.00000  Uiso   1.00
O1049  O     0.22142   0.67728   0.62311   0.00000  Uiso   1.00
O1050  O     0.28794   0.71094   0.61057   0.00000  Uiso   1.00
N1051  N     0.19357   0.81537   0.65779   0.00000  Uiso   1.00
O1052  O     0.16949   0.85452   0.33910   0.00000  Uiso   1.00
O1053  O     0.17523   0.77156   0.62779   0.00000  Uiso   1.00
N1054  N     0.30651   0.85284   0.34208   0.00000  Uiso   1.00
O1055  O     0.32987   0.81291   0.66367   0.00000  Uiso   1.00
O1056  O     0.32708   0.89792   0.35300   0.00000  Uiso   1.00
O1057  O     0.75326   0.76204   0.53992   0.00000  Uiso   1.00
O1058  O     0.74675   0.90462   0.46008   0.00000  Uiso   1.00
O1059  O     0.74480   0.75226   0.43612   0.00000  Uiso   1.00
O1060  O     0.75520   0.91441   0.56388   0.00000  Uiso   1.00
C1061  C     0.74861   0.73366   0.48479   0.00000  Uiso   1.00
C1062  C     0.74983   0.93300   0.51546   0.00000  Uiso   1.00
O1063  O     0.68936   0.83821   0.55191   0.00000  Uiso   1.00
O1064  O     0.81065   0.82845   0.44809   0.00000  Uiso   1.00
O1065  O     0.68090   0.82843   0.44810   0.00000  Uiso   1.00
O1066  O     0.81910   0.83824   0.55190   0.00000  Uiso   1.00
C1067  C     0.66455   0.82945   0.50024   0.00000  Uiso   1.00
C1068  C     0.83540   0.83259   0.49897   0.00000  Uiso   1.00
Cu1069 Cu    0.75501   0.83913   0.56146   0.00000  Uiso   1.00
Cu1070 Cu    0.74500   0.82754   0.43854   0.00000  Uiso   1.00
C1071  C     0.91074   0.87699   0.52301   0.00000  Uiso   1.00
C1072  C     0.58987   0.77983   0.48328   0.00000  Uiso   1.00
C1073  C     0.88389   0.83195   0.49765   0.00000  Uiso   1.00
C1074  C     0.61590   0.82685   0.50061   0.00000  Uiso   1.00
C1075  C     0.90326   0.78572   0.47565   0.00000  Uiso   1.00
C1076  C     0.59542   0.87285   0.51267   0.00000  Uiso   1.00
C1077  C     0.94959   0.78389   0.47995   0.00000  Uiso   1.00
C1078  C     0.54973   0.87294   0.51919   0.00000  Uiso   1.00
C1079  C     0.97670   0.82913   0.50231   0.00000  Uiso   1.00
C1080  C     0.52310   0.82694   0.50180   0.00000  Uiso   1.00
C1081  C     0.95741   0.87644   0.52538   0.00000  Uiso   1.00
C1082  C     0.54281   0.77945   0.48174   0.00000  Uiso   1.00
C1083  C     0.96878   0.73697   0.46227   0.00000  Uiso   1.00
C1084  C     0.53070   0.91883   0.54322   0.00000  Uiso   1.00
C1085  C     0.51510   0.73334   0.46101   0.00000  Uiso   1.00
C1086  C     0.98507   0.92185   0.54954   0.00000  Uiso   1.00
H1087  H     0.94676   0.70304   0.45021   0.00000  Uiso   1.00
H1088  H     0.55215   0.95228   0.55912   0.00000  Uiso   1.00
C1089  C     0.74751   0.67815   0.47639   0.00000  Uiso   1.00
C1090  C     0.74838   0.98865   0.52460   0.00000  Uiso   1.00
N1091  N     0.73745   0.81881   0.34617   0.00000  Uiso   1.00
N1092  N     0.76256   0.84786   0.65383   0.00000  Uiso   1.00
O1093  O     0.89089   0.92135   0.54717   0.00000  Uiso   1.00
C1094  C     0.88032   0.94592   0.49980   0.00000  Uiso   1.00
H1095  H     0.85830   0.92050   0.46305   0.00000  Uiso   1.00
H1096  H     0.91052   0.95852   0.48024   0.00000  Uiso   1.00
C1097  C     0.85561   0.99220   0.52584   0.00000  Uiso   1.00
H1098  H     0.87823   0.69024   0.55361   0.00000  Uiso   1.00
H1099  H     0.83751   0.67234   0.48926   0.00000  Uiso   1.00
H1100  H     0.83152   0.98016   0.55504   0.00000  Uiso   1.00
O1101  O     0.61025   0.73413   0.47123   0.00000  Uiso   1.00
C1102  C     0.62779   0.72565   0.41372   0.00000  Uiso   1.00
H1103  H     0.66353   0.73656   0.42011   0.00000  Uiso   1.00
H1104  H     0.61196   0.74693   0.38179   0.00000  Uiso   1.00
C1105  C     0.62296   0.66888   0.38448   0.00000  Uiso   1.00
H1106  H     0.59074   0.99301   0.35777   0.00000  Uiso   1.00
H1107  H     0.64928   0.99283   0.35314   0.00000  Uiso   1.00
H1108  H     0.62611   0.97889   0.41909   0.00000  Uiso   1.00
O1109  O     0.87666   0.74109   0.45500   0.00000  Uiso   1.00
C1110  C     0.86842   0.73103   0.39110   0.00000  Uiso   1.00
H1111  H     0.88903   0.75554   0.36805   0.00000  Uiso   1.00
H1112  H     0.83324   0.73759   0.38157   0.00000  Uiso   1.00
C1113  C     0.87550   0.67495   0.36330   0.00000  Uiso   1.00
H1114  H     0.86551   0.98394   0.39411   0.00000  Uiso   1.00
H1115  H     0.85550   0.99518   0.65299   0.00000  Uiso   1.00
H1116  H     0.91050   0.66924   0.35479   0.00000  Uiso   1.00
O1117  O     0.61865   0.91648   0.50565   0.00000  Uiso   1.00
C1118  C     0.63529   0.94642   0.56253   0.00000  Uiso   1.00
H1119  H     0.67023   0.93859   0.57055   0.00000  Uiso   1.00
H1120  H     0.61762   0.93822   0.60140   0.00000  Uiso   1.00
C1121  C     0.63148   0.66905   0.56069   0.00000  Uiso   1.00
H1122  H     0.59967   0.67429   0.53702   0.00000  Uiso   1.00
H1123  H     0.63194   0.69299   0.60717   0.00000  Uiso   1.00
H1124  H     0.65870   0.68220   0.53617   0.00000  Uiso   1.00
O1125  O     0.53464   0.68664   0.44015   0.00000  Uiso   1.00
C1126  C     0.50430   0.97690   0.41703   0.00000  Uiso   1.00
H1127  H     0.98211   0.98338   0.37907   0.00000  Uiso   1.00
H1128  H     0.98471   0.96876   0.45392   0.00000  Uiso   1.00
C1129  C     0.52833   0.92886   0.39221   0.00000  Uiso   1.00
H1130  H     0.55785   0.92687   0.42253   0.00000  Uiso   1.00
H1131  H     0.50586   0.89419   0.38911   0.00000  Uiso   1.00
H1132  H     0.53842   0.92843   0.34581   0.00000  Uiso   1.00
O1133  O     0.96624   0.96740   0.57809   0.00000  Uiso   1.00
C1134  C     0.99621   0.67825   0.59439   0.00000  Uiso   1.00
H1135  H     0.51292   0.68466   0.55426   0.00000  Uiso   1.00
H1136  H     0.52111   0.67441   0.63093   0.00000  Uiso   1.00
C1137  C     0.97224   0.72639   0.61829   0.00000  Uiso   1.00
H1138  H     0.95880   0.72520   0.66228   0.00000  Uiso   1.00
H1139  H     0.99593   0.76059   0.62590   0.00000  Uiso   1.00
H1140  H     0.94535   0.73072   0.58492   0.00000  Uiso   1.00
N1141  N     0.74691   0.98229   0.41462   0.00000  Uiso   1.00
O1142  O     0.77912   0.98937   0.38159   0.00000  Uiso   1.00
O1143  O     0.71158   0.95471   0.38880   0.00000  Uiso   1.00
N1144  N     0.75140   0.68472   0.58690   0.00000  Uiso   1.00
O1145  O     0.72142   0.67728   0.62311   0.00000  Uiso   1.00
O1146  O     0.78794   0.71094   0.61057   0.00000  Uiso   1.00
N1147  N     0.69357   0.81537   0.65779   0.00000  Uiso   1.00
O1148  O     0.66949   0.85452   0.33910   0.00000  Uiso   1.00
O1149  O     0.67523   0.77156   0.62779   0.00000  Uiso   1.00
N1150  N     0.80651   0.85284   0.34208   0.00000  Uiso   1.00
O1151  O     0.82987   0.81291   0.66367   0.00000  Uiso   1.00
O1152  O     0.82708   0.89792   0.35300   0.00000  Uiso   1.00
O1153  O     0.25326   0.09538   0.87326   0.00000  Uiso   1.00
O1154  O     0.24675   0.23796   0.79341   0.00000  Uiso   1.00
O1155  O     0.24480   0.08559   0.76945   0.00000  Uiso   1.00
O1156  O     0.25520   0.24774   0.89721   0.00000  Uiso   1.00
C1157  C     0.24861   0.06699   0.81813   0.00000  Uiso   1.00
C1158  C     0.24983   0.26634   0.84879   0.00000  Uiso   1.00
O1159  O     0.18936   0.17155   0.88524   0.00000  Uiso   1.00
O1160  O     0.31065   0.16179   0.78143   0.00000  Uiso   1.00
O1161  O     0.18090   0.16176   0.78143   0.00000  Uiso   1.00
O1162  O     0.31910   0.17157   0.88523   0.00000  Uiso   1.00
C1163  C     0.16455   0.16279   0.83357   0.00000  Uiso   1.00
C1164  C     0.33540   0.16592   0.83231   0.00000  Uiso   1.00
Cu1165 Cu    0.25501   0.17246   0.89479   0.00000  Uiso   1.00
Cu1166 Cu    0.24500   0.16087   0.77187   0.00000  Uiso   1.00
C1167  C     0.41074   0.21032   0.85635   0.00000  Uiso   1.00
C1168  C     0.08987   0.11316   0.81661   0.00000  Uiso   1.00
C1169  C     0.38389   0.16528   0.83098   0.00000  Uiso   1.00
C1170  C     0.11590   0.16018   0.83394   0.00000  Uiso   1.00
C1171  C     0.40326   0.11905   0.80898   0.00000  Uiso   1.00
C1172  C     0.09542   0.20619   0.84600   0.00000  Uiso   1.00
C1173  C     0.44959   0.11722   0.81328   0.00000  Uiso   1.00
C1174  C     0.04973   0.20628   0.85253   0.00000  Uiso   1.00
C1175  C     0.47670   0.16247   0.83564   0.00000  Uiso   1.00
C1176  C     0.02310   0.16028   0.83513   0.00000  Uiso   1.00
C1177  C     0.45741   0.20977   0.85872   0.00000  Uiso   1.00
C1178  C     0.04281   0.11278   0.81507   0.00000  Uiso   1.00
C1179  C     0.46878   0.07031   0.79561   0.00000  Uiso   1.00
C1180  C     0.03070   0.25216   0.87656   0.00000  Uiso   1.00
C1181  C     0.01510   0.06668   0.79434   0.00000  Uiso   1.00
C1182  C     0.48507   0.25518   0.88287   0.00000  Uiso   1.00
H1183  H     0.44676   0.03637   0.78355   0.00000  Uiso   1.00
H1184  H     0.05215   0.28561   0.89245   0.00000  Uiso   1.00
C1185  C     0.24751   0.01149   0.80973   0.00000  Uiso   1.00
C1186  C     0.24838   0.32199   0.85793   0.00000  Uiso   1.00
N1187  N     0.23745   0.15214   0.67951   0.00000  Uiso   1.00
N1188  N     0.26256   0.18119   0.98716   0.00000  Uiso   1.00
O1189  O     0.39089   0.25469   0.88051   0.00000  Uiso   1.00
C1190  C     0.38032   0.27925   0.83314   0.00000  Uiso   1.00
H1191  H     0.35830   0.25384   0.79638   0.00000  Uiso   1.00
H1192  H     0.41052   0.29186   0.81357   0.00000  Uiso   1.00
C1193  C     0.35561   0.32554   0.85917   0.00000  Uiso   1.00
H1194  H     0.37823   0.02357   0.88694   0.00000  Uiso   1.00
H1195  H     0.33751   0.00567   0.82259   0.00000  Uiso   1.00
H1196  H     0.33152   0.31350   0.88838   0.00000  Uiso   1.00
O1197  O     0.11025   0.06746   0.80456   0.00000  Uiso   1.00
C1198  C     0.12779   0.05898   0.74705   0.00000  Uiso   1.00
H1199  H     0.16353   0.06990   0.75344   0.00000  Uiso   1.00
H1200  H     0.11196   0.08026   0.71513   0.00000  Uiso   1.00
C1201  C     0.12296   0.00222   0.71781   0.00000  Uiso   1.00
H1202  H     0.09074   0.32635   0.69110   0.00000  Uiso   1.00
H1203  H     0.14928   0.32616   0.68648   0.00000  Uiso   1.00
H1204  H     0.12611   0.31222   0.75242   0.00000  Uiso   1.00
O1205  O     0.37666   0.07442   0.78834   0.00000  Uiso   1.00
C1206  C     0.36842   0.06437   0.72444   0.00000  Uiso   1.00
H1207  H     0.38903   0.08887   0.70139   0.00000  Uiso   1.00
H1208  H     0.33324   0.07092   0.71491   0.00000  Uiso   1.00
C1209  C     0.37550   0.00828   0.69663   0.00000  Uiso   1.00
H1210  H     0.36551   0.31727   0.72744   0.00000  Uiso   1.00
H1211  H     0.35550   0.32852   0.98632   0.00000  Uiso   1.00
H1212  H     0.41050   0.00257   0.68813   0.00000  Uiso   1.00
O1213  O     0.11865   0.24982   0.83898   0.00000  Uiso   1.00
C1214  C     0.13529   0.27975   0.89586   0.00000  Uiso   1.00
H1215  H     0.17023   0.27192   0.90389   0.00000  Uiso   1.00
H1216  H     0.11762   0.27155   0.93473   0.00000  Uiso   1.00
C1217  C     0.13148   0.00239   0.89403   0.00000  Uiso   1.00
H1218  H     0.09967   0.00762   0.87036   0.00000  Uiso   1.00
H1219  H     0.13194   0.02632   0.94050   0.00000  Uiso   1.00
H1220  H     0.15870   0.01553   0.86950   0.00000  Uiso   1.00
O1221  O     0.03464   0.01997   0.77348   0.00000  Uiso   1.00
C1222  C     0.00430   0.31023   0.75036   0.00000  Uiso   1.00
H1223  H     0.48211   0.31671   0.71240   0.00000  Uiso   1.00
H1224  H     0.48471   0.30210   0.78725   0.00000  Uiso   1.00
C1225  C     0.02833   0.26219   0.72554   0.00000  Uiso   1.00
H1226  H     0.05785   0.26021   0.75587   0.00000  Uiso   1.00
H1227  H     0.00586   0.22752   0.72244   0.00000  Uiso   1.00
H1228  H     0.03842   0.26176   0.67914   0.00000  Uiso   1.00
O1229  O     0.46624   0.30073   0.91142   0.00000  Uiso   1.00
C1230  C     0.49621   0.01159   0.92772   0.00000  Uiso   1.00
H1231  H     0.01292   0.01799   0.88759   0.00000  Uiso   1.00
H1232  H     0.02111   0.00775   0.96426   0.00000  Uiso   1.00
C1233  C     0.47224   0.05972   0.95162   0.00000  Uiso   1.00
H1234  H     0.45880   0.05853   0.99561   0.00000  Uiso   1.00
H1235  H     0.49593   0.09392   0.95923   0.00000  Uiso   1.00
H1236  H     0.44535   0.06406   0.91825   0.00000  Uiso   1.00
N1237  N     0.24691   0.31562   0.74796   0.00000  Uiso   1.00
O1238  O     0.27912   0.32270   0.71492   0.00000  Uiso   1.00
O1239  O     0.21158   0.28805   0.72213   0.00000  Uiso   1.00
N1240  N     0.25140   0.01806   0.92023   0.00000  Uiso   1.00
O1241  O     0.22142   0.01062   0.95644   0.00000  Uiso   1.00
O1242  O     0.28794   0.04427   0.94390   0.00000  Uiso   1.00
N1243  N     0.19357   0.14870   0.99113   0.00000  Uiso   1.00
O1244  O     0.16949   0.18786   0.67243   0.00000  Uiso   1.00
O1245  O     0.17523   0.10490   0.96112   0.00000  Uiso   1.00
N1246  N     0.30651   0.18617   0.67541   0.00000  Uiso   1.00
O1247  O     0.32987   0.14624   0.99700   0.00000  Uiso   1.00
O1248  O     0.32708   0.23126   0.68633   0.00000  Uiso   1.00
O1249  O     0.75326   0.09538   0.87326   0.00000  Uiso   1.00
O1250  O     0.74675   0.23796   0.79341   0.00000  Uiso   1.00
O1251  O     0.74480   0.08559   0.76945   0.00000  Uiso   1.00
O1252  O     0.75520   0.24774   0.89721   0.00000  Uiso   1.00
C1253  C     0.74861   0.06699   0.81813   0.00000  Uiso   1.00
C1254  C     0.74983   0.26634   0.84879   0.00000  Uiso   1.00
O1255  O     0.68936   0.17155   0.88524   0.00000  Uiso   1.00
O1256  O     0.81065   0.16179   0.78143   0.00000  Uiso   1.00
O1257  O     0.68090   0.16176   0.78143   0.00000  Uiso   1.00
O1258  O     0.81910   0.17157   0.88523   0.00000  Uiso   1.00
C1259  C     0.66455   0.16279   0.83357   0.00000  Uiso   1.00
C1260  C     0.83540   0.16592   0.83231   0.00000  Uiso   1.00
Cu1261 Cu    0.75501   0.17246   0.89479   0.00000  Uiso   1.00
Cu1262 Cu    0.74500   0.16087   0.77187   0.00000  Uiso   1.00
C1263  C     0.91074   0.21032   0.85635   0.00000  Uiso   1.00
C1264  C     0.58987   0.11316   0.81661   0.00000  Uiso   1.00
C1265  C     0.88389   0.16528   0.83098   0.00000  Uiso   1.00
C1266  C     0.61590   0.16018   0.83394   0.00000  Uiso   1.00
C1267  C     0.90326   0.11905   0.80898   0.00000  Uiso   1.00
C1268  C     0.59542   0.20619   0.84600   0.00000  Uiso   1.00
C1269  C     0.94959   0.11722   0.81328   0.00000  Uiso   1.00
C1270  C     0.54973   0.20628   0.85253   0.00000  Uiso   1.00
C1271  C     0.97670   0.16247   0.83564   0.00000  Uiso   1.00
C1272  C     0.52310   0.16028   0.83513   0.00000  Uiso   1.00
C1273  C     0.95741   0.20977   0.85872   0.00000  Uiso   1.00
C1274  C     0.54281   0.11278   0.81507   0.00000  Uiso   1.00
C1275  C     0.96878   0.07031   0.79561   0.00000  Uiso   1.00
C1276  C     0.53070   0.25216   0.87656   0.00000  Uiso   1.00
C1277  C     0.51510   0.06668   0.79434   0.00000  Uiso   1.00
C1278  C     0.98507   0.25518   0.88287   0.00000  Uiso   1.00
H1279  H     0.94676   0.03637   0.78355   0.00000  Uiso   1.00
H1280  H     0.55215   0.28561   0.89245   0.00000  Uiso   1.00
C1281  C     0.74751   0.01149   0.80973   0.00000  Uiso   1.00
C1282  C     0.74838   0.32199   0.85793   0.00000  Uiso   1.00
N1283  N     0.73745   0.15214   0.67951   0.00000  Uiso   1.00
N1284  N     0.76256   0.18119   0.98716   0.00000  Uiso   1.00
O1285  O     0.89089   0.25469   0.88051   0.00000  Uiso   1.00
C1286  C     0.88032   0.27925   0.83314   0.00000  Uiso   1.00
H1287  H     0.85830   0.25384   0.79638   0.00000  Uiso   1.00
H1288  H     0.91052   0.29186   0.81357   0.00000  Uiso   1.00
C1289  C     0.85561   0.32554   0.85917   0.00000  Uiso   1.00
H1290  H     0.87823   0.02357   0.88694   0.00000  Uiso   1.00
H1291  H     0.83751   0.00567   0.82259   0.00000  Uiso   1.00
H1292  H     0.83152   0.31350   0.88838   0.00000  Uiso   1.00
O1293  O     0.61025   0.06746   0.80456   0.00000  Uiso   1.00
C1294  C     0.62779   0.05898   0.74705   0.00000  Uiso   1.00
H1295  H     0.66353   0.06990   0.75344   0.00000  Uiso   1.00
H1296  H     0.61196   0.08026   0.71513   0.00000  Uiso   1.00
C1297  C     0.62296   0.00222   0.71781   0.00000  Uiso   1.00
H1298  H     0.59074   0.32635   0.69110   0.00000  Uiso   1.00
H1299  H     0.64928   0.32616   0.68648   0.00000  Uiso   1.00
H1300  H     0.62611   0.31222   0.75242   0.00000  Uiso   1.00
O1301  O     0.87666   0.07442   0.78834   0.00000  Uiso   1.00
C1302  C     0.86842   0.06437   0.72444   0.00000  Uiso   1.00
H1303  H     0.88903   0.08887   0.70139   0.00000  Uiso   1.00
H1304  H     0.83324   0.07092   0.71491   0.00000  Uiso   1.00
C1305  C     0.87550   0.00828   0.69663   0.00000  Uiso   1.00
H1306  H     0.86551   0.31727   0.72744   0.00000  Uiso   1.00
H1307  H     0.85550   0.32852   0.98632   0.00000  Uiso   1.00
H1308  H     0.91050   0.00257   0.68813   0.00000  Uiso   1.00
O1309  O     0.61865   0.24982   0.83898   0.00000  Uiso   1.00
C1310  C     0.63529   0.27975   0.89586   0.00000  Uiso   1.00
H1311  H     0.67023   0.27192   0.90389   0.00000  Uiso   1.00
H1312  H     0.61762   0.27155   0.93473   0.00000  Uiso   1.00
C1313  C     0.63148   0.00239   0.89403   0.00000  Uiso   1.00
H1314  H     0.59967   0.00762   0.87036   0.00000  Uiso   1.00
H1315  H     0.63194   0.02632   0.94050   0.00000  Uiso   1.00
H1316  H     0.65870   0.01553   0.86950   0.00000  Uiso   1.00
O1317  O     0.53464   0.01997   0.77348   0.00000  Uiso   1.00
C1318  C     0.50430   0.31023   0.75036   0.00000  Uiso   1.00
H1319  H     0.98211   0.31671   0.71240   0.00000  Uiso   1.00
H1320  H     0.98471   0.30210   0.78725   0.00000  Uiso   1.00
C1321  C     0.52833   0.26219   0.72554   0.00000  Uiso   1.00
H1322  H     0.55785   0.26021   0.75587   0.00000  Uiso   1.00
H1323  H     0.50586   0.22752   0.72244   0.00000  Uiso   1.00
H1324  H     0.53842   0.26176   0.67914   0.00000  Uiso   1.00
O1325  O     0.96624   0.30073   0.91142   0.00000  Uiso   1.00
C1326  C     0.99621   0.01159   0.92772   0.00000  Uiso   1.00
H1327  H     0.51292   0.01799   0.88759   0.00000  Uiso   1.00
H1328  H     0.52111   0.00775   0.96426   0.00000  Uiso   1.00
C1329  C     0.97224   0.05972   0.95162   0.00000  Uiso   1.00
H1330  H     0.95880   0.05853   0.99561   0.00000  Uiso   1.00
H1331  H     0.99593   0.09392   0.95923   0.00000  Uiso   1.00
H1332  H     0.94535   0.06406   0.91825   0.00000  Uiso   1.00
N1333  N     0.74691   0.31562   0.74796   0.00000  Uiso   1.00
O1334  O     0.77912   0.32270   0.71492   0.00000  Uiso   1.00
O1335  O     0.71158   0.28805   0.72213   0.00000  Uiso   1.00
N1336  N     0.75140   0.01806   0.92023   0.00000  Uiso   1.00
O1337  O     0.72142   0.01062   0.95644   0.00000  Uiso   1.00
O1338  O     0.78794   0.04427   0.94390   0.00000  Uiso   1.00
N1339  N     0.69357   0.14870   0.99113   0.00000  Uiso   1.00
O1340  O     0.66949   0.18786   0.67243   0.00000  Uiso   1.00
O1341  O     0.67523   0.10490   0.96112   0.00000  Uiso   1.00
N1342  N     0.80651   0.18617   0.67541   0.00000  Uiso   1.00
O1343  O     0.82987   0.14624   0.99700   0.00000  Uiso   1.00
O1344  O     0.82708   0.23126   0.68633   0.00000  Uiso   1.00
O1345  O     0.25326   0.42871   0.87326   0.00000  Uiso   1.00
O1346  O     0.24675   0.57129   0.79341   0.00000  Uiso   1.00
O1347  O     0.24480   0.41892   0.76945   0.00000  Uiso   1.00
O1348  O     0.25520   0.58108   0.89721   0.00000  Uiso   1.00
C1349  C     0.24861   0.40032   0.81813   0.00000  Uiso   1.00
C1350  C     0.24983   0.59967   0.84879   0.00000  Uiso   1.00
O1351  O     0.18936   0.50488   0.88524   0.00000  Uiso   1.00
O1352  O     0.31065   0.49512   0.78143   0.00000  Uiso   1.00
O1353  O     0.18090   0.49510   0.78143   0.00000  Uiso   1.00
O1354  O     0.31910   0.50490   0.88523   0.00000  Uiso   1.00
C1355  C     0.16455   0.49612   0.83357   0.00000  Uiso   1.00
C1356  C     0.33540   0.49926   0.83231   0.00000  Uiso   1.00
Cu1357 Cu    0.25501   0.50579   0.89479   0.00000  Uiso   1.00
Cu1358 Cu    0.24500   0.49421   0.77187   0.00000  Uiso   1.00
C1359  C     0.41074   0.54366   0.85635   0.00000  Uiso   1.00
C1360  C     0.08987   0.44649   0.81661   0.00000  Uiso   1.00
C1361  C     0.38389   0.49862   0.83098   0.00000  Uiso   1.00
C1362  C     0.11590   0.49352   0.83394   0.00000  Uiso   1.00
C1363  C     0.40326   0.45238   0.80898   0.00000  Uiso   1.00
C1364  C     0.09542   0.53952   0.84600   0.00000  Uiso   1.00
C1365  C     0.44959   0.45056   0.81328   0.00000  Uiso   1.00
C1366  C     0.04973   0.53961   0.85253   0.00000  Uiso   1.00
C1367  C     0.47670   0.49580   0.83564   0.00000  Uiso   1.00
C1368  C     0.02310   0.49361   0.83513   0.00000  Uiso   1.00
C1369  C     0.45741   0.54311   0.85872   0.00000  Uiso   1.00
C1370  C     0.04281   0.44611   0.81507   0.00000  Uiso   1.00
C1371  C     0.46878   0.40364   0.79561   0.00000  Uiso   1.00
C1372  C     0.03070   0.58549   0.87656   0.00000  Uiso   1.00
C1373  C     0.01510   0.40001   0.79434   0.00000  Uiso   1.00
C1374  C     0.48507   0.58852   0.88287   0.00000  Uiso   1.00
H1375  H     0.44676   0.36970   0.78355   0.00000  Uiso   1.00
H1376  H     0.05215   0.61894   0.89245   0.00000  Uiso   1.00
C1377  C     0.24751   0.34482   0.80973   0.00000  Uiso   1.00
C1378  C     0.24838   0.65532   0.85793   0.00000  Uiso   1.00
N1379  N     0.23745   0.48547   0.67951   0.00000  Uiso   1.00
N1380  N     0.26256   0.51453   0.98716   0.00000  Uiso   1.00
O1381  O     0.39089   0.58802   0.88051   0.00000  Uiso   1.00
C1382  C     0.38032   0.61259   0.83314   0.00000  Uiso   1.00
H1383  H     0.35830   0.58717   0.79638   0.00000  Uiso   1.00
H1384  H     0.41052   0.62519   0.81357   0.00000  Uiso   1.00
C1385  C     0.35561   0.65887   0.85917   0.00000  Uiso   1.00
H1386  H     0.37823   0.35691   0.88694   0.00000  Uiso   1.00
H1387  H     0.33751   0.33901   0.82259   0.00000  Uiso   1.00
H1388  H     0.33152   0.64683   0.88838   0.00000  Uiso   1.00
O1389  O     0.11025   0.40080   0.80456   0.00000  Uiso   1.00
C1390  C     0.12779   0.39231   0.74705   0.00000  Uiso   1.00
H1391  H     0.16353   0.40323   0.75344   0.00000  Uiso   1.00
H1392  H     0.11196   0.41360   0.71513   0.00000  Uiso   1.00
C1393  C     0.12296   0.33555   0.71781   0.00000  Uiso   1.00
H1394  H     0.09074   0.65968   0.69110   0.00000  Uiso   1.00
H1395  H     0.14928   0.65949   0.68648   0.00000  Uiso   1.00
H1396  H     0.12611   0.64556   0.75242   0.00000  Uiso   1.00
O1397  O     0.37666   0.40775   0.78834   0.00000  Uiso   1.00
C1398  C     0.36842   0.39770   0.72444   0.00000  Uiso   1.00
H1399  H     0.38903   0.42221   0.70139   0.00000  Uiso   1.00
H1400  H     0.33324   0.40426   0.71491   0.00000  Uiso   1.00
C1401  C     0.37550   0.34161   0.69663   0.00000  Uiso   1.00
H1402  H     0.36551   0.65061   0.72744   0.00000  Uiso   1.00
H1403  H     0.35550   0.66185   0.98632   0.00000  Uiso   1.00
H1404  H     0.41050   0.33590   0.68813   0.00000  Uiso   1.00
O1405  O     0.11865   0.58315   0.83898   0.00000  Uiso   1.00
C1406  C     0.13529   0.61309   0.89586   0.00000  Uiso   1.00
H1407  H     0.17023   0.60526   0.90389   0.00000  Uiso   1.00
H1408  H     0.11762   0.60488   0.93473   0.00000  Uiso   1.00
C1409  C     0.13148   0.33572   0.89403   0.00000  Uiso   1.00
H1410  H     0.09967   0.34095   0.87036   0.00000  Uiso   1.00
H1411  H     0.13194   0.35966   0.94050   0.00000  Uiso   1.00
H1412  H     0.15870   0.34887   0.86950   0.00000  Uiso   1.00
O1413  O     0.03464   0.35330   0.77348   0.00000  Uiso   1.00
C1414  C     0.00430   0.64356   0.75036   0.00000  Uiso   1.00
H1415  H     0.48211   0.65005   0.71240   0.00000  Uiso   1.00
H1416  H     0.48471   0.63543   0.78725   0.00000  Uiso   1.00
C1417  C     0.02833   0.59553   0.72554   0.00000  Uiso   1.00
H1418  H     0.05785   0.59354   0.75587   0.00000  Uiso   1.00
H1419  H     0.00586   0.56086   0.72244   0.00000  Uiso   1.00
H1420  H     0.03842   0.59509   0.67914   0.00000  Uiso   1.00
O1421  O     0.46624   0.63406   0.91142   0.00000  Uiso   1.00
C1422  C     0.49621   0.34492   0.92772   0.00000  Uiso   1.00
H1423  H     0.01292   0.35133   0.88759   0.00000  Uiso   1.00
H1424  H     0.02111   0.34108   0.96426   0.00000  Uiso   1.00
C1425  C     0.47224   0.39306   0.95162   0.00000  Uiso   1.00
H1426  H     0.45880   0.39186   0.99561   0.00000  Uiso   1.00
H1427  H     0.49593   0.42726   0.95923   0.00000  Uiso   1.00
H1428  H     0.44535   0.39739   0.91825   0.00000  Uiso   1.00
N1429  N     0.24691   0.64895   0.74796   0.00000  Uiso   1.00
O1430  O     0.27912   0.65604   0.71492   0.00000  Uiso   1.00
O1431  O     0.21158   0.62138   0.72213   0.00000  Uiso   1.00
N1432  N     0.25140   0.35139   0.92023   0.00000  Uiso   1.00
O1433  O     0.22142   0.34395   0.95644   0.00000  Uiso   1.00
O1434  O     0.28794   0.37760   0.94390   0.00000  Uiso   1.00
N1435  N     0.19357   0.48204   0.99113   0.00000  Uiso   1.00
O1436  O     0.16949   0.52119   0.67243   0.00000  Uiso   1.00
O1437  O     0.17523   0.43823   0.96112   0.00000  Uiso   1.00
N1438  N     0.30651   0.51951   0.67541   0.00000  Uiso   1.00
O1439  O     0.32987   0.47957   0.99700   0.00000  Uiso   1.00
O1440  O     0.32708   0.56459   0.68633   0.00000  Uiso   1.00
O1441  O     0.75326   0.42871   0.87326   0.00000  Uiso   1.00
O1442  O     0.74675   0.57129   0.79341   0.00000  Uiso   1.00
O1443  O     0.74480   0.41892   0.76945   0.00000  Uiso   1.00
O1444  O     0.75520   0.58108   0.89721   0.00000  Uiso   1.00
C1445  C     0.74861   0.40032   0.81813   0.00000  Uiso   1.00
C1446  C     0.74983   0.59967   0.84879   0.00000  Uiso   1.00
O1447  O     0.68936   0.50488   0.88524   0.00000  Uiso   1.00
O1448  O     0.81065   0.49512   0.78143   0.00000  Uiso   1.00
O1449  O     0.68090   0.49510   0.78143   0.00000  Uiso   1.00
O1450  O     0.81910   0.50490   0.88523   0.00000  Uiso   1.00
C1451  C     0.66455   0.49612   0.83357   0.00000  Uiso   1.00
C1452  C     0.83540   0.49926   0.83231   0.00000  Uiso   1.00
Cu1453 Cu    0.75501   0.50579   0.89479   0.00000  Uiso   1.00
Cu1454 Cu    0.74500   0.49421   0.77187   0.00000  Uiso   1.00
C1455  C     0.91074   0.54366   0.85635   0.00000  Uiso   1.00
C1456  C     0.58987   0.44649   0.81661   0.00000  Uiso   1.00
C1457  C     0.88389   0.49862   0.83098   0.00000  Uiso   1.00
C1458  C     0.61590   0.49352   0.83394   0.00000  Uiso   1.00
C1459  C     0.90326   0.45238   0.80898   0.00000  Uiso   1.00
C1460  C     0.59542   0.53952   0.84600   0.00000  Uiso   1.00
C1461  C     0.94959   0.45056   0.81328   0.00000  Uiso   1.00
C1462  C     0.54973   0.53961   0.85253   0.00000  Uiso   1.00
C1463  C     0.97670   0.49580   0.83564   0.00000  Uiso   1.00
C1464  C     0.52310   0.49361   0.83513   0.00000  Uiso   1.00
C1465  C     0.95741   0.54311   0.85872   0.00000  Uiso   1.00
C1466  C     0.54281   0.44611   0.81507   0.00000  Uiso   1.00
C1467  C     0.96878   0.40364   0.79561   0.00000  Uiso   1.00
C1468  C     0.53070   0.58549   0.87656   0.00000  Uiso   1.00
C1469  C     0.51510   0.40001   0.79434   0.00000  Uiso   1.00
C1470  C     0.98507   0.58852   0.88287   0.00000  Uiso   1.00
H1471  H     0.94676   0.36970   0.78355   0.00000  Uiso   1.00
H1472  H     0.55215   0.61894   0.89245   0.00000  Uiso   1.00
C1473  C     0.74751   0.34482   0.80973   0.00000  Uiso   1.00
C1474  C     0.74838   0.65532   0.85793   0.00000  Uiso   1.00
N1475  N     0.73745   0.48547   0.67951   0.00000  Uiso   1.00
N1476  N     0.76256   0.51453   0.98716   0.00000  Uiso   1.00
O1477  O     0.89089   0.58802   0.88051   0.00000  Uiso   1.00
C1478  C     0.88032   0.61259   0.83314   0.00000  Uiso   1.00
H1479  H     0.85830   0.58717   0.79638   0.00000  Uiso   1.00
H1480  H     0.91052   0.62519   0.81357   0.00000  Uiso   1.00
C1481  C     0.85561   0.65887   0.85917   0.00000  Uiso   1.00
H1482  H     0.87823   0.35691   0.88694   0.00000  Uiso   1.00
H1483  H     0.83751   0.33901   0.82259   0.00000  Uiso   1.00
H1484  H     0.83152   0.64683   0.88838   0.00000  Uiso   1.00
O1485  O     0.61025   0.40080   0.80456   0.00000  Uiso   1.00
C1486  C     0.62779   0.39231   0.74705   0.00000  Uiso   1.00
H1487  H     0.66353   0.40323   0.75344   0.00000  Uiso   1.00
H1488  H     0.61196   0.41360   0.71513   0.00000  Uiso   1.00
C1489  C     0.62296   0.33555   0.71781   0.00000  Uiso   1.00
H1490  H     0.59074   0.65968   0.69110   0.00000  Uiso   1.00
H1491  H     0.64928   0.65949   0.68648   0.00000  Uiso   1.00
H1492  H     0.62611   0.64556   0.75242   0.00000  Uiso   1.00
O1493  O     0.87666   0.40775   0.78834   0.00000  Uiso   1.00
C1494  C     0.86842   0.39770   0.72444   0.00000  Uiso   1.00
H1495  H     0.88903   0.42221   0.70139   0.00000  Uiso   1.00
H1496  H     0.83324   0.40426   0.71491   0.00000  Uiso   1.00
C1497  C     0.87550   0.34161   0.69663   0.00000  Uiso   1.00
H1498  H     0.86551   0.65061   0.72744   0.00000  Uiso   1.00
H1499  H     0.85550   0.66185   0.98632   0.00000  Uiso   1.00
H1500  H     0.91050   0.33590   0.68813   0.00000  Uiso   1.00
O1501  O     0.61865   0.58315   0.83898   0.00000  Uiso   1.00
C1502  C     0.63529   0.61309   0.89586   0.00000  Uiso   1.00
H1503  H     0.67023   0.60526   0.90389   0.00000  Uiso   1.00
H1504  H     0.61762   0.60488   0.93473   0.00000  Uiso   1.00
C1505  C     0.63148   0.33572   0.89403   0.00000  Uiso   1.00
H1506  H     0.59967   0.34095   0.87036   0.00000  Uiso   1.00
H1507  H     0.63194   0.35966   0.94050   0.00000  Uiso   1.00
H1508  H     0.65870   0.34887   0.86950   0.00000  Uiso   1.00
O1509  O     0.53464   0.35330   0.77348   0.00000  Uiso   1.00
C1510  C     0.50430   0.64356   0.75036   0.00000  Uiso   1.00
H1511  H     0.98211   0.65005   0.71240   0.00000  Uiso   1.00
H1512  H     0.98471   0.63543   0.78725   0.00000  Uiso   1.00
C1513  C     0.52833   0.59553   0.72554   0.00000  Uiso   1.00
H1514  H     0.55785   0.59354   0.75587   0.00000  Uiso   1.00
H1515  H     0.50586   0.56086   0.72244   0.00000  Uiso   1.00
H1516  H     0.53842   0.59509   0.67914   0.00000  Uiso   1.00
O1517  O     0.96624   0.63406   0.91142   0.00000  Uiso   1.00
C1518  C     0.99621   0.34492   0.92772   0.00000  Uiso   1.00
H1519  H     0.51292   0.35133   0.88759   0.00000  Uiso   1.00
H1520  H     0.52111   0.34108   0.96426   0.00000  Uiso   1.00
C1521  C     0.97224   0.39306   0.95162   0.00000  Uiso   1.00
H1522  H     0.95880   0.39186   0.99561   0.00000  Uiso   1.00
H1523  H     0.99593   0.42726   0.95923   0.00000  Uiso   1.00
H1524  H     0.94535   0.39739   0.91825   0.00000  Uiso   1.00
N1525  N     0.74691   0.64895   0.74796   0.00000  Uiso   1.00
O1526  O     0.77912   0.65604   0.71492   0.00000  Uiso   1.00
O1527  O     0.71158   0.62138   0.72213   0.00000  Uiso   1.00
N1528  N     0.75140   0.35139   0.92023   0.00000  Uiso   1.00
O1529  O     0.72142   0.34395   0.95644   0.00000  Uiso   1.00
O1530  O     0.78794   0.37760   0.94390   0.00000  Uiso   1.00
N1531  N     0.69357   0.48204   0.99113   0.00000  Uiso   1.00
O1532  O     0.66949   0.52119   0.67243   0.00000  Uiso   1.00
O1533  O     0.67523   0.43823   0.96112   0.00000  Uiso   1.00
N1534  N     0.80651   0.51951   0.67541   0.00000  Uiso   1.00
O1535  O     0.82987   0.47957   0.99700   0.00000  Uiso   1.00
O1536  O     0.82708   0.56459   0.68633   0.00000  Uiso   1.00
O1537  O     0.25326   0.76204   0.87326   0.00000  Uiso   1.00
O1538  O     0.24675   0.90462   0.79341   0.00000  Uiso   1.00
O1539  O     0.24480   0.75226   0.76945   0.00000  Uiso   1.00
O1540  O     0.25520   0.91441   0.89721   0.00000  Uiso   1.00
C1541  C     0.24861   0.73366   0.81813   0.00000  Uiso   1.00
C1542  C     0.24983   0.93300   0.84879   0.00000  Uiso   1.00
O1543  O     0.18936   0.83821   0.88524   0.00000  Uiso   1.00
O1544  O     0.31065   0.82845   0.78143   0.00000  Uiso   1.00
O1545  O     0.18090   0.82843   0.78143   0.00000  Uiso   1.00
O1546  O     0.31910   0.83824   0.88523   0.00000  Uiso   1.00
C1547  C     0.16455   0.82945   0.83357   0.00000  Uiso   1.00
C1548  C     0.33540   0.83259   0.83231   0.00000  Uiso   1.00
Cu1549 Cu    0.25501   0.83913   0.89479   0.00000  Uiso   1.00
Cu1550 Cu    0.24500   0.82754   0.77187   0.00000  Uiso   1.00
C1551  C     0.41074   0.87699   0.85635   0.00000  Uiso   1.00
C1552  C     0.08987   0.77983   0.81661   0.00000  Uiso   1.00
C1553  C     0.38389   0.83195   0.83098   0.00000  Uiso   1.00
C1554  C     0.11590   0.82685   0.83394   0.00000  Uiso   1.00
C1555  C     0.40326   0.78572   0.80898   0.00000  Uiso   1.00
C1556  C     0.09542   0.87285   0.84600   0.00000  Uiso   1.00
C1557  C     0.44959   0.78389   0.81328   0.00000  Uiso   1.00
C1558  C     0.04973   0.87294   0.85253   0.00000  Uiso   1.00
C1559  C     0.47670   0.82913   0.83564   0.00000  Uiso   1.00
C1560  C     0.02310   0.82694   0.83513   0.00000  Uiso   1.00
C1561  C     0.45741   0.87644   0.85872   0.00000  Uiso   1.00
C1562  C     0.04281   0.77945   0.81507   0.00000  Uiso   1.00
C1563  C     0.46878   0.73697   0.79561   0.00000  Uiso   1.00
C1564  C     0.03070   0.91883   0.87656   0.00000  Uiso   1.00
C1565  C     0.01510   0.73334   0.79434   0.00000  Uiso   1.00
C1566  C     0.48507   0.92185   0.88287   0.00000  Uiso   1.00
H1567  H     0.44676   0.70304   0.78355   0.00000  Uiso   1.00
H1568  H     0.05215   0.95228   0.89245   0.00000  Uiso   1.00
C1569  C     0.24751   0.67815   0.80973   0.00000  Uiso   1.00
C1570  C     0.24838   0.98865   0.85793   0.00000  Uiso   1.00
N1571  N     0.23745   0.81881   0.67951   0.00000  Uiso   1.00
N1572  N     0.26256   0.84786   0.98716   0.00000  Uiso   1.00
O1573  O     0.39089   0.92135   0.88051   0.00000  Uiso   1.00
C1574  C     0.38032   0.94592   0.83314   0.00000  Uiso   1.00
H1575  H     0.35830   0.92050   0.79638   0.00000  Uiso   1.00
H1576  H     0.41052   0.95852   0.81357   0.00000  Uiso   1.00
C1577  C     0.35561   0.99220   0.85917   0.00000  Uiso   1.00
H1578  H     0.37823   0.69024   0.88694   0.00000  Uiso   1.00
H1579  H     0.33751   0.67234   0.82259   0.00000  Uiso   1.00
H1580  H     0.33152   0.98016   0.88838   0.00000  Uiso   1.00
O1581  O     0.11025   0.73413   0.80456   0.00000  Uiso   1.00
C1582  C     0.12779   0.72565   0.74705   0.00000  Uiso   1.00
H1583  H     0.16353   0.73656   0.75344   0.00000  Uiso   1.00
H1584  H     0.11196   0.74693   0.71513   0.00000  Uiso   1.00
C1585  C     0.12296   0.66888   0.71781   0.00000  Uiso   1.00
H1586  H     0.09074   0.99301   0.69110   0.00000  Uiso   1.00
H1587  H     0.14928   0.99283   0.68648   0.00000  Uiso   1.00
H1588  H     0.12611   0.97889   0.75242   0.00000  Uiso   1.00
O1589  O     0.37666   0.74109   0.78834   0.00000  Uiso   1.00
C1590  C     0.36842   0.73103   0.72444   0.00000  Uiso   1.00
H1591  H     0.38903   0.75554   0.70139   0.00000  Uiso   1.00
H1592  H     0.33324   0.73759   0.71491   0.00000  Uiso   1.00
C1593  C     0.37550   0.67495   0.69663   0.00000  Uiso   1.00
H1594  H     0.36551   0.98394   0.72744   0.00000  Uiso   1.00
H1595  H     0.35550   0.99518   0.98632   0.00000  Uiso   1.00
H1596  H     0.41050   0.66924   0.68813   0.00000  Uiso   1.00
O1597  O     0.11865   0.91648   0.83898   0.00000  Uiso   1.00
C1598  C     0.13529   0.94642   0.89586   0.00000  Uiso   1.00
H1599  H     0.17023   0.93859   0.90389   0.00000  Uiso   1.00
H1600  H     0.11762   0.93822   0.93473   0.00000  Uiso   1.00
C1601  C     0.13148   0.66905   0.89403   0.00000  Uiso   1.00
H1602  H     0.09967   0.67429   0.87036   0.00000  Uiso   1.00
H1603  H     0.13194   0.69299   0.94050   0.00000  Uiso   1.00
H1604  H     0.15870   0.68220   0.86950   0.00000  Uiso   1.00
O1605  O     0.03464   0.68664   0.77348   0.00000  Uiso   1.00
C1606  C     0.00430   0.97690   0.75036   0.00000  Uiso   1.00
H1607  H     0.48211   0.98338   0.71240   0.00000  Uiso   1.00
H1608  H     0.48471   0.96876   0.78725   0.00000  Uiso   1.00
C1609  C     0.02833   0.92886   0.72554   0.00000  Uiso   1.00
H1610  H     0.05785   0.92687   0.75587   0.00000  Uiso   1.00
H1611  H     0.00586   0.89419   0.72244   0.00000  Uiso   1.00
H1612  H     0.03842   0.92843   0.67914   0.00000  Uiso   1.00
O1613  O     0.46624   0.96740   0.91142   0.00000  Uiso   1.00
C1614  C     0.49621   0.67825   0.92772   0.00000  Uiso   1.00
H1615  H     0.01292   0.68466   0.88759   0.00000  Uiso   1.00
H1616  H     0.02111   0.67441   0.96426   0.00000  Uiso   1.00
C1617  C     0.47224   0.72639   0.95162   0.00000  Uiso   1.00
H1618  H     0.45880   0.72520   0.99561   0.00000  Uiso   1.00
H1619  H     0.49593   0.76059   0.95923   0.00000  Uiso   1.00
H1620  H     0.44535   0.73072   0.91825   0.00000  Uiso   1.00
N1621  N     0.24691   0.98229   0.74796   0.00000  Uiso   1.00
O1622  O     0.27912   0.98937   0.71492   0.00000  Uiso   1.00
O1623  O     0.21158   0.95471   0.72213   0.00000  Uiso   1.00
N1624  N     0.25140   0.68472   0.92023   0.00000  Uiso   1.00
O1625  O     0.22142   0.67728   0.95644   0.00000  Uiso   1.00
O1626  O     0.28794   0.71094   0.94390   0.00000  Uiso   1.00
N1627  N     0.19357   0.81537   0.99113   0.00000  Uiso   1.00
O1628  O     0.16949   0.85452   0.67243   0.00000  Uiso   1.00
O1629  O     0.17523   0.77156   0.96112   0.00000  Uiso   1.00
N1630  N     0.30651   0.85284   0.67541   0.00000  Uiso   1.00
O1631  O     0.32987   0.81291   0.99700   0.00000  Uiso   1.00
O1632  O     0.32708   0.89792   0.68633   0.00000  Uiso   1.00
O1633  O     0.75326   0.76204   0.87326   0.00000  Uiso   1.00
O1634  O     0.74675   0.90462   0.79341   0.00000  Uiso   1.00
O1635  O     0.74480   0.75226   0.76945   0.00000  Uiso   1.00
O1636  O     0.75520   0.91441   0.89721   0.00000  Uiso   1.00
C1637  C     0.74861   0.73366   0.81813   0.00000  Uiso   1.00
C1638  C     0.74983   0.93300   0.84879   0.00000  Uiso   1.00
O1639  O     0.68936   0.83821   0.88524   0.00000  Uiso   1.00
O1640  O     0.81065   0.82845   0.78143   0.00000  Uiso   1.00
O1641  O     0.68090   0.82843   0.78143   0.00000  Uiso   1.00
O1642  O     0.81910   0.83824   0.88523   0.00000  Uiso   1.00
C1643  C     0.66455   0.82945   0.83357   0.00000  Uiso   1.00
C1644  C     0.83540   0.83259   0.83231   0.00000  Uiso   1.00
Cu1645 Cu    0.75501   0.83913   0.89479   0.00000  Uiso   1.00
Cu1646 Cu    0.74500   0.82754   0.77187   0.00000  Uiso   1.00
C1647  C     0.91074   0.87699   0.85635   0.00000  Uiso   1.00
C1648  C     0.58987   0.77983   0.81661   0.00000  Uiso   1.00
C1649  C     0.88389   0.83195   0.83098   0.00000  Uiso   1.00
C1650  C     0.61590   0.82685   0.83394   0.00000  Uiso   1.00
C1651  C     0.90326   0.78572   0.80898   0.00000  Uiso   1.00
C1652  C     0.59542   0.87285   0.84600   0.00000  Uiso   1.00
C1653  C     0.94959   0.78389   0.81328   0.00000  Uiso   1.00
C1654  C     0.54973   0.87294   0.85253   0.00000  Uiso   1.00
C1655  C     0.97670   0.82913   0.83564   0.00000  Uiso   1.00
C1656  C     0.52310   0.82694   0.83513   0.00000  Uiso   1.00
C1657  C     0.95741   0.87644   0.85872   0.00000  Uiso   1.00
C1658  C     0.54281   0.77945   0.81507   0.00000  Uiso   1.00
C1659  C     0.96878   0.73697   0.79561   0.00000  Uiso   1.00
C1660  C     0.53070   0.91883   0.87656   0.00000  Uiso   1.00
C1661  C     0.51510   0.73334   0.79434   0.00000  Uiso   1.00
C1662  C     0.98507   0.92185   0.88287   0.00000  Uiso   1.00
H1663  H     0.94676   0.70304   0.78355   0.00000  Uiso   1.00
H1664  H     0.55215   0.95228   0.89245   0.00000  Uiso   1.00
C1665  C     0.74751   0.67815   0.80973   0.00000  Uiso   1.00
C1666  C     0.74838   0.98865   0.85793   0.00000  Uiso   1.00
N1667  N     0.73745   0.81881   0.67951   0.00000  Uiso   1.00
N1668  N     0.76256   0.84786   0.98716   0.00000  Uiso   1.00
O1669  O     0.89089   0.92135   0.88051   0.00000  Uiso   1.00
C1670  C     0.88032   0.94592   0.83314   0.00000  Uiso   1.00
H1671  H     0.85830   0.92050   0.79638   0.00000  Uiso   1.00
H1672  H     0.91052   0.95852   0.81357   0.00000  Uiso   1.00
C1673  C     0.85561   0.99220   0.85917   0.00000  Uiso   1.00
H1674  H     0.87823   0.69024   0.88694   0.00000  Uiso   1.00
H1675  H     0.83751   0.67234   0.82259   0.00000  Uiso   1.00
H1676  H     0.83152   0.98016   0.88838   0.00000  Uiso   1.00
O1677  O     0.61025   0.73413   0.80456   0.00000  Uiso   1.00
C1678  C     0.62779   0.72565   0.74705   0.00000  Uiso   1.00
H1679  H     0.66353   0.73656   0.75344   0.00000  Uiso   1.00
H1680  H     0.61196   0.74693   0.71513   0.00000  Uiso   1.00
C1681  C     0.62296   0.66888   0.71781   0.00000  Uiso   1.00
H1682  H     0.59074   0.99301   0.69110   0.00000  Uiso   1.00
H1683  H     0.64928   0.99283   0.68648   0.00000  Uiso   1.00
H1684  H     0.62611   0.97889   0.75242   0.00000  Uiso   1.00
O1685  O     0.87666   0.74109   0.78834   0.00000  Uiso   1.00
C1686  C     0.86842   0.73103   0.72444   0.00000  Uiso   1.00
H1687  H     0.88903   0.75554   0.70139   0.00000  Uiso   1.00
H1688  H     0.83324   0.73759   0.71491   0.00000  Uiso   1.00
C1689  C     0.87550   0.67495   0.69663   0.00000  Uiso   1.00
H1690  H     0.86551   0.98394   0.72744   0.00000  Uiso   1.00
H1691  H     0.85550   0.99518   0.98632   0.00000  Uiso   1.00
H1692  H     0.91050   0.66924   0.68813   0.00000  Uiso   1.00
O1693  O     0.61865   0.91648   0.83898   0.00000  Uiso   1.00
C1694  C     0.63529   0.94642   0.89586   0.00000  Uiso   1.00
H1695  H     0.67023   0.93859   0.90389   0.00000  Uiso   1.00
H1696  H     0.61762   0.93822   0.93473   0.00000  Uiso   1.00
C1697  C     0.63148   0.66905   0.89403   0.00000  Uiso   1.00
H1698  H     0.59967   0.67429   0.87036   0.00000  Uiso   1.00
H1699  H     0.63194   0.69299   0.94050   0.00000  Uiso   1.00
H1700  H     0.65870   0.68220   0.86950   0.00000  Uiso   1.00
O1701  O     0.53464   0.68664   0.77348   0.00000  Uiso   1.00
C1702  C     0.50430   0.97690   0.75036   0.00000  Uiso   1.00
H1703  H     0.98211   0.98338   0.71240   0.00000  Uiso   1.00
H1704  H     0.98471   0.96876   0.78725   0.00000  Uiso   1.00
C1705  C     0.52833   0.92886   0.72554   0.00000  Uiso   1.00
H1706  H     0.55785   0.92687   0.75587   0.00000  Uiso   1.00
H1707  H     0.50586   0.89419   0.72244   0.00000  Uiso   1.00
H1708  H     0.53842   0.92843   0.67914   0.00000  Uiso   1.00
O1709  O     0.96624   0.96740   0.91142   0.00000  Uiso   1.00
C1710  C     0.99621   0.67825   0.92772   0.00000  Uiso   1.00
H1711  H     0.51292   0.68466   0.88759   0.00000  Uiso   1.00
H1712  H     0.52111   0.67441   0.96426   0.00000  Uiso   1.00
C1713  C     0.97224   0.72639   0.95162   0.00000  Uiso   1.00
H1714  H     0.95880   0.72520   0.99561   0.00000  Uiso   1.00
H1715  H     0.99593   0.76059   0.95923   0.00000  Uiso   1.00
H1716  H     0.94535   0.73072   0.91825   0.00000  Uiso   1.00
N1717  N     0.74691   0.98229   0.74796   0.00000  Uiso   1.00
O1718  O     0.77912   0.98937   0.71492   0.00000  Uiso   1.00
O1719  O     0.71158   0.95471   0.72213   0.00000  Uiso   1.00
N1720  N     0.75140   0.68472   0.92023   0.00000  Uiso   1.00
O1721  O     0.72142   0.67728   0.95644   0.00000  Uiso   1.00
O1722  O     0.78794   0.71094   0.94390   0.00000  Uiso   1.00
N1723  N     0.69357   0.81537   0.99113   0.00000  Uiso   1.00
O1724  O     0.66949   0.85452   0.67243   0.00000  Uiso   1.00
O1725  O     0.67523   0.77156   0.96112   0.00000  Uiso   1.00
N1726  N     0.80651   0.85284   0.67541   0.00000  Uiso   1.00
O1727  O     0.82987   0.81291   0.99700   0.00000  Uiso   1.00
O1728  O     0.82708   0.89792   0.68633   0.00000  Uiso   1.00
loop_
_geom_bond_atom_site_label_1
_geom_bond_atom_site_label_2
_geom_bond_distance
_geom_bond_site_symmetry_2
_ccdc_geom_bond_type
O1     C5      1.301   .     A
O1     Cu13    2.009   .     S
O2     C6      1.305   .     A
O2     Cu14    2.009   .     S
O3     Cu14    2.006   .     S
O3     C5      1.309   .     A
O4     Cu13    2.006   .     S
O4     C6      1.307   .     A
C5     C33     1.455   .     S
C6     C34     1.462   .     S
O7     C11     1.319   .     A
O7     Cu13    1.990   .     S
O8     C12     1.316   .     A
O8     Cu14    1.990   .     S
O9     Cu14    1.971   .     S
O9     C11     1.302   .     A
O10    C12     1.303   .     A
O10    Cu13    1.971   .     S
C11    C18     1.475   .     S
C12    C17     1.475   .     S
Cu13   Cu14    2.724   .     S
Cu13   N36     2.047   .     S
Cu14   N35     2.047   .     S
C15    C25     1.415   .     A
C15    O37     1.376   .     S
C15    C17     1.408   .     A
C16    C26     1.426   .     A
C16    O45     1.379   .     S
C16    C18     1.416   .     A
C17    C19     1.399   .     A
C18    C20     1.388   .     A
C19    C21     1.408   .     A
C19    O53     1.380   .     S
C20    O61     1.380   .     S
C20    C22     1.403   .     A
C21    C27     1.398   .     A
C21    C23     1.405   .     A
C22    C28     1.395   .     A
C22    C24     1.403   .     A
C23    C25     1.426   .     A
C23    C120    1.413   .     S
C24    C26     1.425   .     A
C24    C119    1.413   1_455 S
C25    C30     1.423   .     A
C26    C29     1.428   .     A
C27    H31     1.074   .     S
C27    C125    1.416   .     S
C28    H32     1.060   .     S
C28    C126    1.405   1_455 S
C29    O69     1.408   .     S
C29    C123    1.416   1_455 S
C30    O77     1.411   .     S
C30    C124    1.405   .     S
C33    C418    1.366   1_545 S
C33    N469    1.437   1_545 S
C34    C225    1.366   .     S
C34    N280    1.446   .     S
N35    N1188   1.313   1_554 S
N35    N1243   1.383   1_554 S
N36    N611    1.313   .     S
N36    N670    1.382   .     S
O37    C38     1.409   .     S
C38    H39     1.110   .     S
C38    C41     1.504   .     S
C38    H40     1.111   .     S
C41    H44     1.098   .     S
C41    H234    1.106   .     S
C41    H235    1.103   .     S
H42    C425    1.106   1_545 S
H43    C425    1.103   1_545 S
O45    C46     1.410   .     S
C46    C49     1.511   .     S
C46    H47     1.102   .     S
C46    H48     1.118   .     S
C49    H434    1.104   1_545 S
C49    H435    1.101   1_545 S
C49    H436    1.110   1_545 S
H50    C241    1.104   .     S
H51    C241    1.101   .     S
H52    C241    1.110   .     S
O53    C54     1.413   .     S
C54    H56     1.107   .     S
C54    H55     1.117   .     S
C54    C57     1.523   .     S
C57    H60     1.103   .     S
C57    H442    1.102   1_545 S
C57    H1595   1.103   1_544 S
H58    C249    1.102   .     S
H59    C825    1.103   .     S
O61    C62     1.403   .     S
C62    H64     1.114   .     S
C62    H63     1.104   .     S
C62    C257    1.520   .     S
C65    H67     1.099   .     S
C65    H68     1.109   .     S
C65    H66     1.106   .     S
C65    C446    1.520   1_545 S
O69    C454    1.420   1_545 S
C70    C73     1.523   .     S
C70    O261    1.420   .     S
C70    H167    1.109   1_455 S
C70    H168    1.108   1_455 S
H71    C166    1.109   .     S
H72    C166    1.108   .     S
C73    H75     1.111   .     S
C73    H74     1.106   .     S
C73    H76     1.109   .     S
O77    C270    1.421   .     S
C78    C81     1.520   .     S
C78    O461    1.421   1_545 S
C78    H175    1.108   .     S
C78    H176    1.112   .     S
H79    C174    1.108   1_455 S
H80    C174    1.112   1_455 S
C81    H82     1.105   .     S
C81    H83     1.111   .     S
C81    H84     1.106   .     S
N85    O86     1.298   .     A
N85    O87     1.299   .     A
N85    C225    1.437   .     S
N88    O89     1.298   .     A
N88    O90     1.300   .     A
N88    C418    1.446   1_545 S
N91    O93     1.295   .     A
N91    N611    1.383   .     S
N91    O668    1.301   .     S
O92    N1243   1.301   1_554 S
N94    O96     1.296   .     A
N94    N1188   1.382   1_554 S
N94    O1247   1.299   1_554 S
O95    N670    1.299   .     S
O97    C101    1.301   .     A
O97    Cu109   2.009   .     S
O98    C102    1.305   .     A
O98    Cu110   2.009   .     S
O99    Cu110   2.006   .     S
O99    C101    1.309   .     A
O100   Cu109   2.006   .     S
O100   C102    1.307   .     A
C101   C129    1.455   .     S
C102   C130    1.462   .     S
O103   C107    1.319   .     A
O103   Cu109   1.990   .     S
O104   C108    1.316   .     A
O104   Cu110   1.990   .     S
O105   Cu110   1.971   .     S
O105   C107    1.302   .     A
O106   C108    1.303   .     A
O106   Cu109   1.971   .     S
C107   C114    1.475   .     S
C108   C113    1.475   .     S
Cu109  Cu110   2.724   .     S
Cu109  N132    2.047   .     S
Cu110  N131    2.047   .     S
C111   C121    1.415   .     A
C111   O133    1.376   .     S
C111   C113    1.408   .     A
C112   C122    1.426   .     A
C112   O141    1.379   .     S
C112   C114    1.416   .     A
C113   C115    1.399   .     A
C114   C116    1.388   .     A
C115   C117    1.408   .     A
C115   O149    1.380   .     S
C116   O157    1.380   .     S
C116   C118    1.403   .     A
C117   C123    1.398   .     A
C117   C119    1.405   .     A
C118   C124    1.395   .     A
C118   C120    1.403   .     A
C119   C121    1.426   .     A
C119   C24     1.413   1_655 S
C120   C122    1.425   .     A
C121   C126    1.423   .     A
C122   C125    1.428   .     A
C123   H127    1.074   .     S
C123   C29     1.416   1_655 S
C124   H128    1.060   .     S
C125   O165    1.408   .     S
C126   O173    1.411   .     S
C126   C28     1.405   1_655 S
C129   C514    1.366   1_545 S
C129   N565    1.437   1_545 S
C130   C321    1.366   .     S
C130   N376    1.446   .     S
N131   N1284   1.313   1_554 S
N131   N1339   1.383   1_554 S
N132   N707    1.313   .     S
N132   N766    1.382   .     S
O133   C134    1.409   .     S
C134   H135    1.110   .     S
C134   C137    1.504   .     S
C134   H136    1.111   .     S
C137   H140    1.098   .     S
C137   H330    1.106   .     S
C137   H331    1.103   .     S
H138   C521    1.106   1_545 S
H139   C521    1.103   1_545 S
O141   C142    1.410   .     S
C142   C145    1.511   .     S
C142   H143    1.102   .     S
C142   H144    1.118   .     S
C145   H530    1.104   1_545 S
C145   H531    1.101   1_545 S
C145   H532    1.110   1_545 S
H146   C337    1.104   .     S
H147   C337    1.101   .     S
H148   C337    1.110   .     S
O149   C150    1.413   .     S
C150   H152    1.107   .     S
C150   H151    1.117   .     S
C150   C153    1.523   .     S
C153   H156    1.103   .     S
C153   H538    1.102   1_545 S
C153   H1691   1.103   1_544 S
H154   C345    1.102   .     S
H155   C921    1.103   .     S
O157   C158    1.403   .     S
C158   H160    1.114   .     S
C158   H159    1.104   .     S
C158   C353    1.520   .     S
C161   H163    1.099   .     S
C161   H164    1.109   .     S
C161   H162    1.106   .     S
C161   C542    1.520   1_545 S
O165   C550    1.420   1_545 S
C166   C169    1.523   .     S
C166   O357    1.420   .     S
H167   C70     1.109   1_655 S
H168   C70     1.108   1_655 S
C169   H171    1.111   .     S
C169   H170    1.106   .     S
C169   H172    1.109   .     S
O173   C366    1.421   .     S
C174   C177    1.520   .     S
C174   O557    1.421   1_545 S
C174   H79     1.108   1_655 S
C174   H80     1.112   1_655 S
C177   H178    1.105   .     S
C177   H179    1.111   .     S
C177   H180    1.106   .     S
N181   O182    1.298   .     A
N181   O183    1.299   .     A
N181   C321    1.437   .     S
N184   O185    1.298   .     A
N184   O186    1.300   .     A
N184   C514    1.446   1_545 S
N187   O189    1.295   .     A
N187   N707    1.383   .     S
N187   O764    1.301   .     S
O188   N1339   1.301   1_554 S
N190   O192    1.296   .     A
N190   N1284   1.382   1_554 S
N190   O1343   1.299   1_554 S
O191   N766    1.299   .     S
O193   C197    1.301   .     A
O193   Cu205   2.009   .     S
O194   C198    1.305   .     A
O194   Cu206   2.009   .     S
O195   Cu206   2.006   .     S
O195   C197    1.309   .     A
O196   Cu205   2.006   .     S
O196   C198    1.307   .     A
C197   C225    1.455   .     S
C198   C226    1.462   .     S
O199   C203    1.319   .     A
O199   Cu205   1.990   .     S
O200   C204    1.316   .     A
O200   Cu206   1.990   .     S
O201   Cu206   1.971   .     S
O201   C203    1.302   .     A
O202   C204    1.303   .     A
O202   Cu205   1.971   .     S
C203   C210    1.475   .     S
C204   C209    1.475   .     S
Cu205  Cu206   2.724   .     S
Cu205  N228    2.047   .     S
Cu206  N227    2.047   .     S
C207   C217    1.415   .     A
C207   O229    1.376   .     S
C207   C209    1.408   .     A
C208   C218    1.426   .     A
C208   O237    1.379   .     S
C208   C210    1.416   .     A
C209   C211    1.399   .     A
C210   C212    1.388   .     A
C211   C213    1.408   .     A
C211   O245    1.380   .     S
C212   O253    1.380   .     S
C212   C214    1.403   .     A
C213   C219    1.398   .     A
C213   C215    1.405   .     A
C214   C220    1.395   .     A
C214   C216    1.403   .     A
C215   C217    1.426   .     A
C215   C312    1.413   .     S
C216   C218    1.425   .     A
C216   C311    1.413   1_455 S
C217   C222    1.423   .     A
C218   C221    1.428   .     A
C219   H223    1.074   .     S
C219   C317    1.416   .     S
C220   H224    1.060   .     S
C220   C318    1.405   1_455 S
C221   O261    1.408   .     S
C221   C315    1.416   1_455 S
C222   O269    1.411   .     S
C222   C316    1.405   .     S
C226   C417    1.366   .     S
C226   N472    1.446   .     S
N227   N1380   1.313   1_554 S
N227   N1435   1.383   1_554 S
N228   N803    1.313   .     S
N228   N862    1.382   .     S
O229   C230    1.409   .     S
C230   H231    1.110   .     S
C230   C233    1.504   .     S
C230   H232    1.111   .     S
C233   H236    1.098   .     S
C233   H426    1.106   .     S
C233   H427    1.103   .     S
O237   C238    1.410   .     S
C238   C241    1.511   .     S
C238   H239    1.102   .     S
C238   H240    1.118   .     S
H242   C433    1.104   .     S
H243   C433    1.101   .     S
H244   C433    1.110   .     S
O245   C246    1.413   .     S
C246   H248    1.107   .     S
C246   H247    1.117   .     S
C246   C249    1.523   .     S
C249   H252    1.103   .     S
C249   H1211   1.103   1_554 S
H250   C441    1.102   .     S
H251   C1017   1.103   .     S
O253   C254    1.403   .     S
C254   H256    1.114   .     S
C254   H255    1.104   .     S
C254   C449    1.520   .     S
C257   H259    1.099   .     S
C257   H260    1.109   .     S
C257   H258    1.106   .     S
C262   C265    1.523   .     S
C262   O453    1.420   .     S
C262   H359    1.109   1_455 S
C262   H360    1.108   1_455 S
H263   C358    1.109   .     S
H264   C358    1.108   .     S
C265   H267    1.111   .     S
C265   H266    1.106   .     S
C265   H268    1.109   .     S
O269   C462    1.421   .     S
C270   C273    1.520   .     S
C270   H367    1.108   .     S
C270   H368    1.112   .     S
H271   C366    1.108   1_455 S
H272   C366    1.112   1_455 S
C273   H274    1.105   .     S
C273   H275    1.111   .     S
C273   H276    1.106   .     S
N277   O278    1.298   .     A
N277   O279    1.299   .     A
N277   C417    1.437   .     S
N280   O281    1.298   .     A
N280   O282    1.300   .     A
N283   O285    1.295   .     A
N283   N803    1.383   .     S
N283   O860    1.301   .     S
O284   N1435   1.301   1_554 S
N286   O288    1.296   .     A
N286   N1380   1.382   1_554 S
N286   O1439   1.299   1_554 S
O287   N862    1.299   .     S
O289   C293    1.301   .     A
O289   Cu301   2.009   .     S
O290   C294    1.305   .     A
O290   Cu302   2.009   .     S
O291   Cu302   2.006   .     S
O291   C293    1.309   .     A
O292   Cu301   2.006   .     S
O292   C294    1.307   .     A
C293   C321    1.455   .     S
C294   C322    1.462   .     S
O295   C299    1.319   .     A
O295   Cu301   1.990   .     S
O296   C300    1.316   .     A
O296   Cu302   1.990   .     S
O297   Cu302   1.971   .     S
O297   C299    1.302   .     A
O298   C300    1.303   .     A
O298   Cu301   1.971   .     S
C299   C306    1.475   .     S
C300   C305    1.475   .     S
Cu301  Cu302   2.724   .     S
Cu301  N324    2.047   .     S
Cu302  N323    2.047   .     S
C303   C313    1.415   .     A
C303   O325    1.376   .     S
C303   C305    1.408   .     A
C304   C314    1.426   .     A
C304   O333    1.379   .     S
C304   C306    1.416   .     A
C305   C307    1.399   .     A
C306   C308    1.388   .     A
C307   C309    1.408   .     A
C307   O341    1.380   .     S
C308   O349    1.380   .     S
C308   C310    1.403   .     A
C309   C315    1.398   .     A
C309   C311    1.405   .     A
C310   C316    1.395   .     A
C310   C312    1.403   .     A
C311   C313    1.426   .     A
C311   C216    1.413   1_655 S
C312   C314    1.425   .     A
C313   C318    1.423   .     A
C314   C317    1.428   .     A
C315   H319    1.074   .     S
C315   C221    1.416   1_655 S
C316   H320    1.060   .     S
C317   O357    1.408   .     S
C318   O365    1.411   .     S
C318   C220    1.405   1_655 S
C322   C513    1.366   .     S
C322   N568    1.446   .     S
N323   N1476   1.313   1_554 S
N323   N1531   1.383   1_554 S
N324   N899    1.313   .     S
N324   N958    1.382   .     S
O325   C326    1.409   .     S
C326   H327    1.110   .     S
C326   C329    1.504   .     S
C326   H328    1.111   .     S
C329   H332    1.098   .     S
C329   H522    1.106   .     S
C329   H523    1.103   .     S
O333   C334    1.410   .     S
C334   C337    1.511   .     S
C334   H335    1.102   .     S
C334   H336    1.118   .     S
H338   C529    1.104   .     S
H339   C529    1.101   .     S
H340   C529    1.110   .     S
O341   C342    1.413   .     S
C342   H344    1.107   .     S
C342   H343    1.117   .     S
C342   C345    1.523   .     S
C345   H348    1.103   .     S
C345   H1307   1.103   1_554 S
H346   C537    1.102   .     S
H347   C1113   1.103   .     S
O349   C350    1.403   .     S
C350   H352    1.114   .     S
C350   H351    1.104   .     S
C350   C545    1.520   .     S
C353   H355    1.099   .     S
C353   H356    1.109   .     S
C353   H354    1.106   .     S
C358   C361    1.523   .     S
C358   O549    1.420   .     S
H359   C262    1.109   1_655 S
H360   C262    1.108   1_655 S
C361   H363    1.111   .     S
C361   H362    1.106   .     S
C361   H364    1.109   .     S
O365   C558    1.421   .     S
C366   C369    1.520   .     S
C366   H271    1.108   1_655 S
C366   H272    1.112   1_655 S
C369   H370    1.105   .     S
C369   H371    1.111   .     S
C369   H372    1.106   .     S
N373   O374    1.298   .     A
N373   O375    1.299   .     A
N373   C513    1.437   .     S
N376   O377    1.298   .     A
N376   O378    1.300   .     A
N379   O381    1.295   .     A
N379   N899    1.383   .     S
N379   O956    1.301   .     S
O380   N1531   1.301   1_554 S
N382   O384    1.296   .     A
N382   N1476   1.382   1_554 S
N382   O1535   1.299   1_554 S
O383   N958    1.299   .     S
O385   C389    1.301   .     A
O385   Cu397   2.009   .     S
O386   C390    1.305   .     A
O386   Cu398   2.009   .     S
O387   Cu398   2.006   .     S
O387   C389    1.309   .     A
O388   Cu397   2.006   .     S
O388   C390    1.307   .     A
C389   C417    1.455   .     S
C390   C418    1.462   .     S
O391   C395    1.319   .     A
O391   Cu397   1.990   .     S
O392   C396    1.316   .     A
O392   Cu398   1.990   .     S
O393   Cu398   1.971   .     S
O393   C395    1.302   .     A
O394   C396    1.303   .     A
O394   Cu397   1.971   .     S
C395   C402    1.475   .     S
C396   C401    1.475   .     S
Cu397  Cu398   2.724   .     S
Cu397  N420    2.047   .     S
Cu398  N419    2.047   .     S
C399   C409    1.415   .     A
C399   O421    1.376   .     S
C399   C401    1.408   .     A
C400   C410    1.426   .     A
C400   O429    1.379   .     S
C400   C402    1.416   .     A
C401   C403    1.399   .     A
C402   C404    1.388   .     A
C403   C405    1.408   .     A
C403   O437    1.380   .     S
C404   O445    1.380   .     S
C404   C406    1.403   .     A
C405   C411    1.398   .     A
C405   C407    1.405   .     A
C406   C412    1.395   .     A
C406   C408    1.403   .     A
C407   C409    1.426   .     A
C407   C504    1.413   .     S
C408   C410    1.425   .     A
C408   C503    1.413   1_455 S
C409   C414    1.423   .     A
C410   C413    1.428   .     A
C411   H415    1.074   .     S
C411   C509    1.416   .     S
C412   H416    1.060   .     S
C412   C510    1.405   1_455 S
C413   O453    1.408   .     S
C413   C507    1.416   1_455 S
C414   O461    1.411   .     S
C414   C508    1.405   .     S
C418   C33     1.366   1_565 S
C418   N88     1.446   1_565 S
N419   N1572   1.313   1_554 S
N419   N1627   1.383   1_554 S
N420   N995    1.313   .     S
N420   N1054   1.382   .     S
O421   C422    1.409   .     S
C422   H423    1.110   .     S
C422   C425    1.504   .     S
C422   H424    1.111   .     S
C425   H428    1.098   .     S
C425   H42     1.106   1_565 S
C425   H43     1.103   1_565 S
O429   C430    1.410   .     S
C430   C433    1.511   .     S
C430   H431    1.102   .     S
C430   H432    1.118   .     S
H434   C49     1.104   1_565 S
H435   C49     1.101   1_565 S
H436   C49     1.110   1_565 S
O437   C438    1.413   .     S
C438   H440    1.107   .     S
C438   H439    1.117   .     S
C438   C441    1.523   .     S
C441   H444    1.103   .     S
C441   H1403   1.103   1_554 S
H442   C57     1.102   1_565 S
H443   C633    1.103   1_565 S
O445   C446    1.403   .     S
C446   H448    1.114   .     S
C446   H447    1.104   .     S
C446   C65     1.520   1_565 S
C449   H451    1.099   .     S
C449   H452    1.109   .     S
C449   H450    1.106   .     S
C454   C457    1.523   .     S
C454   O69     1.420   1_565 S
C454   H551    1.109   1_455 S
C454   H552    1.108   1_455 S
H455   C550    1.109   .     S
H456   C550    1.108   .     S
C457   H459    1.111   .     S
C457   H458    1.106   .     S
C457   H460    1.109   .     S
O461   C78     1.421   1_565 S
C462   C465    1.520   .     S
C462   H559    1.108   .     S
C462   H560    1.112   .     S
H463   C558    1.108   1_455 S
H464   C558    1.112   1_455 S
C465   H466    1.105   .     S
C465   H467    1.111   .     S
C465   H468    1.106   .     S
N469   O470    1.298   .     A
N469   O471    1.299   .     A
N469   C33     1.437   1_565 S
N472   O473    1.298   .     A
N472   O474    1.300   .     A
N475   O477    1.295   .     A
N475   N995    1.383   .     S
N475   O1052   1.301   .     S
O476   N1627   1.301   1_554 S
N478   O480    1.296   .     A
N478   N1572   1.382   1_554 S
N478   O1631   1.299   1_554 S
O479   N1054   1.299   .     S
O481   C485    1.301   .     A
O481   Cu493   2.009   .     S
O482   C486    1.305   .     A
O482   Cu494   2.009   .     S
O483   Cu494   2.006   .     S
O483   C485    1.309   .     A
O484   Cu493   2.006   .     S
O484   C486    1.307   .     A
C485   C513    1.455   .     S
C486   C514    1.462   .     S
O487   C491    1.319   .     A
O487   Cu493   1.990   .     S
O488   C492    1.316   .     A
O488   Cu494   1.990   .     S
O489   Cu494   1.971   .     S
O489   C491    1.302   .     A
O490   C492    1.303   .     A
O490   Cu493   1.971   .     S
C491   C498    1.475   .     S
C492   C497    1.475   .     S
Cu493  Cu494   2.724   .     S
Cu493  N516    2.047   .     S
Cu494  N515    2.047   .     S
C495   C505    1.415   .     A
C495   O517    1.376   .     S
C495   C497    1.408   .     A
C496   C506    1.426   .     A
C496   O525    1.379   .     S
C496   C498    1.416   .     A
C497   C499    1.399   .     A
C498   C500    1.388   .     A
C499   C501    1.408   .     A
C499   O533    1.380   .     S
C500   O541    1.380   .     S
C500   C502    1.403   .     A
C501   C507    1.398   .     A
C501   C503    1.405   .     A
C502   C508    1.395   .     A
C502   C504    1.403   .     A
C503   C505    1.426   .     A
C503   C408    1.413   1_655 S
C504   C506    1.425   .     A
C505   C510    1.423   .     A
C506   C509    1.428   .     A
C507   H511    1.074   .     S
C507   C413    1.416   1_655 S
C508   H512    1.060   .     S
C509   O549    1.408   .     S
C510   O557    1.411   .     S
C510   C412    1.405   1_655 S
C514   C129    1.366   1_565 S
C514   N184    1.446   1_565 S
N515   N1668   1.313   1_554 S
N515   N1723   1.383   1_554 S
N516   N1091   1.313   .     S
N516   N1150   1.382   .     S
O517   C518    1.409   .     S
C518   H519    1.110   .     S
C518   C521    1.504   .     S
C518   H520    1.111   .     S
C521   H524    1.098   .     S
C521   H138    1.106   1_565 S
C521   H139    1.103   1_565 S
O525   C526    1.410   .     S
C526   C529    1.511   .     S
C526   H527    1.102   .     S
C526   H528    1.118   .     S
H530   C145    1.104   1_565 S
H531   C145    1.101   1_565 S
H532   C145    1.110   1_565 S
O533   C534    1.413   .     S
C534   H536    1.107   .     S
C534   H535    1.117   .     S
C534   C537    1.523   .     S
C537   H540    1.103   .     S
C537   H1499   1.103   1_554 S
H538   C153    1.102   1_565 S
H539   C729    1.103   1_565 S
O541   C542    1.403   .     S
C542   H544    1.114   .     S
C542   H543    1.104   .     S
C542   C161    1.520   1_565 S
C545   H547    1.099   .     S
C545   H548    1.109   .     S
C545   H546    1.106   .     S
C550   C553    1.523   .     S
C550   O165    1.420   1_565 S
H551   C454    1.109   1_655 S
H552   C454    1.108   1_655 S
C553   H555    1.111   .     S
C553   H554    1.106   .     S
C553   H556    1.109   .     S
O557   C174    1.421   1_565 S
C558   C561    1.520   .     S
C558   H463    1.108   1_655 S
C558   H464    1.112   1_655 S
C561   H562    1.105   .     S
C561   H563    1.111   .     S
C561   H564    1.106   .     S
N565   O566    1.298   .     A
N565   O567    1.299   .     A
N565   C129    1.437   1_565 S
N568   O569    1.298   .     A
N568   O570    1.300   .     A
N571   O573    1.295   .     A
N571   N1091   1.383   .     S
N571   O1148   1.301   .     S
O572   N1723   1.301   1_554 S
N574   O576    1.296   .     A
N574   N1668   1.382   1_554 S
N574   O1727   1.299   1_554 S
O575   N1150   1.299   .     S
O577   C581    1.301   .     A
O577   Cu589   2.009   .     S
O578   C582    1.305   .     A
O578   Cu590   2.009   .     S
O579   Cu590   2.006   .     S
O579   C581    1.309   .     A
O580   Cu589   2.006   .     S
O580   C582    1.307   .     A
C581   C609    1.455   .     S
C582   C610    1.462   .     S
O583   C587    1.319   .     A
O583   Cu589   1.990   .     S
O584   C588    1.316   .     A
O584   Cu590   1.990   .     S
O585   Cu590   1.971   .     S
O585   C587    1.302   .     A
O586   C588    1.303   .     A
O586   Cu589   1.971   .     S
C587   C594    1.475   .     S
C588   C593    1.475   .     S
Cu589  Cu590   2.724   .     S
Cu589  N612    2.047   .     S
Cu590  N611    2.047   .     S
C591   C601    1.415   .     A
C591   O613    1.376   .     S
C591   C593    1.408   .     A
C592   C602    1.426   .     A
C592   O621    1.379   .     S
C592   C594    1.416   .     A
C593   C595    1.399   .     A
C594   C596    1.388   .     A
C595   C597    1.408   .     A
C595   O629    1.380   .     S
C596   O637    1.380   .     S
C596   C598    1.403   .     A
C597   C603    1.398   .     A
C597   C599    1.405   .     A
C598   C604    1.395   .     A
C598   C600    1.403   .     A
C599   C601    1.426   .     A
C599   C696    1.413   .     S
C600   C602    1.425   .     A
C600   C695    1.413   1_455 S
C601   C606    1.423   .     A
C602   C605    1.428   .     A
C603   H607    1.074   .     S
C603   C701    1.416   .     S
C604   H608    1.060   .     S
C604   C702    1.405   1_455 S
C605   O645    1.408   .     S
C605   C699    1.416   1_455 S
C606   O653    1.411   .     S
C606   C700    1.405   .     S
C609   C994    1.366   1_545 S
C609   N1045   1.437   1_545 S
C610   C801    1.366   .     S
C610   N856    1.446   .     S
N612   N1187   1.313   .     S
N612   N1246   1.382   .     S
O613   C614    1.409   .     S
C614   H615    1.110   .     S
C614   C617    1.504   .     S
C614   H616    1.111   .     S
C617   H620    1.098   .     S
C617   H810    1.106   .     S
C617   H811    1.103   .     S
H618   C1001   1.106   1_545 S
H619   C1001   1.103   1_545 S
O621   C622    1.410   .     S
C622   C625    1.511   .     S
C622   H623    1.102   .     S
C622   H624    1.118   .     S
C625   H1010   1.104   1_545 S
C625   H1011   1.101   1_545 S
C625   H1012   1.110   1_545 S
H626   C817    1.104   .     S
H627   C817    1.101   .     S
H628   C817    1.110   .     S
O629   C630    1.413   .     S
C630   H632    1.107   .     S
C630   H631    1.117   .     S
C630   C633    1.523   .     S
C633   H636    1.103   .     S
C633   H1018   1.102   1_545 S
C633   H443    1.103   1_545 S
H634   C825    1.102   .     S
H635   C1401   1.103   .     S
O637   C638    1.403   .     S
C638   H640    1.114   .     S
C638   H639    1.104   .     S
C638   C833    1.520   .     S
C641   H643    1.099   .     S
C641   H644    1.109   .     S
C641   H642    1.106   .     S
C641   C1022   1.520   1_545 S
O645   C1030   1.420   1_545 S
C646   C649    1.523   .     S
C646   O837    1.420   .     S
C646   H743    1.109   1_455 S
C646   H744    1.108   1_455 S
H647   C742    1.109   .     S
H648   C742    1.108   .     S
C649   H651    1.111   .     S
C649   H650    1.106   .     S
C649   H652    1.109   .     S
O653   C846    1.421   .     S
C654   C657    1.520   .     S
C654   O1037   1.421   1_545 S
C654   H751    1.108   .     S
C654   H752    1.112   .     S
H655   C750    1.108   1_455 S
H656   C750    1.112   1_455 S
C657   H658    1.105   .     S
C657   H659    1.111   .     S
C657   H660    1.106   .     S
N661   O662    1.298   .     A
N661   O663    1.299   .     A
N661   C801    1.437   .     S
N664   O665    1.298   .     A
N664   O666    1.300   .     A
N664   C994    1.446   1_545 S
N667   O669    1.295   .     A
N667   N1187   1.383   .     S
N667   O1244   1.301   .     S
N670   O672    1.296   .     A
O671   N1246   1.299   .     S
O673   C677    1.301   .     A
O673   Cu685   2.009   .     S
O674   C678    1.305   .     A
O674   Cu686   2.009   .     S
O675   Cu686   2.006   .     S
O675   C677    1.309   .     A
O676   Cu685   2.006   .     S
O676   C678    1.307   .     A
C677   C705    1.455   .     S
C678   C706    1.462   .     S
O679   C683    1.319   .     A
O679   Cu685   1.990   .     S
O680   C684    1.316   .     A
O680   Cu686   1.990   .     S
O681   Cu686   1.971   .     S
O681   C683    1.302   .     A
O682   C684    1.303   .     A
O682   Cu685   1.971   .     S
C683   C690    1.475   .     S
C684   C689    1.475   .     S
Cu685  Cu686   2.724   .     S
Cu685  N708    2.047   .     S
Cu686  N707    2.047   .     S
C687   C697    1.415   .     A
C687   O709    1.376   .     S
C687   C689    1.408   .     A
C688   C698    1.426   .     A
C688   O717    1.379   .     S
C688   C690    1.416   .     A
C689   C691    1.399   .     A
C690   C692    1.388   .     A
C691   C693    1.408   .     A
C691   O725    1.380   .     S
C692   O733    1.380   .     S
C692   C694    1.403   .     A
C693   C699    1.398   .     A
C693   C695    1.405   .     A
C694   C700    1.395   .     A
C694   C696    1.403   .     A
C695   C697    1.426   .     A
C695   C600    1.413   1_655 S
C696   C698    1.425   .     A
C697   C702    1.423   .     A
C698   C701    1.428   .     A
C699   H703    1.074   .     S
C699   C605    1.416   1_655 S
C700   H704    1.060   .     S
C701   O741    1.408   .     S
C702   O749    1.411   .     S
C702   C604    1.405   1_655 S
C705   C1090   1.366   1_545 S
C705   N1141   1.437   1_545 S
C706   C897    1.366   .     S
C706   N952    1.446   .     S
N708   N1283   1.313   .     S
N708   N1342   1.382   .     S
O709   C710    1.409   .     S
C710   H711    1.110   .     S
C710   C713    1.504   .     S
C710   H712    1.111   .     S
C713   H716    1.098   .     S
C713   H906    1.106   .     S
C713   H907    1.103   .     S
H714   C1097   1.106   1_545 S
H715   C1097   1.103   1_545 S
O717   C718    1.410   .     S
C718   C721    1.511   .     S
C718   H719    1.102   .     S
C718   H720    1.118   .     S
C721   H1106   1.104   1_545 S
C721   H1107   1.101   1_545 S
C721   H1108   1.110   1_545 S
H722   C913    1.104   .     S
H723   C913    1.101   .     S
H724   C913    1.110   .     S
O725   C726    1.413   .     S
C726   H728    1.107   .     S
C726   H727    1.117   .     S
C726   C729    1.523   .     S
C729   H732    1.103   .     S
C729   H1114   1.102   1_545 S
C729   H539    1.103   1_545 S
H730   C921    1.102   .     S
H731   C1497   1.103   .     S
O733   C734    1.403   .     S
C734   H736    1.114   .     S
C734   H735    1.104   .     S
C734   C929    1.520   .     S
C737   H739    1.099   .     S
C737   H740    1.109   .     S
C737   H738    1.106   .     S
C737   C1118   1.520   1_545 S
O741   C1126   1.420   1_545 S
C742   C745    1.523   .     S
C742   O933    1.420   .     S
H743   C646    1.109   1_655 S
H744   C646    1.108   1_655 S
C745   H747    1.111   .     S
C745   H746    1.106   .     S
C745   H748    1.109   .     S
O749   C942    1.421   .     S
C750   C753    1.520   .     S
C750   O1133   1.421   1_545 S
C750   H655    1.108   1_655 S
C750   H656    1.112   1_655 S
C753   H754    1.105   .     S
C753   H755    1.111   .     S
C753   H756    1.106   .     S
N757   O758    1.298   .     A
N757   O759    1.299   .     A
N757   C897    1.437   .     S
N760   O761    1.298   .     A
N760   O762    1.300   .     A
N760   C1090   1.446   1_545 S
N763   O765    1.295   .     A
N763   N1283   1.383   .     S
N763   O1340   1.301   .     S
N766   O768    1.296   .     A
O767   N1342   1.299   .     S
O769   C773    1.301   .     A
O769   Cu781   2.009   .     S
O770   C774    1.305   .     A
O770   Cu782   2.009   .     S
O771   Cu782   2.006   .     S
O771   C773    1.309   .     A
O772   Cu781   2.006   .     S
O772   C774    1.307   .     A
C773   C801    1.455   .     S
C774   C802    1.462   .     S
O775   C779    1.319   .     A
O775   Cu781   1.990   .     S
O776   C780    1.316   .     A
O776   Cu782   1.990   .     S
O777   Cu782   1.971   .     S
O777   C779    1.302   .     A
O778   C780    1.303   .     A
O778   Cu781   1.971   .     S
C779   C786    1.475   .     S
C780   C785    1.475   .     S
Cu781  Cu782   2.724   .     S
Cu781  N804    2.047   .     S
Cu782  N803    2.047   .     S
C783   C793    1.415   .     A
C783   O805    1.376   .     S
C783   C785    1.408   .     A
C784   C794    1.426   .     A
C784   O813    1.379   .     S
C784   C786    1.416   .     A
C785   C787    1.399   .     A
C786   C788    1.388   .     A
C787   C789    1.408   .     A
C787   O821    1.380   .     S
C788   O829    1.380   .     S
C788   C790    1.403   .     A
C789   C795    1.398   .     A
C789   C791    1.405   .     A
C790   C796    1.395   .     A
C790   C792    1.403   .     A
C791   C793    1.426   .     A
C791   C888    1.413   .     S
C792   C794    1.425   .     A
C792   C887    1.413   1_455 S
C793   C798    1.423   .     A
C794   C797    1.428   .     A
C795   H799    1.074   .     S
C795   C893    1.416   .     S
C796   H800    1.060   .     S
C796   C894    1.405   1_455 S
C797   O837    1.408   .     S
C797   C891    1.416   1_455 S
C798   O845    1.411   .     S
C798   C892    1.405   .     S
C802   C993    1.366   .     S
C802   N1048   1.446   .     S
N804   N1379   1.313   .     S
N804   N1438   1.382   .     S
O805   C806    1.409   .     S
C806   H807    1.110   .     S
C806   C809    1.504   .     S
C806   H808    1.111   .     S
C809   H812    1.098   .     S
C809   H1002   1.106   .     S
C809   H1003   1.103   .     S
O813   C814    1.410   .     S
C814   C817    1.511   .     S
C814   H815    1.102   .     S
C814   H816    1.118   .     S
H818   C1009   1.104   .     S
H819   C1009   1.101   .     S
H820   C1009   1.110   .     S
O821   C822    1.413   .     S
C822   H824    1.107   .     S
C822   H823    1.117   .     S
C822   C825    1.523   .     S
C825   H828    1.103   .     S
H826   C1017   1.102   .     S
H827   C1593   1.103   .     S
O829   C830    1.403   .     S
C830   H832    1.114   .     S
C830   H831    1.104   .     S
C830   C1025   1.520   .     S
C833   H835    1.099   .     S
C833   H836    1.109   .     S
C833   H834    1.106   .     S
C838   C841    1.523   .     S
C838   O1029   1.420   .     S
C838   H935    1.109   1_455 S
C838   H936    1.108   1_455 S
H839   C934    1.109   .     S
H840   C934    1.108   .     S
C841   H843    1.111   .     S
C841   H842    1.106   .     S
C841   H844    1.109   .     S
O845   C1038   1.421   .     S
C846   C849    1.520   .     S
C846   H943    1.108   .     S
C846   H944    1.112   .     S
H847   C942    1.108   1_455 S
H848   C942    1.112   1_455 S
C849   H850    1.105   .     S
C849   H851    1.111   .     S
C849   H852    1.106   .     S
N853   O854    1.298   .     A
N853   O855    1.299   .     A
N853   C993    1.437   .     S
N856   O857    1.298   .     A
N856   O858    1.300   .     A
N859   O861    1.295   .     A
N859   N1379   1.383   .     S
N859   O1436   1.301   .     S
N862   O864    1.296   .     A
O863   N1438   1.299   .     S
O865   C869    1.301   .     A
O865   Cu877   2.009   .     S
O866   C870    1.305   .     A
O866   Cu878   2.009   .     S
O867   Cu878   2.006   .     S
O867   C869    1.309   .     A
O868   Cu877   2.006   .     S
O868   C870    1.307   .     A
C869   C897    1.455   .     S
C870   C898    1.462   .     S
O871   C875    1.319   .     A
O871   Cu877   1.990   .     S
O872   C876    1.316   .     A
O872   Cu878   1.990   .     S
O873   Cu878   1.971   .     S
O873   C875    1.302   .     A
O874   C876    1.303   .     A
O874   Cu877   1.971   .     S
C875   C882    1.475   .     S
C876   C881    1.475   .     S
Cu877  Cu878   2.724   .     S
Cu877  N900    2.047   .     S
Cu878  N899    2.047   .     S
C879   C889    1.415   .     A
C879   O901    1.376   .     S
C879   C881    1.408   .     A
C880   C890    1.426   .     A
C880   O909    1.379   .     S
C880   C882    1.416   .     A
C881   C883    1.399   .     A
C882   C884    1.388   .     A
C883   C885    1.408   .     A
C883   O917    1.380   .     S
C884   O925    1.380   .     S
C884   C886    1.403   .     A
C885   C891    1.398   .     A
C885   C887    1.405   .     A
C886   C892    1.395   .     A
C886   C888    1.403   .     A
C887   C889    1.426   .     A
C887   C792    1.413   1_655 S
C888   C890    1.425   .     A
C889   C894    1.423   .     A
C890   C893    1.428   .     A
C891   H895    1.074   .     S
C891   C797    1.416   1_655 S
C892   H896    1.060   .     S
C893   O933    1.408   .     S
C894   O941    1.411   .     S
C894   C796    1.405   1_655 S
C898   C1089   1.366   .     S
C898   N1144   1.446   .     S
N900   N1475   1.313   .     S
N900   N1534   1.382   .     S
O901   C902    1.409   .     S
C902   H903    1.110   .     S
C902   C905    1.504   .     S
C902   H904    1.111   .     S
C905   H908    1.098   .     S
C905   H1098   1.106   .     S
C905   H1099   1.103   .     S
O909   C910    1.410   .     S
C910   C913    1.511   .     S
C910   H911    1.102   .     S
C910   H912    1.118   .     S
H914   C1105   1.104   .     S
H915   C1105   1.101   .     S
H916   C1105   1.110   .     S
O917   C918    1.413   .     S
C918   H920    1.107   .     S
C918   H919    1.117   .     S
C918   C921    1.523   .     S
C921   H924    1.103   .     S
H922   C1113   1.102   .     S
H923   C1689   1.103   .     S
O925   C926    1.403   .     S
C926   H928    1.114   .     S
C926   H927    1.104   .     S
C926   C1121   1.520   .     S
C929   H931    1.099   .     S
C929   H932    1.109   .     S
C929   H930    1.106   .     S
C934   C937    1.523   .     S
C934   O1125   1.420   .     S
H935   C838    1.109   1_655 S
H936   C838    1.108   1_655 S
C937   H939    1.111   .     S
C937   H938    1.106   .     S
C937   H940    1.109   .     S
O941   C1134   1.421   .     S
C942   C945    1.520   .     S
C942   H847    1.108   1_655 S
C942   H848    1.112   1_655 S
C945   H946    1.105   .     S
C945   H947    1.111   .     S
C945   H948    1.106   .     S
N949   O950    1.298   .     A
N949   O951    1.299   .     A
N949   C1089   1.437   .     S
N952   O953    1.298   .     A
N952   O954    1.300   .     A
N955   O957    1.295   .     A
N955   N1475   1.383   .     S
N955   O1532   1.301   .     S
N958   O960    1.296   .     A
O959   N1534   1.299   .     S
O961   C965    1.301   .     A
O961   Cu973   2.009   .     S
O962   C966    1.305   .     A
O962   Cu974   2.009   .     S
O963   Cu974   2.006   .     S
O963   C965    1.309   .     A
O964   Cu973   2.006   .     S
O964   C966    1.307   .     A
C965   C993    1.455   .     S
C966   C994    1.462   .     S
O967   C971    1.319   .     A
O967   Cu973   1.990   .     S
O968   C972    1.316   .     A
O968   Cu974   1.990   .     S
O969   Cu974   1.971   .     S
O969   C971    1.302   .     A
O970   C972    1.303   .     A
O970   Cu973   1.971   .     S
C971   C978    1.475   .     S
C972   C977    1.475   .     S
Cu973  Cu974   2.724   .     S
Cu973  N996    2.047   .     S
Cu974  N995    2.047   .     S
C975   C985    1.415   .     A
C975   O997    1.376   .     S
C975   C977    1.408   .     A
C976   C986    1.426   .     A
C976   O1005   1.379   .     S
C976   C978    1.416   .     A
C977   C979    1.399   .     A
C978   C980    1.388   .     A
C979   C981    1.408   .     A
C979   O1013   1.380   .     S
C980   O1021   1.380   .     S
C980   C982    1.403   .     A
C981   C987    1.398   .     A
C981   C983    1.405   .     A
C982   C988    1.395   .     A
C982   C984    1.403   .     A
C983   C985    1.426   .     A
C983   C1080   1.413   .     S
C984   C986    1.425   .     A
C984   C1079   1.413   1_455 S
C985   C990    1.423   .     A
C986   C989    1.428   .     A
C987   H991    1.074   .     S
C987   C1085   1.416   .     S
C988   H992    1.060   .     S
C988   C1086   1.405   1_455 S
C989   O1029   1.408   .     S
C989   C1083   1.416   1_455 S
C990   O1037   1.411   .     S
C990   C1084   1.405   .     S
C994   C609    1.366   1_565 S
C994   N664    1.446   1_565 S
N996   N1571   1.313   .     S
N996   N1630   1.382   .     S
O997   C998    1.409   .     S
C998   H999    1.110   .     S
C998   C1001   1.504   .     S
C998   H1000   1.111   .     S
C1001  H1004   1.098   .     S
C1001  H618    1.106   1_565 S
C1001  H619    1.103   1_565 S
O1005  C1006   1.410   .     S
C1006  C1009   1.511   .     S
C1006  H1007   1.102   .     S
C1006  H1008   1.118   .     S
H1010  C625    1.104   1_565 S
H1011  C625    1.101   1_565 S
H1012  C625    1.110   1_565 S
O1013  C1014   1.413   .     S
C1014  H1016   1.107   .     S
C1014  H1015   1.117   .     S
C1014  C1017   1.523   .     S
C1017  H1020   1.103   .     S
H1018  C633    1.102   1_565 S
H1019  C1209   1.103   1_565 S
O1021  C1022   1.403   .     S
C1022  H1024   1.114   .     S
C1022  H1023   1.104   .     S
C1022  C641    1.520   1_565 S
C1025  H1027   1.099   .     S
C1025  H1028   1.109   .     S
C1025  H1026   1.106   .     S
C1030  C1033   1.523   .     S
C1030  O645    1.420   1_565 S
C1030  H1127   1.109   1_455 S
C1030  H1128   1.108   1_455 S
H1031  C1126   1.109   .     S
H1032  C1126   1.108   .     S
C1033  H1035   1.111   .     S
C1033  H1034   1.106   .     S
C1033  H1036   1.109   .     S
O1037  C654    1.421   1_565 S
C1038  C1041   1.520   .     S
C1038  H1135   1.108   .     S
C1038  H1136   1.112   .     S
H1039  C1134   1.108   1_455 S
H1040  C1134   1.112   1_455 S
C1041  H1042   1.105   .     S
C1041  H1043   1.111   .     S
C1041  H1044   1.106   .     S
N1045  O1046   1.298   .     A
N1045  O1047   1.299   .     A
N1045  C609    1.437   1_565 S
N1048  O1049   1.298   .     A
N1048  O1050   1.300   .     A
N1051  O1053   1.295   .     A
N1051  N1571   1.383   .     S
N1051  O1628   1.301   .     S
N1054  O1056   1.296   .     A
O1055  N1630   1.299   .     S
O1057  C1061   1.301   .     A
O1057  Cu1069  2.009   .     S
O1058  C1062   1.305   .     A
O1058  Cu1070  2.009   .     S
O1059  Cu1070  2.006   .     S
O1059  C1061   1.309   .     A
O1060  Cu1069  2.006   .     S
O1060  C1062   1.307   .     A
C1061  C1089   1.455   .     S
C1062  C1090   1.462   .     S
O1063  C1067   1.319   .     A
O1063  Cu1069  1.990   .     S
O1064  C1068   1.316   .     A
O1064  Cu1070  1.990   .     S
O1065  Cu1070  1.971   .     S
O1065  C1067   1.302   .     A
O1066  C1068   1.303   .     A
O1066  Cu1069  1.971   .     S
C1067  C1074   1.475   .     S
C1068  C1073   1.475   .     S
Cu1069 Cu1070  2.724   .     S
Cu1069 N1092   2.047   .     S
Cu1070 N1091   2.047   .     S
C1071  C1081   1.415   .     A
C1071  O1093   1.376   .     S
C1071  C1073   1.408   .     A
C1072  C1082   1.426   .     A
C1072  O1101   1.379   .     S
C1072  C1074   1.416   .     A
C1073  C1075   1.399   .     A
C1074  C1076   1.388   .     A
C1075  C1077   1.408   .     A
C1075  O1109   1.380   .     S
C1076  O1117   1.380   .     S
C1076  C1078   1.403   .     A
C1077  C1083   1.398   .     A
C1077  C1079   1.405   .     A
C1078  C1084   1.395   .     A
C1078  C1080   1.403   .     A
C1079  C1081   1.426   .     A
C1079  C984    1.413   1_655 S
C1080  C1082   1.425   .     A
C1081  C1086   1.423   .     A
C1082  C1085   1.428   .     A
C1083  H1087   1.074   .     S
C1083  C989    1.416   1_655 S
C1084  H1088   1.060   .     S
C1085  O1125   1.408   .     S
C1086  O1133   1.411   .     S
C1086  C988    1.405   1_655 S
C1090  C705    1.366   1_565 S
C1090  N760    1.446   1_565 S
N1092  N1667   1.313   .     S
N1092  N1726   1.382   .     S
O1093  C1094   1.409   .     S
C1094  H1095   1.110   .     S
C1094  C1097   1.504   .     S
C1094  H1096   1.111   .     S
C1097  H1100   1.098   .     S
C1097  H714    1.106   1_565 S
C1097  H715    1.103   1_565 S
O1101  C1102   1.410   .     S
C1102  C1105   1.511   .     S
C1102  H1103   1.102   .     S
C1102  H1104   1.118   .     S
H1106  C721    1.104   1_565 S
H1107  C721    1.101   1_565 S
H1108  C721    1.110   1_565 S
O1109  C1110   1.413   .     S
C1110  H1112   1.107   .     S
C1110  H1111   1.117   .     S
C1110  C1113   1.523   .     S
C1113  H1116   1.103   .     S
H1114  C729    1.102   1_565 S
H1115  C1305   1.103   1_565 S
O1117  C1118   1.403   .     S
C1118  H1120   1.114   .     S
C1118  H1119   1.104   .     S
C1118  C737    1.520   1_565 S
C1121  H1123   1.099   .     S
C1121  H1124   1.109   .     S
C1121  H1122   1.106   .     S
C1126  C1129   1.523   .     S
C1126  O741    1.420   1_565 S
H1127  C1030   1.109   1_655 S
H1128  C1030   1.108   1_655 S
C1129  H1131   1.111   .     S
C1129  H1130   1.106   .     S
C1129  H1132   1.109   .     S
O1133  C750    1.421   1_565 S
C1134  C1137   1.520   .     S
C1134  H1039   1.108   1_655 S
C1134  H1040   1.112   1_655 S
C1137  H1138   1.105   .     S
C1137  H1139   1.111   .     S
C1137  H1140   1.106   .     S
N1141  O1142   1.298   .     A
N1141  O1143   1.299   .     A
N1141  C705    1.437   1_565 S
N1144  O1145   1.298   .     A
N1144  O1146   1.300   .     A
N1147  O1149   1.295   .     A
N1147  N1667   1.383   .     S
N1147  O1724   1.301   .     S
N1150  O1152   1.296   .     A
O1151  N1726   1.299   .     S
O1153  C1157   1.301   .     A
O1153  Cu1165  2.009   .     S
O1154  C1158   1.305   .     A
O1154  Cu1166  2.009   .     S
O1155  Cu1166  2.006   .     S
O1155  C1157   1.309   .     A
O1156  Cu1165  2.006   .     S
O1156  C1158   1.307   .     A
C1157  C1185   1.455   .     S
C1158  C1186   1.462   .     S
O1159  C1163   1.319   .     A
O1159  Cu1165  1.990   .     S
O1160  C1164   1.316   .     A
O1160  Cu1166  1.990   .     S
O1161  Cu1166  1.971   .     S
O1161  C1163   1.302   .     A
O1162  C1164   1.303   .     A
O1162  Cu1165  1.971   .     S
C1163  C1170   1.475   .     S
C1164  C1169   1.475   .     S
Cu1165 Cu1166  2.724   .     S
Cu1165 N1188   2.047   .     S
Cu1166 N1187   2.047   .     S
C1167  C1177   1.415   .     A
C1167  O1189   1.376   .     S
C1167  C1169   1.408   .     A
C1168  C1178   1.426   .     A
C1168  O1197   1.379   .     S
C1168  C1170   1.416   .     A
C1169  C1171   1.399   .     A
C1170  C1172   1.388   .     A
C1171  C1173   1.408   .     A
C1171  O1205   1.380   .     S
C1172  O1213   1.380   .     S
C1172  C1174   1.403   .     A
C1173  C1179   1.398   .     A
C1173  C1175   1.405   .     A
C1174  C1180   1.395   .     A
C1174  C1176   1.403   .     A
C1175  C1177   1.426   .     A
C1175  C1272   1.413   .     S
C1176  C1178   1.425   .     A
C1176  C1271   1.413   1_455 S
C1177  C1182   1.423   .     A
C1178  C1181   1.428   .     A
C1179  H1183   1.074   .     S
C1179  C1277   1.416   .     S
C1180  H1184   1.060   .     S
C1180  C1278   1.405   1_455 S
C1181  O1221   1.408   .     S
C1181  C1275   1.416   1_455 S
C1182  O1229   1.411   .     S
C1182  C1276   1.405   .     S
C1185  C1570   1.366   1_545 S
C1185  N1621   1.437   1_545 S
C1186  C1377   1.366   .     S
C1186  N1432   1.446   .     S
N1188  N35     1.313   1_556 S
N1188  N94     1.382   1_556 S
O1189  C1190   1.409   .     S
C1190  H1191   1.110   .     S
C1190  C1193   1.504   .     S
C1190  H1192   1.111   .     S
C1193  H1196   1.098   .     S
C1193  H1386   1.106   .     S
C1193  H1387   1.103   .     S
H1194  C1577   1.106   1_545 S
H1195  C1577   1.103   1_545 S
O1197  C1198   1.410   .     S
C1198  C1201   1.511   .     S
C1198  H1199   1.102   .     S
C1198  H1200   1.118   .     S
C1201  H1586   1.104   1_545 S
C1201  H1587   1.101   1_545 S
C1201  H1588   1.110   1_545 S
H1202  C1393   1.104   .     S
H1203  C1393   1.101   .     S
H1204  C1393   1.110   .     S
O1205  C1206   1.413   .     S
C1206  H1208   1.107   .     S
C1206  H1207   1.117   .     S
C1206  C1209   1.523   .     S
C1209  H1212   1.103   .     S
C1209  H1594   1.102   1_545 S
C1209  H1019   1.103   1_545 S
H1210  C1401   1.102   .     S
H1211  C249    1.103   1_556 S
O1213  C1214   1.403   .     S
C1214  H1216   1.114   .     S
C1214  H1215   1.104   .     S
C1214  C1409   1.520   .     S
C1217  H1219   1.099   .     S
C1217  H1220   1.109   .     S
C1217  H1218   1.106   .     S
C1217  C1598   1.520   1_545 S
O1221  C1606   1.420   1_545 S
C1222  C1225   1.523   .     S
C1222  O1413   1.420   .     S
C1222  H1319   1.109   1_455 S
C1222  H1320   1.108   1_455 S
H1223  C1318   1.109   .     S
H1224  C1318   1.108   .     S
C1225  H1227   1.111   .     S
C1225  H1226   1.106   .     S
C1225  H1228   1.109   .     S
O1229  C1422   1.421   .     S
C1230  C1233   1.520   .     S
C1230  O1613   1.421   1_545 S
C1230  H1327   1.108   .     S
C1230  H1328   1.112   .     S
H1231  C1326   1.108   1_455 S
H1232  C1326   1.112   1_455 S
C1233  H1234   1.105   .     S
C1233  H1235   1.111   .     S
C1233  H1236   1.106   .     S
N1237  O1238   1.298   .     A
N1237  O1239   1.299   .     A
N1237  C1377   1.437   .     S
N1240  O1241   1.298   .     A
N1240  O1242   1.300   .     A
N1240  C1570   1.446   1_545 S
N1243  O1245   1.295   .     A
N1243  N35     1.383   1_556 S
N1243  O92     1.301   1_556 S
N1246  O1248   1.296   .     A
O1247  N94     1.299   1_556 S
O1249  C1253   1.301   .     A
O1249  Cu1261  2.009   .     S
O1250  C1254   1.305   .     A
O1250  Cu1262  2.009   .     S
O1251  Cu1262  2.006   .     S
O1251  C1253   1.309   .     A
O1252  Cu1261  2.006   .     S
O1252  C1254   1.307   .     A
C1253  C1281   1.455   .     S
C1254  C1282   1.462   .     S
O1255  C1259   1.319   .     A
O1255  Cu1261  1.990   .     S
O1256  C1260   1.316   .     A
O1256  Cu1262  1.990   .     S
O1257  Cu1262  1.971   .     S
O1257  C1259   1.302   .     A
O1258  C1260   1.303   .     A
O1258  Cu1261  1.971   .     S
C1259  C1266   1.475   .     S
C1260  C1265   1.475   .     S
Cu1261 Cu1262  2.724   .     S
Cu1261 N1284   2.047   .     S
Cu1262 N1283   2.047   .     S
C1263  C1273   1.415   .     A
C1263  O1285   1.376   .     S
C1263  C1265   1.408   .     A
C1264  C1274   1.426   .     A
C1264  O1293   1.379   .     S
C1264  C1266   1.416   .     A
C1265  C1267   1.399   .     A
C1266  C1268   1.388   .     A
C1267  C1269   1.408   .     A
C1267  O1301   1.380   .     S
C1268  O1309   1.380   .     S
C1268  C1270   1.403   .     A
C1269  C1275   1.398   .     A
C1269  C1271   1.405   .     A
C1270  C1276   1.395   .     A
C1270  C1272   1.403   .     A
C1271  C1273   1.426   .     A
C1271  C1176   1.413   1_655 S
C1272  C1274   1.425   .     A
C1273  C1278   1.423   .     A
C1274  C1277   1.428   .     A
C1275  H1279   1.074   .     S
C1275  C1181   1.416   1_655 S
C1276  H1280   1.060   .     S
C1277  O1317   1.408   .     S
C1278  O1325   1.411   .     S
C1278  C1180   1.405   1_655 S
C1281  C1666   1.366   1_545 S
C1281  N1717   1.437   1_545 S
C1282  C1473   1.366   .     S
C1282  N1528   1.446   .     S
N1284  N131    1.313   1_556 S
N1284  N190    1.382   1_556 S
O1285  C1286   1.409   .     S
C1286  H1287   1.110   .     S
C1286  C1289   1.504   .     S
C1286  H1288   1.111   .     S
C1289  H1292   1.098   .     S
C1289  H1482   1.106   .     S
C1289  H1483   1.103   .     S
H1290  C1673   1.106   1_545 S
H1291  C1673   1.103   1_545 S
O1293  C1294   1.410   .     S
C1294  C1297   1.511   .     S
C1294  H1295   1.102   .     S
C1294  H1296   1.118   .     S
C1297  H1682   1.104   1_545 S
C1297  H1683   1.101   1_545 S
C1297  H1684   1.110   1_545 S
H1298  C1489   1.104   .     S
H1299  C1489   1.101   .     S
H1300  C1489   1.110   .     S
O1301  C1302   1.413   .     S
C1302  H1304   1.107   .     S
C1302  H1303   1.117   .     S
C1302  C1305   1.523   .     S
C1305  H1308   1.103   .     S
C1305  H1690   1.102   1_545 S
C1305  H1115   1.103   1_545 S
H1306  C1497   1.102   .     S
H1307  C345    1.103   1_556 S
O1309  C1310   1.403   .     S
C1310  H1312   1.114   .     S
C1310  H1311   1.104   .     S
C1310  C1505   1.520   .     S
C1313  H1315   1.099   .     S
C1313  H1316   1.109   .     S
C1313  H1314   1.106   .     S
C1313  C1694   1.520   1_545 S
O1317  C1702   1.420   1_545 S
C1318  C1321   1.523   .     S
C1318  O1509   1.420   .     S
H1319  C1222   1.109   1_655 S
H1320  C1222   1.108   1_655 S
C1321  H1323   1.111   .     S
C1321  H1322   1.106   .     S
C1321  H1324   1.109   .     S
O1325  C1518   1.421   .     S
C1326  C1329   1.520   .     S
C1326  O1709   1.421   1_545 S
C1326  H1231   1.108   1_655 S
C1326  H1232   1.112   1_655 S
C1329  H1330   1.105   .     S
C1329  H1331   1.111   .     S
C1329  H1332   1.106   .     S
N1333  O1334   1.298   .     A
N1333  O1335   1.299   .     A
N1333  C1473   1.437   .     S
N1336  O1337   1.298   .     A
N1336  O1338   1.300   .     A
N1336  C1666   1.446   1_545 S
N1339  O1341   1.295   .     A
N1339  N131    1.383   1_556 S
N1339  O188    1.301   1_556 S
N1342  O1344   1.296   .     A
O1343  N190    1.299   1_556 S
O1345  C1349   1.301   .     A
O1345  Cu1357  2.009   .     S
O1346  C1350   1.305   .     A
O1346  Cu1358  2.009   .     S
O1347  Cu1358  2.006   .     S
O1347  C1349   1.309   .     A
O1348  Cu1357  2.006   .     S
O1348  C1350   1.307   .     A
C1349  C1377   1.455   .     S
C1350  C1378   1.462   .     S
O1351  C1355   1.319   .     A
O1351  Cu1357  1.990   .     S
O1352  C1356   1.316   .     A
O1352  Cu1358  1.990   .     S
O1353  Cu1358  1.971   .     S
O1353  C1355   1.302   .     A
O1354  C1356   1.303   .     A
O1354  Cu1357  1.971   .     S
C1355  C1362   1.475   .     S
C1356  C1361   1.475   .     S
Cu1357 Cu1358  2.724   .     S
Cu1357 N1380   2.047   .     S
Cu1358 N1379   2.047   .     S
C1359  C1369   1.415   .     A
C1359  O1381   1.376   .     S
C1359  C1361   1.408   .     A
C1360  C1370   1.426   .     A
C1360  O1389   1.379   .     S
C1360  C1362   1.416   .     A
C1361  C1363   1.399   .     A
C1362  C1364   1.388   .     A
C1363  C1365   1.408   .     A
C1363  O1397   1.380   .     S
C1364  O1405   1.380   .     S
C1364  C1366   1.403   .     A
C1365  C1371   1.398   .     A
C1365  C1367   1.405   .     A
C1366  C1372   1.395   .     A
C1366  C1368   1.403   .     A
C1367  C1369   1.426   .     A
C1367  C1464   1.413   .     S
C1368  C1370   1.425   .     A
C1368  C1463   1.413   1_455 S
C1369  C1374   1.423   .     A
C1370  C1373   1.428   .     A
C1371  H1375   1.074   .     S
C1371  C1469   1.416   .     S
C1372  H1376   1.060   .     S
C1372  C1470   1.405   1_455 S
C1373  O1413   1.408   .     S
C1373  C1467   1.416   1_455 S
C1374  O1421   1.411   .     S
C1374  C1468   1.405   .     S
C1378  C1569   1.366   .     S
C1378  N1624   1.446   .     S
N1380  N227    1.313   1_556 S
N1380  N286    1.382   1_556 S
O1381  C1382   1.409   .     S
C1382  H1383   1.110   .     S
C1382  C1385   1.504   .     S
C1382  H1384   1.111   .     S
C1385  H1388   1.098   .     S
C1385  H1578   1.106   .     S
C1385  H1579   1.103   .     S
O1389  C1390   1.410   .     S
C1390  C1393   1.511   .     S
C1390  H1391   1.102   .     S
C1390  H1392   1.118   .     S
H1394  C1585   1.104   .     S
H1395  C1585   1.101   .     S
H1396  C1585   1.110   .     S
O1397  C1398   1.413   .     S
C1398  H1400   1.107   .     S
C1398  H1399   1.117   .     S
C1398  C1401   1.523   .     S
C1401  H1404   1.103   .     S
H1402  C1593   1.102   .     S
H1403  C441    1.103   1_556 S
O1405  C1406   1.403   .     S
C1406  H1408   1.114   .     S
C1406  H1407   1.104   .     S
C1406  C1601   1.520   .     S
C1409  H1411   1.099   .     S
C1409  H1412   1.109   .     S
C1409  H1410   1.106   .     S
C1414  C1417   1.523   .     S
C1414  O1605   1.420   .     S
C1414  H1511   1.109   1_455 S
C1414  H1512   1.108   1_455 S
H1415  C1510   1.109   .     S
H1416  C1510   1.108   .     S
C1417  H1419   1.111   .     S
C1417  H1418   1.106   .     S
C1417  H1420   1.109   .     S
O1421  C1614   1.421   .     S
C1422  C1425   1.520   .     S
C1422  H1519   1.108   .     S
C1422  H1520   1.112   .     S
H1423  C1518   1.108   1_455 S
H1424  C1518   1.112   1_455 S
C1425  H1426   1.105   .     S
C1425  H1427   1.111   .     S
C1425  H1428   1.106   .     S
N1429  O1430   1.298   .     A
N1429  O1431   1.299   .     A
N1429  C1569   1.437   .     S
N1432  O1433   1.298   .     A
N1432  O1434   1.300   .     A
N1435  O1437   1.295   .     A
N1435  N227    1.383   1_556 S
N1435  O284    1.301   1_556 S
N1438  O1440   1.296   .     A
O1439  N286    1.299   1_556 S
O1441  C1445   1.301   .     A
O1441  Cu1453  2.009   .     S
O1442  C1446   1.305   .     A
O1442  Cu1454  2.009   .     S
O1443  Cu1454  2.006   .     S
O1443  C1445   1.309   .     A
O1444  Cu1453  2.006   .     S
O1444  C1446   1.307   .     A
C1445  C1473   1.455   .     S
C1446  C1474   1.462   .     S
O1447  C1451   1.319   .     A
O1447  Cu1453  1.990   .     S
O1448  C1452   1.316   .     A
O1448  Cu1454  1.990   .     S
O1449  Cu1454  1.971   .     S
O1449  C1451   1.302   .     A
O1450  C1452   1.303   .     A
O1450  Cu1453  1.971   .     S
C1451  C1458   1.475   .     S
C1452  C1457   1.475   .     S
Cu1453 Cu1454  2.724   .     S
Cu1453 N1476   2.047   .     S
Cu1454 N1475   2.047   .     S
C1455  C1465   1.415   .     A
C1455  O1477   1.376   .     S
C1455  C1457   1.408   .     A
C1456  C1466   1.426   .     A
C1456  O1485   1.379   .     S
C1456  C1458   1.416   .     A
C1457  C1459   1.399   .     A
C1458  C1460   1.388   .     A
C1459  C1461   1.408   .     A
C1459  O1493   1.380   .     S
C1460  O1501   1.380   .     S
C1460  C1462   1.403   .     A
C1461  C1467   1.398   .     A
C1461  C1463   1.405   .     A
C1462  C1468   1.395   .     A
C1462  C1464   1.403   .     A
C1463  C1465   1.426   .     A
C1463  C1368   1.413   1_655 S
C1464  C1466   1.425   .     A
C1465  C1470   1.423   .     A
C1466  C1469   1.428   .     A
C1467  H1471   1.074   .     S
C1467  C1373   1.416   1_655 S
C1468  H1472   1.060   .     S
C1469  O1509   1.408   .     S
C1470  O1517   1.411   .     S
C1470  C1372   1.405   1_655 S
C1474  C1665   1.366   .     S
C1474  N1720   1.446   .     S
N1476  N323    1.313   1_556 S
N1476  N382    1.382   1_556 S
O1477  C1478   1.409   .     S
C1478  H1479   1.110   .     S
C1478  C1481   1.504   .     S
C1478  H1480   1.111   .     S
C1481  H1484   1.098   .     S
C1481  H1674   1.106   .     S
C1481  H1675   1.103   .     S
O1485  C1486   1.410   .     S
C1486  C1489   1.511   .     S
C1486  H1487   1.102   .     S
C1486  H1488   1.118   .     S
H1490  C1681   1.104   .     S
H1491  C1681   1.101   .     S
H1492  C1681   1.110   .     S
O1493  C1494   1.413   .     S
C1494  H1496   1.107   .     S
C1494  H1495   1.117   .     S
C1494  C1497   1.523   .     S
C1497  H1500   1.103   .     S
H1498  C1689   1.102   .     S
H1499  C537    1.103   1_556 S
O1501  C1502   1.403   .     S
C1502  H1504   1.114   .     S
C1502  H1503   1.104   .     S
C1502  C1697   1.520   .     S
C1505  H1507   1.099   .     S
C1505  H1508   1.109   .     S
C1505  H1506   1.106   .     S
C1510  C1513   1.523   .     S
C1510  O1701   1.420   .     S
H1511  C1414   1.109   1_655 S
H1512  C1414   1.108   1_655 S
C1513  H1515   1.111   .     S
C1513  H1514   1.106   .     S
C1513  H1516   1.109   .     S
O1517  C1710   1.421   .     S
C1518  C1521   1.520   .     S
C1518  H1423   1.108   1_655 S
C1518  H1424   1.112   1_655 S
C1521  H1522   1.105   .     S
C1521  H1523   1.111   .     S
C1521  H1524   1.106   .     S
N1525  O1526   1.298   .     A
N1525  O1527   1.299   .     A
N1525  C1665   1.437   .     S
N1528  O1529   1.298   .     A
N1528  O1530   1.300   .     A
N1531  O1533   1.295   .     A
N1531  N323    1.383   1_556 S
N1531  O380    1.301   1_556 S
N1534  O1536   1.296   .     A
O1535  N382    1.299   1_556 S
O1537  C1541   1.301   .     A
O1537  Cu1549  2.009   .     S
O1538  C1542   1.305   .     A
O1538  Cu1550  2.009   .     S
O1539  Cu1550  2.006   .     S
O1539  C1541   1.309   .     A
O1540  Cu1549  2.006   .     S
O1540  C1542   1.307   .     A
C1541  C1569   1.455   .     S
C1542  C1570   1.462   .     S
O1543  C1547   1.319   .     A
O1543  Cu1549  1.990   .     S
O1544  C1548   1.316   .     A
O1544  Cu1550  1.990   .     S
O1545  Cu1550  1.971   .     S
O1545  C1547   1.302   .     A
O1546  C1548   1.303   .     A
O1546  Cu1549  1.971   .     S
C1547  C1554   1.475   .     S
C1548  C1553   1.475   .     S
Cu1549 Cu1550  2.724   .     S
Cu1549 N1572   2.047   .     S
Cu1550 N1571   2.047   .     S
C1551  C1561   1.415   .     A
C1551  O1573   1.376   .     S
C1551  C1553   1.408   .     A
C1552  C1562   1.426   .     A
C1552  O1581   1.379   .     S
C1552  C1554   1.416   .     A
C1553  C1555   1.399   .     A
C1554  C1556   1.388   .     A
C1555  C1557   1.408   .     A
C1555  O1589   1.380   .     S
C1556  O1597   1.380   .     S
C1556  C1558   1.403   .     A
C1557  C1563   1.398   .     A
C1557  C1559   1.405   .     A
C1558  C1564   1.395   .     A
C1558  C1560   1.403   .     A
C1559  C1561   1.426   .     A
C1559  C1656   1.413   .     S
C1560  C1562   1.425   .     A
C1560  C1655   1.413   1_455 S
C1561  C1566   1.423   .     A
C1562  C1565   1.428   .     A
C1563  H1567   1.074   .     S
C1563  C1661   1.416   .     S
C1564  H1568   1.060   .     S
C1564  C1662   1.405   1_455 S
C1565  O1605   1.408   .     S
C1565  C1659   1.416   1_455 S
C1566  O1613   1.411   .     S
C1566  C1660   1.405   .     S
C1570  C1185   1.366   1_565 S
C1570  N1240   1.446   1_565 S
N1572  N419    1.313   1_556 S
N1572  N478    1.382   1_556 S
O1573  C1574   1.409   .     S
C1574  H1575   1.110   .     S
C1574  C1577   1.504   .     S
C1574  H1576   1.111   .     S
C1577  H1580   1.098   .     S
C1577  H1194   1.106   1_565 S
C1577  H1195   1.103   1_565 S
O1581  C1582   1.410   .     S
C1582  C1585   1.511   .     S
C1582  H1583   1.102   .     S
C1582  H1584   1.118   .     S
H1586  C1201   1.104   1_565 S
H1587  C1201   1.101   1_565 S
H1588  C1201   1.110   1_565 S
O1589  C1590   1.413   .     S
C1590  H1592   1.107   .     S
C1590  H1591   1.117   .     S
C1590  C1593   1.523   .     S
C1593  H1596   1.103   .     S
H1594  C1209   1.102   1_565 S
H1595  C57     1.103   1_566 S
O1597  C1598   1.403   .     S
C1598  H1600   1.114   .     S
C1598  H1599   1.104   .     S
C1598  C1217   1.520   1_565 S
C1601  H1603   1.099   .     S
C1601  H1604   1.109   .     S
C1601  H1602   1.106   .     S
C1606  C1609   1.523   .     S
C1606  O1221   1.420   1_565 S
C1606  H1703   1.109   1_455 S
C1606  H1704   1.108   1_455 S
H1607  C1702   1.109   .     S
H1608  C1702   1.108   .     S
C1609  H1611   1.111   .     S
C1609  H1610   1.106   .     S
C1609  H1612   1.109   .     S
O1613  C1230   1.421   1_565 S
C1614  C1617   1.520   .     S
C1614  H1711   1.108   .     S
C1614  H1712   1.112   .     S
H1615  C1710   1.108   1_455 S
H1616  C1710   1.112   1_455 S
C1617  H1618   1.105   .     S
C1617  H1619   1.111   .     S
C1617  H1620   1.106   .     S
N1621  O1622   1.298   .     A
N1621  O1623   1.299   .     A
N1621  C1185   1.437   1_565 S
N1624  O1625   1.298   .     A
N1624  O1626   1.300   .     A
N1627  O1629   1.295   .     A
N1627  N419    1.383   1_556 S
N1627  O476    1.301   1_556 S
N1630  O1632   1.296   .     A
O1631  N478    1.299   1_556 S
O1633  C1637   1.301   .     A
O1633  Cu1645  2.009   .     S
O1634  C1638   1.305   .     A
O1634  Cu1646  2.009   .     S
O1635  Cu1646  2.006   .     S
O1635  C1637   1.309   .     A
O1636  Cu1645  2.006   .     S
O1636  C1638   1.307   .     A
C1637  C1665   1.455   .     S
C1638  C1666   1.462   .     S
O1639  C1643   1.319   .     A
O1639  Cu1645  1.990   .     S
O1640  C1644   1.316   .     A
O1640  Cu1646  1.990   .     S
O1641  Cu1646  1.971   .     S
O1641  C1643   1.302   .     A
O1642  C1644   1.303   .     A
O1642  Cu1645  1.971   .     S
C1643  C1650   1.475   .     S
C1644  C1649   1.475   .     S
Cu1645 Cu1646  2.724   .     S
Cu1645 N1668   2.047   .     S
Cu1646 N1667   2.047   .     S
C1647  C1657   1.415   .     A
C1647  O1669   1.376   .     S
C1647  C1649   1.408   .     A
C1648  C1658   1.426   .     A
C1648  O1677   1.379   .     S
C1648  C1650   1.416   .     A
C1649  C1651   1.399   .     A
C1650  C1652   1.388   .     A
C1651  C1653   1.408   .     A
C1651  O1685   1.380   .     S
C1652  O1693   1.380   .     S
C1652  C1654   1.403   .     A
C1653  C1659   1.398   .     A
C1653  C1655   1.405   .     A
C1654  C1660   1.395   .     A
C1654  C1656   1.403   .     A
C1655  C1657   1.426   .     A
C1655  C1560   1.413   1_655 S
C1656  C1658   1.425   .     A
C1657  C1662   1.423   .     A
C1658  C1661   1.428   .     A
C1659  H1663   1.074   .     S
C1659  C1565   1.416   1_655 S
C1660  H1664   1.060   .     S
C1661  O1701   1.408   .     S
C1662  O1709   1.411   .     S
C1662  C1564   1.405   1_655 S
C1666  C1281   1.366   1_565 S
C1666  N1336   1.446   1_565 S
N1668  N515    1.313   1_556 S
N1668  N574    1.382   1_556 S
O1669  C1670   1.409   .     S
C1670  H1671   1.110   .     S
C1670  C1673   1.504   .     S
C1670  H1672   1.111   .     S
C1673  H1676   1.098   .     S
C1673  H1290   1.106   1_565 S
C1673  H1291   1.103   1_565 S
O1677  C1678   1.410   .     S
C1678  C1681   1.511   .     S
C1678  H1679   1.102   .     S
C1678  H1680   1.118   .     S
H1682  C1297   1.104   1_565 S
H1683  C1297   1.101   1_565 S
H1684  C1297   1.110   1_565 S
O1685  C1686   1.413   .     S
C1686  H1688   1.107   .     S
C1686  H1687   1.117   .     S
C1686  C1689   1.523   .     S
C1689  H1692   1.103   .     S
H1690  C1305   1.102   1_565 S
H1691  C153    1.103   1_566 S
O1693  C1694   1.403   .     S
C1694  H1696   1.114   .     S
C1694  H1695   1.104   .     S
C1694  C1313   1.520   1_565 S
C1697  H1699   1.099   .     S
C1697  H1700   1.109   .     S
C1697  H1698   1.106   .     S
C1702  C1705   1.523   .     S
C1702  O1317   1.420   1_565 S
H1703  C1606   1.109   1_655 S
H1704  C1606   1.108   1_655 S
C1705  H1707   1.111   .     S
C1705  H1706   1.106   .     S
C1705  H1708   1.109   .     S
O1709  C1326   1.421   1_565 S
C1710  C1713   1.520   .     S
C1710  H1615   1.108   1_655 S
C1710  H1616   1.112   1_655 S
C1713  H1714   1.105   .     S
C1713  H1715   1.111   .     S
C1713  H1716   1.106   .     S
N1717  O1718   1.298   .     A
N1717  O1719   1.299   .     A
N1717  C1281   1.437   1_565 S
N1720  O1721   1.298   .     A
N1720  O1722   1.300   .     A
N1723  O1725   1.295   .     A
N1723  N515    1.383   1_556 S
N1723  O572    1.301   1_556 S
N1726  O1728   1.296   .     A
O1727  N574    1.299   1_556 S
