data_str_m2_o1_o18_pcu_sym.24
_audit_creation_date              2020-01-03
_audit_creation_method            'Materials Studio'
_symmetry_space_group_name_H-M    'P1'
_symmetry_Int_Tables_number       1
_symmetry_cell_setting            triclinic
loop_
_symmetry_equiv_pos_as_xyz
  x,y,z
_cell_length_a                    28.6425
_cell_length_b                    32.4522
_cell_length_c                    30.8015
_cell_angle_alpha                 89.1910
_cell_angle_beta                  74.8920
_cell_angle_gamma                 89.9300
loop_
_atom_site_label
_atom_site_type_symbol
_atom_site_fract_x
_atom_site_fract_y
_atom_site_fract_z
_atom_site_U_iso_or_equiv
_atom_site_adp_type
_atom_site_occupancy
C1     C     0.33302   0.08743   0.25089   0.00000  Uiso   1.00
C2     C     0.04190   0.02232   0.22971   0.00000  Uiso   1.00
C3     C     0.00062   0.29055   0.24862   0.00000  Uiso   1.00
C4     C     0.33271   0.04278   0.25138   0.00000  Uiso   1.00
C5     C     0.18398   0.14064   0.27774   0.00000  Uiso   1.00
C6     C     0.14935   0.19269   0.22226   0.00000  Uiso   1.00
C7     C     0.13449   0.14050   0.27780   0.00000  Uiso   1.00
C8     C     0.19884   0.19284   0.22220   0.00000  Uiso   1.00
C9     C     0.30624   0.16733   0.33612   0.00000  Uiso   1.00
C10    C     0.02709   0.16600   0.16388   0.00000  Uiso   1.00
C11    C     0.29125   0.16643   0.38559   0.00000  Uiso   1.00
C12    C     0.00031   0.24590   0.24912   0.00000  Uiso   1.00
C13    C     0.04208   0.16690   0.11441   0.00000  Uiso   1.00
C14    C     0.30562   0.14487   0.45641   0.00000  Uiso   1.00
C15    C     0.02771   0.18846   0.04359   0.00000  Uiso   1.00
C16    C     0.32175   0.14947   0.40996   0.00000  Uiso   1.00
C17    C     0.01158   0.18386   0.09004   0.00000  Uiso   1.00
C18    C     0.24469   0.17996   0.40849   0.00000  Uiso   1.00
C19    C     0.08864   0.15338   0.09151   0.00000  Uiso   1.00
C20    C     0.22490   0.16796   0.45402   0.00000  Uiso   1.00
C21    C     0.10843   0.16537   0.04598   0.00000  Uiso   1.00
C22    C     0.25750   0.15374   0.47856   0.00000  Uiso   1.00
C23    C     0.19437   0.15742   0.04754   0.00000  Uiso   1.00
C24    C     0.07583   0.17960   0.02144   0.00000  Uiso   1.00
C25    C     0.17447   0.16988   0.47628   0.00000  Uiso   1.00
C26    C     0.15886   0.16345   0.02372   0.00000  Uiso   1.00
C27    C     0.11064   0.12088   0.11233   0.00000  Uiso   1.00
C28    C     0.22269   0.21246   0.38767   0.00000  Uiso   1.00
C29    C     0.10278   0.11174   0.30725   0.00000  Uiso   1.00
C30    C     0.23055   0.22159   0.19275   0.00000  Uiso   1.00
C31    C     0.13897   0.17592   0.45246   0.00000  Uiso   1.00
C32    C     0.24220   0.15000   0.02518   0.00000  Uiso   1.00
C33    C     0.09113   0.18333   0.47482   0.00000  Uiso   1.00
C34    C     0.29041   0.02049   0.27223   0.00000  Uiso   1.00
C35    C     0.04292   0.31284   0.22777   0.00000  Uiso   1.00
C36    C     0.29144   0.31101   0.27029   0.00000  Uiso   1.00
Cu37   Cu    0.04689   0.16667   0.25000   0.00000  Uiso   1.00
Cu38   Cu    0.28645   0.16666   0.25000   0.00000  Uiso   1.00
H39    H     0.26764   0.14239   0.04465   0.00000  Uiso   1.00
H40    H     0.07404   0.03980   0.21331   0.00000  Uiso   1.00
H41    H     0.19684   0.11986   0.29986   0.00000  Uiso   1.00
H42    H     0.13649   0.21347   0.20014   0.00000  Uiso   1.00
H43    H     0.25399   0.05400   0.32489   0.00000  Uiso   1.00
H44    H     0.21866   0.02035   0.30731   0.00000  Uiso   1.00
H45    H     0.07935   0.27934   0.17512   0.00000  Uiso   1.00
H46    H     0.11467   0.31298   0.19271   0.00000  Uiso   1.00
H47    H     0.06569   0.19094   0.45535   0.00000  Uiso   1.00
H48    H     0.30849   0.19319   0.10678   0.00000  Uiso   1.00
H49    H     0.02484   0.14014   0.39322   0.00000  Uiso   1.00
H50    H     0.33033   0.13308   0.47488   0.00000  Uiso   1.00
H51    H     0.00300   0.20025   0.02512   0.00000  Uiso   1.00
H52    H     0.18613   0.15859   0.08370   0.00000  Uiso   1.00
H53    H     0.14720   0.17474   0.41630   0.00000  Uiso   1.00
H54    H     0.25929   0.29353   0.28669   0.00000  Uiso   1.00
N55    N     0.11736   0.16668   0.24999   0.00000  Uiso   1.00
N56    N     0.21597   0.16666   0.25001   0.00000  Uiso   1.00
N57    N     0.12791   0.09487   0.12902   0.00000  Uiso   1.00
N58    N     0.20542   0.23846   0.37098   0.00000  Uiso   1.00
N59    N     0.24715   0.04128   0.29614   0.00000  Uiso   1.00
N60    N     0.08618   0.29205   0.20386   0.00000  Uiso   1.00
N61    N     0.07765   0.08831   0.33091   0.00000  Uiso   1.00
N62    N     0.25569   0.24502   0.16909   0.00000  Uiso   1.00
O63    O     0.03958   0.10655   0.25000   0.00000  Uiso   1.00
O64    O     0.29375   0.22678   0.25000   0.00000  Uiso   1.00
O65    O     0.29372   0.10654   0.25001   0.00000  Uiso   1.00
O66    O     0.03961   0.22679   0.25000   0.00000  Uiso   1.00
O67    O     0.01852   0.16668   0.31492   0.00000  Uiso   1.00
O68    O     0.31481   0.16666   0.18509   0.00000  Uiso   1.00
O69    O     0.27267   0.16667   0.31492   0.00000  Uiso   1.00
O70    O     0.06067   0.16667   0.18508   0.00000  Uiso   1.00
C71    C     0.66636   0.08743   0.25089   0.00000  Uiso   1.00
C72    C     0.37523   0.02232   0.22971   0.00000  Uiso   1.00
C73    C     0.33395   0.29055   0.24862   0.00000  Uiso   1.00
C74    C     0.66605   0.04278   0.25138   0.00000  Uiso   1.00
C75    C     0.51732   0.14064   0.27774   0.00000  Uiso   1.00
C76    C     0.48268   0.19269   0.22226   0.00000  Uiso   1.00
C77    C     0.46782   0.14050   0.27780   0.00000  Uiso   1.00
C78    C     0.53218   0.19284   0.22220   0.00000  Uiso   1.00
C79    C     0.63958   0.16733   0.33612   0.00000  Uiso   1.00
C80    C     0.36042   0.16600   0.16388   0.00000  Uiso   1.00
C81    C     0.62459   0.16643   0.38559   0.00000  Uiso   1.00
C82    C     0.33364   0.24590   0.24912   0.00000  Uiso   1.00
C83    C     0.37541   0.16690   0.11441   0.00000  Uiso   1.00
C84    C     0.63896   0.14487   0.45641   0.00000  Uiso   1.00
C85    C     0.36104   0.18846   0.04359   0.00000  Uiso   1.00
C86    C     0.65508   0.14947   0.40996   0.00000  Uiso   1.00
C87    C     0.34492   0.18386   0.09004   0.00000  Uiso   1.00
C88    C     0.57802   0.17996   0.40849   0.00000  Uiso   1.00
C89    C     0.42198   0.15338   0.09151   0.00000  Uiso   1.00
C90    C     0.55824   0.16796   0.45402   0.00000  Uiso   1.00
C91    C     0.44176   0.16537   0.04598   0.00000  Uiso   1.00
C92    C     0.59084   0.15374   0.47856   0.00000  Uiso   1.00
C93    C     0.52770   0.15742   0.04754   0.00000  Uiso   1.00
C94    C     0.40916   0.17960   0.02144   0.00000  Uiso   1.00
C95    C     0.50780   0.16988   0.47628   0.00000  Uiso   1.00
C96    C     0.49220   0.16345   0.02372   0.00000  Uiso   1.00
C97    C     0.44398   0.12088   0.11233   0.00000  Uiso   1.00
C98    C     0.55602   0.21246   0.38767   0.00000  Uiso   1.00
C99    C     0.43611   0.11174   0.30725   0.00000  Uiso   1.00
C100   C     0.56389   0.22159   0.19275   0.00000  Uiso   1.00
C101   C     0.47230   0.17592   0.45246   0.00000  Uiso   1.00
C102   C     0.57553   0.15000   0.02518   0.00000  Uiso   1.00
C103   C     0.42446   0.18333   0.47482   0.00000  Uiso   1.00
C104   C     0.62375   0.02049   0.27223   0.00000  Uiso   1.00
C105   C     0.37625   0.31284   0.22777   0.00000  Uiso   1.00
C106   C     0.62477   0.31101   0.27029   0.00000  Uiso   1.00
Cu107  Cu    0.38022   0.16667   0.25000   0.00000  Uiso   1.00
Cu108  Cu    0.61978   0.16666   0.25000   0.00000  Uiso   1.00
H109   H     0.60098   0.14239   0.04465   0.00000  Uiso   1.00
H110   H     0.40737   0.03980   0.21331   0.00000  Uiso   1.00
H111   H     0.53018   0.11986   0.29986   0.00000  Uiso   1.00
H112   H     0.46982   0.21347   0.20014   0.00000  Uiso   1.00
H113   H     0.58733   0.05400   0.32489   0.00000  Uiso   1.00
H114   H     0.55199   0.02035   0.30731   0.00000  Uiso   1.00
H115   H     0.41268   0.27934   0.17512   0.00000  Uiso   1.00
H116   H     0.44801   0.31298   0.19271   0.00000  Uiso   1.00
H117   H     0.39902   0.19094   0.45535   0.00000  Uiso   1.00
H118   H     0.64182   0.19319   0.10678   0.00000  Uiso   1.00
H119   H     0.35818   0.14014   0.39322   0.00000  Uiso   1.00
H120   H     0.66367   0.13308   0.47488   0.00000  Uiso   1.00
H121   H     0.33633   0.20025   0.02512   0.00000  Uiso   1.00
H122   H     0.51946   0.15859   0.08370   0.00000  Uiso   1.00
H123   H     0.48054   0.17474   0.41630   0.00000  Uiso   1.00
H124   H     0.59263   0.29353   0.28669   0.00000  Uiso   1.00
N125   N     0.45069   0.16668   0.24999   0.00000  Uiso   1.00
N126   N     0.54931   0.16666   0.25001   0.00000  Uiso   1.00
N127   N     0.46124   0.09487   0.12902   0.00000  Uiso   1.00
N128   N     0.53876   0.23846   0.37098   0.00000  Uiso   1.00
N129   N     0.58048   0.04128   0.29614   0.00000  Uiso   1.00
N130   N     0.41952   0.29205   0.20386   0.00000  Uiso   1.00
N131   N     0.41098   0.08831   0.33091   0.00000  Uiso   1.00
N132   N     0.58902   0.24502   0.16909   0.00000  Uiso   1.00
O133   O     0.37291   0.10655   0.25000   0.00000  Uiso   1.00
O134   O     0.62709   0.22678   0.25000   0.00000  Uiso   1.00
O135   O     0.62706   0.10654   0.25001   0.00000  Uiso   1.00
O136   O     0.37294   0.22679   0.25000   0.00000  Uiso   1.00
O137   O     0.35186   0.16668   0.31492   0.00000  Uiso   1.00
O138   O     0.64814   0.16666   0.18509   0.00000  Uiso   1.00
O139   O     0.60600   0.16667   0.31492   0.00000  Uiso   1.00
O140   O     0.39400   0.16667   0.18508   0.00000  Uiso   1.00
C141   C     0.99969   0.08743   0.25089   0.00000  Uiso   1.00
C142   C     0.70856   0.02232   0.22971   0.00000  Uiso   1.00
C143   C     0.66728   0.29055   0.24862   0.00000  Uiso   1.00
C144   C     0.99938   0.04278   0.25138   0.00000  Uiso   1.00
C145   C     0.85065   0.14064   0.27774   0.00000  Uiso   1.00
C146   C     0.81602   0.19269   0.22226   0.00000  Uiso   1.00
C147   C     0.80116   0.14050   0.27780   0.00000  Uiso   1.00
C148   C     0.86551   0.19284   0.22220   0.00000  Uiso   1.00
C149   C     0.97291   0.16733   0.33612   0.00000  Uiso   1.00
C150   C     0.69376   0.16600   0.16388   0.00000  Uiso   1.00
C151   C     0.95792   0.16643   0.38559   0.00000  Uiso   1.00
C152   C     0.66698   0.24590   0.24912   0.00000  Uiso   1.00
C153   C     0.70874   0.16690   0.11441   0.00000  Uiso   1.00
C154   C     0.97229   0.14487   0.45641   0.00000  Uiso   1.00
C155   C     0.69438   0.18846   0.04359   0.00000  Uiso   1.00
C156   C     0.98841   0.14947   0.40996   0.00000  Uiso   1.00
C157   C     0.67825   0.18386   0.09004   0.00000  Uiso   1.00
C158   C     0.91135   0.17996   0.40849   0.00000  Uiso   1.00
C159   C     0.75531   0.15338   0.09151   0.00000  Uiso   1.00
C160   C     0.89157   0.16796   0.45402   0.00000  Uiso   1.00
C161   C     0.77510   0.16537   0.04598   0.00000  Uiso   1.00
C162   C     0.92417   0.15374   0.47856   0.00000  Uiso   1.00
C163   C     0.86103   0.15742   0.04754   0.00000  Uiso   1.00
C164   C     0.74250   0.17960   0.02144   0.00000  Uiso   1.00
C165   C     0.84114   0.16988   0.47628   0.00000  Uiso   1.00
C166   C     0.82553   0.16345   0.02372   0.00000  Uiso   1.00
C167   C     0.77731   0.12088   0.11233   0.00000  Uiso   1.00
C168   C     0.88935   0.21246   0.38767   0.00000  Uiso   1.00
C169   C     0.76944   0.11174   0.30725   0.00000  Uiso   1.00
C170   C     0.89722   0.22159   0.19275   0.00000  Uiso   1.00
C171   C     0.80563   0.17592   0.45246   0.00000  Uiso   1.00
C172   C     0.90887   0.15000   0.02518   0.00000  Uiso   1.00
C173   C     0.75780   0.18333   0.47482   0.00000  Uiso   1.00
C174   C     0.95708   0.02049   0.27223   0.00000  Uiso   1.00
C175   C     0.70959   0.31284   0.22777   0.00000  Uiso   1.00
C176   C     0.95810   0.31101   0.27029   0.00000  Uiso   1.00
Cu177  Cu    0.71355   0.16667   0.25000   0.00000  Uiso   1.00
Cu178  Cu    0.95311   0.16666   0.25000   0.00000  Uiso   1.00
H179   H     0.93431   0.14239   0.04465   0.00000  Uiso   1.00
H180   H     0.74071   0.03980   0.21331   0.00000  Uiso   1.00
H181   H     0.86351   0.11986   0.29986   0.00000  Uiso   1.00
H182   H     0.80315   0.21347   0.20014   0.00000  Uiso   1.00
H183   H     0.92066   0.05400   0.32489   0.00000  Uiso   1.00
H184   H     0.88532   0.02035   0.30731   0.00000  Uiso   1.00
H185   H     0.74602   0.27934   0.17512   0.00000  Uiso   1.00
H186   H     0.78134   0.31298   0.19271   0.00000  Uiso   1.00
H187   H     0.73236   0.19094   0.45535   0.00000  Uiso   1.00
H188   H     0.97516   0.19319   0.10678   0.00000  Uiso   1.00
H189   H     0.69151   0.14014   0.39322   0.00000  Uiso   1.00
H190   H     0.99700   0.13308   0.47488   0.00000  Uiso   1.00
H191   H     0.66967   0.20025   0.02512   0.00000  Uiso   1.00
H192   H     0.85280   0.15859   0.08370   0.00000  Uiso   1.00
H193   H     0.81387   0.17474   0.41630   0.00000  Uiso   1.00
H194   H     0.92596   0.29353   0.28669   0.00000  Uiso   1.00
N195   N     0.78403   0.16668   0.24999   0.00000  Uiso   1.00
N196   N     0.88264   0.16666   0.25001   0.00000  Uiso   1.00
N197   N     0.79457   0.09487   0.12902   0.00000  Uiso   1.00
N198   N     0.87209   0.23846   0.37098   0.00000  Uiso   1.00
N199   N     0.91382   0.04128   0.29614   0.00000  Uiso   1.00
N200   N     0.75285   0.29205   0.20386   0.00000  Uiso   1.00
N201   N     0.74431   0.08831   0.33091   0.00000  Uiso   1.00
N202   N     0.92235   0.24502   0.16909   0.00000  Uiso   1.00
O203   O     0.70625   0.10655   0.25000   0.00000  Uiso   1.00
O204   O     0.96042   0.22678   0.25000   0.00000  Uiso   1.00
O205   O     0.96039   0.10654   0.25001   0.00000  Uiso   1.00
O206   O     0.70628   0.22679   0.25000   0.00000  Uiso   1.00
O207   O     0.68519   0.16668   0.31492   0.00000  Uiso   1.00
O208   O     0.98148   0.16666   0.18509   0.00000  Uiso   1.00
O209   O     0.93933   0.16667   0.31492   0.00000  Uiso   1.00
O210   O     0.72733   0.16667   0.18508   0.00000  Uiso   1.00
C211   C     0.33302   0.42076   0.25089   0.00000  Uiso   1.00
C212   C     0.04190   0.35565   0.22971   0.00000  Uiso   1.00
C213   C     0.00062   0.62389   0.24862   0.00000  Uiso   1.00
C214   C     0.33271   0.37611   0.25138   0.00000  Uiso   1.00
C215   C     0.18398   0.47398   0.27774   0.00000  Uiso   1.00
C216   C     0.14935   0.52602   0.22226   0.00000  Uiso   1.00
C217   C     0.13449   0.47383   0.27780   0.00000  Uiso   1.00
C218   C     0.19884   0.52617   0.22220   0.00000  Uiso   1.00
C219   C     0.30624   0.50067   0.33612   0.00000  Uiso   1.00
C220   C     0.02709   0.49933   0.16388   0.00000  Uiso   1.00
C221   C     0.29125   0.49977   0.38559   0.00000  Uiso   1.00
C222   C     0.00031   0.57924   0.24912   0.00000  Uiso   1.00
C223   C     0.04208   0.50023   0.11441   0.00000  Uiso   1.00
C224   C     0.30562   0.47821   0.45641   0.00000  Uiso   1.00
C225   C     0.02771   0.52179   0.04359   0.00000  Uiso   1.00
C226   C     0.32175   0.48281   0.40996   0.00000  Uiso   1.00
C227   C     0.01158   0.51719   0.09004   0.00000  Uiso   1.00
C228   C     0.24469   0.51329   0.40849   0.00000  Uiso   1.00
C229   C     0.08864   0.48671   0.09151   0.00000  Uiso   1.00
C230   C     0.22490   0.50129   0.45402   0.00000  Uiso   1.00
C231   C     0.10843   0.49871   0.04598   0.00000  Uiso   1.00
C232   C     0.25750   0.48707   0.47856   0.00000  Uiso   1.00
C233   C     0.19437   0.49075   0.04754   0.00000  Uiso   1.00
C234   C     0.07583   0.51293   0.02144   0.00000  Uiso   1.00
C235   C     0.17447   0.50321   0.47628   0.00000  Uiso   1.00
C236   C     0.15886   0.49679   0.02372   0.00000  Uiso   1.00
C237   C     0.11064   0.45421   0.11233   0.00000  Uiso   1.00
C238   C     0.22269   0.54579   0.38767   0.00000  Uiso   1.00
C239   C     0.10278   0.44508   0.30725   0.00000  Uiso   1.00
C240   C     0.23055   0.55492   0.19275   0.00000  Uiso   1.00
C241   C     0.13897   0.50925   0.45246   0.00000  Uiso   1.00
C242   C     0.24220   0.48333   0.02518   0.00000  Uiso   1.00
C243   C     0.09113   0.51667   0.47482   0.00000  Uiso   1.00
C244   C     0.29041   0.35382   0.27223   0.00000  Uiso   1.00
C245   C     0.04292   0.64618   0.22777   0.00000  Uiso   1.00
C246   C     0.29144   0.64435   0.27029   0.00000  Uiso   1.00
Cu247  Cu    0.04689   0.50001   0.25000   0.00000  Uiso   1.00
Cu248  Cu    0.28645   0.49999   0.25000   0.00000  Uiso   1.00
H249   H     0.26764   0.47573   0.04465   0.00000  Uiso   1.00
H250   H     0.07404   0.37314   0.21331   0.00000  Uiso   1.00
H251   H     0.19684   0.45319   0.29986   0.00000  Uiso   1.00
H252   H     0.13649   0.54681   0.20014   0.00000  Uiso   1.00
H253   H     0.25399   0.38734   0.32489   0.00000  Uiso   1.00
H254   H     0.21866   0.35369   0.30731   0.00000  Uiso   1.00
H255   H     0.07935   0.61267   0.17512   0.00000  Uiso   1.00
H256   H     0.11467   0.64631   0.19271   0.00000  Uiso   1.00
H257   H     0.06569   0.52427   0.45535   0.00000  Uiso   1.00
H258   H     0.30849   0.52653   0.10678   0.00000  Uiso   1.00
H259   H     0.02484   0.47347   0.39322   0.00000  Uiso   1.00
H260   H     0.33033   0.46641   0.47488   0.00000  Uiso   1.00
H261   H     0.00300   0.53359   0.02512   0.00000  Uiso   1.00
H262   H     0.18613   0.49193   0.08370   0.00000  Uiso   1.00
H263   H     0.14720   0.50807   0.41630   0.00000  Uiso   1.00
H264   H     0.25929   0.62686   0.28669   0.00000  Uiso   1.00
N265   N     0.11736   0.50001   0.24999   0.00000  Uiso   1.00
N266   N     0.21597   0.49999   0.25001   0.00000  Uiso   1.00
N267   N     0.12791   0.42820   0.12902   0.00000  Uiso   1.00
N268   N     0.20542   0.57180   0.37098   0.00000  Uiso   1.00
N269   N     0.24715   0.37462   0.29614   0.00000  Uiso   1.00
N270   N     0.08618   0.62538   0.20386   0.00000  Uiso   1.00
N271   N     0.07765   0.42164   0.33091   0.00000  Uiso   1.00
N272   N     0.25569   0.57836   0.16909   0.00000  Uiso   1.00
O273   O     0.03958   0.43989   0.25000   0.00000  Uiso   1.00
O274   O     0.29375   0.56011   0.25000   0.00000  Uiso   1.00
O275   O     0.29372   0.43988   0.25001   0.00000  Uiso   1.00
O276   O     0.03961   0.56012   0.25000   0.00000  Uiso   1.00
O277   O     0.01852   0.50001   0.31492   0.00000  Uiso   1.00
O278   O     0.31481   0.49999   0.18509   0.00000  Uiso   1.00
O279   O     0.27267   0.50000   0.31492   0.00000  Uiso   1.00
O280   O     0.06067   0.50000   0.18508   0.00000  Uiso   1.00
C281   C     0.66636   0.42076   0.25089   0.00000  Uiso   1.00
C282   C     0.37523   0.35565   0.22971   0.00000  Uiso   1.00
C283   C     0.33395   0.62389   0.24862   0.00000  Uiso   1.00
C284   C     0.66605   0.37611   0.25138   0.00000  Uiso   1.00
C285   C     0.51732   0.47398   0.27774   0.00000  Uiso   1.00
C286   C     0.48268   0.52602   0.22226   0.00000  Uiso   1.00
C287   C     0.46782   0.47383   0.27780   0.00000  Uiso   1.00
C288   C     0.53218   0.52617   0.22220   0.00000  Uiso   1.00
C289   C     0.63958   0.50067   0.33612   0.00000  Uiso   1.00
C290   C     0.36042   0.49933   0.16388   0.00000  Uiso   1.00
C291   C     0.62459   0.49977   0.38559   0.00000  Uiso   1.00
C292   C     0.33364   0.57924   0.24912   0.00000  Uiso   1.00
C293   C     0.37541   0.50023   0.11441   0.00000  Uiso   1.00
C294   C     0.63896   0.47821   0.45641   0.00000  Uiso   1.00
C295   C     0.36104   0.52179   0.04359   0.00000  Uiso   1.00
C296   C     0.65508   0.48281   0.40996   0.00000  Uiso   1.00
C297   C     0.34492   0.51719   0.09004   0.00000  Uiso   1.00
C298   C     0.57802   0.51329   0.40849   0.00000  Uiso   1.00
C299   C     0.42198   0.48671   0.09151   0.00000  Uiso   1.00
C300   C     0.55824   0.50129   0.45402   0.00000  Uiso   1.00
C301   C     0.44176   0.49871   0.04598   0.00000  Uiso   1.00
C302   C     0.59084   0.48707   0.47856   0.00000  Uiso   1.00
C303   C     0.52770   0.49075   0.04754   0.00000  Uiso   1.00
C304   C     0.40916   0.51293   0.02144   0.00000  Uiso   1.00
C305   C     0.50780   0.50321   0.47628   0.00000  Uiso   1.00
C306   C     0.49220   0.49679   0.02372   0.00000  Uiso   1.00
C307   C     0.44398   0.45421   0.11233   0.00000  Uiso   1.00
C308   C     0.55602   0.54579   0.38767   0.00000  Uiso   1.00
C309   C     0.43611   0.44508   0.30725   0.00000  Uiso   1.00
C310   C     0.56389   0.55492   0.19275   0.00000  Uiso   1.00
C311   C     0.47230   0.50925   0.45246   0.00000  Uiso   1.00
C312   C     0.57553   0.48333   0.02518   0.00000  Uiso   1.00
C313   C     0.42446   0.51667   0.47482   0.00000  Uiso   1.00
C314   C     0.62375   0.35382   0.27223   0.00000  Uiso   1.00
C315   C     0.37625   0.64618   0.22777   0.00000  Uiso   1.00
C316   C     0.62477   0.64435   0.27029   0.00000  Uiso   1.00
Cu317  Cu    0.38022   0.50001   0.25000   0.00000  Uiso   1.00
Cu318  Cu    0.61978   0.49999   0.25000   0.00000  Uiso   1.00
H319   H     0.60098   0.47573   0.04465   0.00000  Uiso   1.00
H320   H     0.40737   0.37314   0.21331   0.00000  Uiso   1.00
H321   H     0.53018   0.45319   0.29986   0.00000  Uiso   1.00
H322   H     0.46982   0.54681   0.20014   0.00000  Uiso   1.00
H323   H     0.58733   0.38734   0.32489   0.00000  Uiso   1.00
H324   H     0.55199   0.35369   0.30731   0.00000  Uiso   1.00
H325   H     0.41268   0.61267   0.17512   0.00000  Uiso   1.00
H326   H     0.44801   0.64631   0.19271   0.00000  Uiso   1.00
H327   H     0.39902   0.52427   0.45535   0.00000  Uiso   1.00
H328   H     0.64182   0.52653   0.10678   0.00000  Uiso   1.00
H329   H     0.35818   0.47347   0.39322   0.00000  Uiso   1.00
H330   H     0.66367   0.46641   0.47488   0.00000  Uiso   1.00
H331   H     0.33633   0.53359   0.02512   0.00000  Uiso   1.00
H332   H     0.51946   0.49193   0.08370   0.00000  Uiso   1.00
H333   H     0.48054   0.50807   0.41630   0.00000  Uiso   1.00
H334   H     0.59263   0.62686   0.28669   0.00000  Uiso   1.00
N335   N     0.45069   0.50001   0.24999   0.00000  Uiso   1.00
N336   N     0.54931   0.49999   0.25001   0.00000  Uiso   1.00
N337   N     0.46124   0.42820   0.12902   0.00000  Uiso   1.00
N338   N     0.53876   0.57180   0.37098   0.00000  Uiso   1.00
N339   N     0.58048   0.37462   0.29614   0.00000  Uiso   1.00
N340   N     0.41952   0.62538   0.20386   0.00000  Uiso   1.00
N341   N     0.41098   0.42164   0.33091   0.00000  Uiso   1.00
N342   N     0.58902   0.57836   0.16909   0.00000  Uiso   1.00
O343   O     0.37291   0.43989   0.25000   0.00000  Uiso   1.00
O344   O     0.62709   0.56011   0.25000   0.00000  Uiso   1.00
O345   O     0.62706   0.43988   0.25001   0.00000  Uiso   1.00
O346   O     0.37294   0.56012   0.25000   0.00000  Uiso   1.00
O347   O     0.35186   0.50001   0.31492   0.00000  Uiso   1.00
O348   O     0.64814   0.49999   0.18509   0.00000  Uiso   1.00
O349   O     0.60600   0.50000   0.31492   0.00000  Uiso   1.00
O350   O     0.39400   0.50000   0.18508   0.00000  Uiso   1.00
C351   C     0.99969   0.42076   0.25089   0.00000  Uiso   1.00
C352   C     0.70856   0.35565   0.22971   0.00000  Uiso   1.00
C353   C     0.66728   0.62389   0.24862   0.00000  Uiso   1.00
C354   C     0.99938   0.37611   0.25138   0.00000  Uiso   1.00
C355   C     0.85065   0.47398   0.27774   0.00000  Uiso   1.00
C356   C     0.81602   0.52602   0.22226   0.00000  Uiso   1.00
C357   C     0.80116   0.47383   0.27780   0.00000  Uiso   1.00
C358   C     0.86551   0.52617   0.22220   0.00000  Uiso   1.00
C359   C     0.97291   0.50067   0.33612   0.00000  Uiso   1.00
C360   C     0.69376   0.49933   0.16388   0.00000  Uiso   1.00
C361   C     0.95792   0.49977   0.38559   0.00000  Uiso   1.00
C362   C     0.66698   0.57924   0.24912   0.00000  Uiso   1.00
C363   C     0.70874   0.50023   0.11441   0.00000  Uiso   1.00
C364   C     0.97229   0.47821   0.45641   0.00000  Uiso   1.00
C365   C     0.69438   0.52179   0.04359   0.00000  Uiso   1.00
C366   C     0.98841   0.48281   0.40996   0.00000  Uiso   1.00
C367   C     0.67825   0.51719   0.09004   0.00000  Uiso   1.00
C368   C     0.91135   0.51329   0.40849   0.00000  Uiso   1.00
C369   C     0.75531   0.48671   0.09151   0.00000  Uiso   1.00
C370   C     0.89157   0.50129   0.45402   0.00000  Uiso   1.00
C371   C     0.77510   0.49871   0.04598   0.00000  Uiso   1.00
C372   C     0.92417   0.48707   0.47856   0.00000  Uiso   1.00
C373   C     0.86103   0.49075   0.04754   0.00000  Uiso   1.00
C374   C     0.74250   0.51293   0.02144   0.00000  Uiso   1.00
C375   C     0.84114   0.50321   0.47628   0.00000  Uiso   1.00
C376   C     0.82553   0.49679   0.02372   0.00000  Uiso   1.00
C377   C     0.77731   0.45421   0.11233   0.00000  Uiso   1.00
C378   C     0.88935   0.54579   0.38767   0.00000  Uiso   1.00
C379   C     0.76944   0.44508   0.30725   0.00000  Uiso   1.00
C380   C     0.89722   0.55492   0.19275   0.00000  Uiso   1.00
C381   C     0.80563   0.50925   0.45246   0.00000  Uiso   1.00
C382   C     0.90887   0.48333   0.02518   0.00000  Uiso   1.00
C383   C     0.75780   0.51667   0.47482   0.00000  Uiso   1.00
C384   C     0.95708   0.35382   0.27223   0.00000  Uiso   1.00
C385   C     0.70959   0.64618   0.22777   0.00000  Uiso   1.00
C386   C     0.95810   0.64435   0.27029   0.00000  Uiso   1.00
Cu387  Cu    0.71355   0.50001   0.25000   0.00000  Uiso   1.00
Cu388  Cu    0.95311   0.49999   0.25000   0.00000  Uiso   1.00
H389   H     0.93431   0.47573   0.04465   0.00000  Uiso   1.00
H390   H     0.74071   0.37314   0.21331   0.00000  Uiso   1.00
H391   H     0.86351   0.45319   0.29986   0.00000  Uiso   1.00
H392   H     0.80315   0.54681   0.20014   0.00000  Uiso   1.00
H393   H     0.92066   0.38734   0.32489   0.00000  Uiso   1.00
H394   H     0.88532   0.35369   0.30731   0.00000  Uiso   1.00
H395   H     0.74602   0.61267   0.17512   0.00000  Uiso   1.00
H396   H     0.78134   0.64631   0.19271   0.00000  Uiso   1.00
H397   H     0.73236   0.52427   0.45535   0.00000  Uiso   1.00
H398   H     0.97516   0.52653   0.10678   0.00000  Uiso   1.00
H399   H     0.69151   0.47347   0.39322   0.00000  Uiso   1.00
H400   H     0.99700   0.46641   0.47488   0.00000  Uiso   1.00
H401   H     0.66967   0.53359   0.02512   0.00000  Uiso   1.00
H402   H     0.85280   0.49193   0.08370   0.00000  Uiso   1.00
H403   H     0.81387   0.50807   0.41630   0.00000  Uiso   1.00
H404   H     0.92596   0.62686   0.28669   0.00000  Uiso   1.00
N405   N     0.78403   0.50001   0.24999   0.00000  Uiso   1.00
N406   N     0.88264   0.49999   0.25001   0.00000  Uiso   1.00
N407   N     0.79457   0.42820   0.12902   0.00000  Uiso   1.00
N408   N     0.87209   0.57180   0.37098   0.00000  Uiso   1.00
N409   N     0.91382   0.37462   0.29614   0.00000  Uiso   1.00
N410   N     0.75285   0.62538   0.20386   0.00000  Uiso   1.00
N411   N     0.74431   0.42164   0.33091   0.00000  Uiso   1.00
N412   N     0.92235   0.57836   0.16909   0.00000  Uiso   1.00
O413   O     0.70625   0.43989   0.25000   0.00000  Uiso   1.00
O414   O     0.96042   0.56011   0.25000   0.00000  Uiso   1.00
O415   O     0.96039   0.43988   0.25001   0.00000  Uiso   1.00
O416   O     0.70628   0.56012   0.25000   0.00000  Uiso   1.00
O417   O     0.68519   0.50001   0.31492   0.00000  Uiso   1.00
O418   O     0.98148   0.49999   0.18509   0.00000  Uiso   1.00
O419   O     0.93933   0.50000   0.31492   0.00000  Uiso   1.00
O420   O     0.72733   0.50000   0.18508   0.00000  Uiso   1.00
C421   C     0.33302   0.75410   0.25089   0.00000  Uiso   1.00
C422   C     0.04190   0.68899   0.22971   0.00000  Uiso   1.00
C423   C     0.00062   0.95722   0.24862   0.00000  Uiso   1.00
C424   C     0.33271   0.70945   0.25138   0.00000  Uiso   1.00
C425   C     0.18398   0.80731   0.27774   0.00000  Uiso   1.00
C426   C     0.14935   0.85936   0.22226   0.00000  Uiso   1.00
C427   C     0.13449   0.80716   0.27780   0.00000  Uiso   1.00
C428   C     0.19884   0.85950   0.22220   0.00000  Uiso   1.00
C429   C     0.30624   0.83400   0.33612   0.00000  Uiso   1.00
C430   C     0.02709   0.83267   0.16388   0.00000  Uiso   1.00
C431   C     0.29125   0.83310   0.38559   0.00000  Uiso   1.00
C432   C     0.00031   0.91257   0.24912   0.00000  Uiso   1.00
C433   C     0.04208   0.83357   0.11441   0.00000  Uiso   1.00
C434   C     0.30562   0.81154   0.45641   0.00000  Uiso   1.00
C435   C     0.02771   0.85513   0.04359   0.00000  Uiso   1.00
C436   C     0.32175   0.81614   0.40996   0.00000  Uiso   1.00
C437   C     0.01158   0.85053   0.09004   0.00000  Uiso   1.00
C438   C     0.24469   0.84662   0.40849   0.00000  Uiso   1.00
C439   C     0.08864   0.82004   0.09151   0.00000  Uiso   1.00
C440   C     0.22490   0.83463   0.45402   0.00000  Uiso   1.00
C441   C     0.10843   0.83204   0.04598   0.00000  Uiso   1.00
C442   C     0.25750   0.82040   0.47856   0.00000  Uiso   1.00
C443   C     0.19437   0.82408   0.04754   0.00000  Uiso   1.00
C444   C     0.07583   0.84626   0.02144   0.00000  Uiso   1.00
C445   C     0.17447   0.83655   0.47628   0.00000  Uiso   1.00
C446   C     0.15886   0.83012   0.02372   0.00000  Uiso   1.00
C447   C     0.11064   0.78754   0.11233   0.00000  Uiso   1.00
C448   C     0.22269   0.87912   0.38767   0.00000  Uiso   1.00
C449   C     0.10278   0.77841   0.30725   0.00000  Uiso   1.00
C450   C     0.23055   0.88826   0.19275   0.00000  Uiso   1.00
C451   C     0.13897   0.84258   0.45246   0.00000  Uiso   1.00
C452   C     0.24220   0.81667   0.02518   0.00000  Uiso   1.00
C453   C     0.09113   0.85000   0.47482   0.00000  Uiso   1.00
C454   C     0.29041   0.68716   0.27223   0.00000  Uiso   1.00
C455   C     0.04292   0.97951   0.22777   0.00000  Uiso   1.00
C456   C     0.29144   0.97768   0.27029   0.00000  Uiso   1.00
Cu457  Cu    0.04689   0.83334   0.25000   0.00000  Uiso   1.00
Cu458  Cu    0.28645   0.83333   0.25000   0.00000  Uiso   1.00
H459   H     0.26764   0.80906   0.04465   0.00000  Uiso   1.00
H460   H     0.07404   0.70647   0.21331   0.00000  Uiso   1.00
H461   H     0.19684   0.78653   0.29986   0.00000  Uiso   1.00
H462   H     0.13649   0.88014   0.20014   0.00000  Uiso   1.00
H463   H     0.25399   0.72067   0.32489   0.00000  Uiso   1.00
H464   H     0.21866   0.68702   0.30731   0.00000  Uiso   1.00
H465   H     0.07935   0.94600   0.17512   0.00000  Uiso   1.00
H466   H     0.11467   0.97964   0.19271   0.00000  Uiso   1.00
H467   H     0.06569   0.85761   0.45535   0.00000  Uiso   1.00
H468   H     0.30849   0.85986   0.10678   0.00000  Uiso   1.00
H469   H     0.02484   0.80681   0.39322   0.00000  Uiso   1.00
H470   H     0.33033   0.79975   0.47488   0.00000  Uiso   1.00
H471   H     0.00300   0.86692   0.02512   0.00000  Uiso   1.00
H472   H     0.18613   0.82526   0.08370   0.00000  Uiso   1.00
H473   H     0.14720   0.84141   0.41630   0.00000  Uiso   1.00
H474   H     0.25929   0.96020   0.28669   0.00000  Uiso   1.00
N475   N     0.11736   0.83334   0.24999   0.00000  Uiso   1.00
N476   N     0.21597   0.83332   0.25001   0.00000  Uiso   1.00
N477   N     0.12791   0.76154   0.12902   0.00000  Uiso   1.00
N478   N     0.20542   0.90513   0.37098   0.00000  Uiso   1.00
N479   N     0.24715   0.70795   0.29614   0.00000  Uiso   1.00
N480   N     0.08618   0.95872   0.20386   0.00000  Uiso   1.00
N481   N     0.07765   0.75498   0.33091   0.00000  Uiso   1.00
N482   N     0.25569   0.91169   0.16909   0.00000  Uiso   1.00
O483   O     0.03958   0.77322   0.25000   0.00000  Uiso   1.00
O484   O     0.29375   0.89345   0.25000   0.00000  Uiso   1.00
O485   O     0.29372   0.77321   0.25001   0.00000  Uiso   1.00
O486   O     0.03961   0.89346   0.25000   0.00000  Uiso   1.00
O487   O     0.01852   0.83334   0.31492   0.00000  Uiso   1.00
O488   O     0.31481   0.83332   0.18509   0.00000  Uiso   1.00
O489   O     0.27267   0.83333   0.31492   0.00000  Uiso   1.00
O490   O     0.06067   0.83333   0.18508   0.00000  Uiso   1.00
C491   C     0.66636   0.75410   0.25089   0.00000  Uiso   1.00
C492   C     0.37523   0.68899   0.22971   0.00000  Uiso   1.00
C493   C     0.33395   0.95722   0.24862   0.00000  Uiso   1.00
C494   C     0.66605   0.70945   0.25138   0.00000  Uiso   1.00
C495   C     0.51732   0.80731   0.27774   0.00000  Uiso   1.00
C496   C     0.48268   0.85936   0.22226   0.00000  Uiso   1.00
C497   C     0.46782   0.80716   0.27780   0.00000  Uiso   1.00
C498   C     0.53218   0.85950   0.22220   0.00000  Uiso   1.00
C499   C     0.63958   0.83400   0.33612   0.00000  Uiso   1.00
C500   C     0.36042   0.83267   0.16388   0.00000  Uiso   1.00
C501   C     0.62459   0.83310   0.38559   0.00000  Uiso   1.00
C502   C     0.33364   0.91257   0.24912   0.00000  Uiso   1.00
C503   C     0.37541   0.83357   0.11441   0.00000  Uiso   1.00
C504   C     0.63896   0.81154   0.45641   0.00000  Uiso   1.00
C505   C     0.36104   0.85513   0.04359   0.00000  Uiso   1.00
C506   C     0.65508   0.81614   0.40996   0.00000  Uiso   1.00
C507   C     0.34492   0.85053   0.09004   0.00000  Uiso   1.00
C508   C     0.57802   0.84662   0.40849   0.00000  Uiso   1.00
C509   C     0.42198   0.82004   0.09151   0.00000  Uiso   1.00
C510   C     0.55824   0.83463   0.45402   0.00000  Uiso   1.00
C511   C     0.44176   0.83204   0.04598   0.00000  Uiso   1.00
C512   C     0.59084   0.82040   0.47856   0.00000  Uiso   1.00
C513   C     0.52770   0.82408   0.04754   0.00000  Uiso   1.00
C514   C     0.40916   0.84626   0.02144   0.00000  Uiso   1.00
C515   C     0.50780   0.83655   0.47628   0.00000  Uiso   1.00
C516   C     0.49220   0.83012   0.02372   0.00000  Uiso   1.00
C517   C     0.44398   0.78754   0.11233   0.00000  Uiso   1.00
C518   C     0.55602   0.87912   0.38767   0.00000  Uiso   1.00
C519   C     0.43611   0.77841   0.30725   0.00000  Uiso   1.00
C520   C     0.56389   0.88826   0.19275   0.00000  Uiso   1.00
C521   C     0.47230   0.84258   0.45246   0.00000  Uiso   1.00
C522   C     0.57553   0.81667   0.02518   0.00000  Uiso   1.00
C523   C     0.42446   0.85000   0.47482   0.00000  Uiso   1.00
C524   C     0.62375   0.68716   0.27223   0.00000  Uiso   1.00
C525   C     0.37625   0.97951   0.22777   0.00000  Uiso   1.00
C526   C     0.62477   0.97768   0.27029   0.00000  Uiso   1.00
Cu527  Cu    0.38022   0.83334   0.25000   0.00000  Uiso   1.00
Cu528  Cu    0.61978   0.83333   0.25000   0.00000  Uiso   1.00
H529   H     0.60098   0.80906   0.04465   0.00000  Uiso   1.00
H530   H     0.40737   0.70647   0.21331   0.00000  Uiso   1.00
H531   H     0.53018   0.78653   0.29986   0.00000  Uiso   1.00
H532   H     0.46982   0.88014   0.20014   0.00000  Uiso   1.00
H533   H     0.58733   0.72067   0.32489   0.00000  Uiso   1.00
H534   H     0.55199   0.68702   0.30731   0.00000  Uiso   1.00
H535   H     0.41268   0.94600   0.17512   0.00000  Uiso   1.00
H536   H     0.44801   0.97964   0.19271   0.00000  Uiso   1.00
H537   H     0.39902   0.85761   0.45535   0.00000  Uiso   1.00
H538   H     0.64182   0.85986   0.10678   0.00000  Uiso   1.00
H539   H     0.35818   0.80681   0.39322   0.00000  Uiso   1.00
H540   H     0.66367   0.79975   0.47488   0.00000  Uiso   1.00
H541   H     0.33633   0.86692   0.02512   0.00000  Uiso   1.00
H542   H     0.51946   0.82526   0.08370   0.00000  Uiso   1.00
H543   H     0.48054   0.84141   0.41630   0.00000  Uiso   1.00
H544   H     0.59263   0.96020   0.28669   0.00000  Uiso   1.00
N545   N     0.45069   0.83334   0.24999   0.00000  Uiso   1.00
N546   N     0.54931   0.83332   0.25001   0.00000  Uiso   1.00
N547   N     0.46124   0.76154   0.12902   0.00000  Uiso   1.00
N548   N     0.53876   0.90513   0.37098   0.00000  Uiso   1.00
N549   N     0.58048   0.70795   0.29614   0.00000  Uiso   1.00
N550   N     0.41952   0.95872   0.20386   0.00000  Uiso   1.00
N551   N     0.41098   0.75498   0.33091   0.00000  Uiso   1.00
N552   N     0.58902   0.91169   0.16909   0.00000  Uiso   1.00
O553   O     0.37291   0.77322   0.25000   0.00000  Uiso   1.00
O554   O     0.62709   0.89345   0.25000   0.00000  Uiso   1.00
O555   O     0.62706   0.77321   0.25001   0.00000  Uiso   1.00
O556   O     0.37294   0.89346   0.25000   0.00000  Uiso   1.00
O557   O     0.35186   0.83334   0.31492   0.00000  Uiso   1.00
O558   O     0.64814   0.83332   0.18509   0.00000  Uiso   1.00
O559   O     0.60600   0.83333   0.31492   0.00000  Uiso   1.00
O560   O     0.39400   0.83333   0.18508   0.00000  Uiso   1.00
C561   C     0.99969   0.75410   0.25089   0.00000  Uiso   1.00
C562   C     0.70856   0.68899   0.22971   0.00000  Uiso   1.00
C563   C     0.66728   0.95722   0.24862   0.00000  Uiso   1.00
C564   C     0.99938   0.70945   0.25138   0.00000  Uiso   1.00
C565   C     0.85065   0.80731   0.27774   0.00000  Uiso   1.00
C566   C     0.81602   0.85936   0.22226   0.00000  Uiso   1.00
C567   C     0.80116   0.80716   0.27780   0.00000  Uiso   1.00
C568   C     0.86551   0.85950   0.22220   0.00000  Uiso   1.00
C569   C     0.97291   0.83400   0.33612   0.00000  Uiso   1.00
C570   C     0.69376   0.83267   0.16388   0.00000  Uiso   1.00
C571   C     0.95792   0.83310   0.38559   0.00000  Uiso   1.00
C572   C     0.66698   0.91257   0.24912   0.00000  Uiso   1.00
C573   C     0.70874   0.83357   0.11441   0.00000  Uiso   1.00
C574   C     0.97229   0.81154   0.45641   0.00000  Uiso   1.00
C575   C     0.69438   0.85513   0.04359   0.00000  Uiso   1.00
C576   C     0.98841   0.81614   0.40996   0.00000  Uiso   1.00
C577   C     0.67825   0.85053   0.09004   0.00000  Uiso   1.00
C578   C     0.91135   0.84662   0.40849   0.00000  Uiso   1.00
C579   C     0.75531   0.82004   0.09151   0.00000  Uiso   1.00
C580   C     0.89157   0.83463   0.45402   0.00000  Uiso   1.00
C581   C     0.77510   0.83204   0.04598   0.00000  Uiso   1.00
C582   C     0.92417   0.82040   0.47856   0.00000  Uiso   1.00
C583   C     0.86103   0.82408   0.04754   0.00000  Uiso   1.00
C584   C     0.74250   0.84626   0.02144   0.00000  Uiso   1.00
C585   C     0.84114   0.83655   0.47628   0.00000  Uiso   1.00
C586   C     0.82553   0.83012   0.02372   0.00000  Uiso   1.00
C587   C     0.77731   0.78754   0.11233   0.00000  Uiso   1.00
C588   C     0.88935   0.87912   0.38767   0.00000  Uiso   1.00
C589   C     0.76944   0.77841   0.30725   0.00000  Uiso   1.00
C590   C     0.89722   0.88826   0.19275   0.00000  Uiso   1.00
C591   C     0.80563   0.84258   0.45246   0.00000  Uiso   1.00
C592   C     0.90887   0.81667   0.02518   0.00000  Uiso   1.00
C593   C     0.75780   0.85000   0.47482   0.00000  Uiso   1.00
C594   C     0.95708   0.68716   0.27223   0.00000  Uiso   1.00
C595   C     0.70959   0.97951   0.22777   0.00000  Uiso   1.00
C596   C     0.95810   0.97768   0.27029   0.00000  Uiso   1.00
Cu597  Cu    0.71355   0.83334   0.25000   0.00000  Uiso   1.00
Cu598  Cu    0.95311   0.83333   0.25000   0.00000  Uiso   1.00
H599   H     0.93431   0.80906   0.04465   0.00000  Uiso   1.00
H600   H     0.74071   0.70647   0.21331   0.00000  Uiso   1.00
H601   H     0.86351   0.78653   0.29986   0.00000  Uiso   1.00
H602   H     0.80315   0.88014   0.20014   0.00000  Uiso   1.00
H603   H     0.92066   0.72067   0.32489   0.00000  Uiso   1.00
H604   H     0.88532   0.68702   0.30731   0.00000  Uiso   1.00
H605   H     0.74602   0.94600   0.17512   0.00000  Uiso   1.00
H606   H     0.78134   0.97964   0.19271   0.00000  Uiso   1.00
H607   H     0.73236   0.85761   0.45535   0.00000  Uiso   1.00
H608   H     0.97516   0.85986   0.10678   0.00000  Uiso   1.00
H609   H     0.69151   0.80681   0.39322   0.00000  Uiso   1.00
H610   H     0.99700   0.79975   0.47488   0.00000  Uiso   1.00
H611   H     0.66967   0.86692   0.02512   0.00000  Uiso   1.00
H612   H     0.85280   0.82526   0.08370   0.00000  Uiso   1.00
H613   H     0.81387   0.84141   0.41630   0.00000  Uiso   1.00
H614   H     0.92596   0.96020   0.28669   0.00000  Uiso   1.00
N615   N     0.78403   0.83334   0.24999   0.00000  Uiso   1.00
N616   N     0.88264   0.83332   0.25001   0.00000  Uiso   1.00
N617   N     0.79457   0.76154   0.12902   0.00000  Uiso   1.00
N618   N     0.87209   0.90513   0.37098   0.00000  Uiso   1.00
N619   N     0.91382   0.70795   0.29614   0.00000  Uiso   1.00
N620   N     0.75285   0.95872   0.20386   0.00000  Uiso   1.00
N621   N     0.74431   0.75498   0.33091   0.00000  Uiso   1.00
N622   N     0.92235   0.91169   0.16909   0.00000  Uiso   1.00
O623   O     0.70625   0.77322   0.25000   0.00000  Uiso   1.00
O624   O     0.96042   0.89345   0.25000   0.00000  Uiso   1.00
O625   O     0.96039   0.77321   0.25001   0.00000  Uiso   1.00
O626   O     0.70628   0.89346   0.25000   0.00000  Uiso   1.00
O627   O     0.68519   0.83334   0.31492   0.00000  Uiso   1.00
O628   O     0.98148   0.83332   0.18509   0.00000  Uiso   1.00
O629   O     0.93933   0.83333   0.31492   0.00000  Uiso   1.00
O630   O     0.72733   0.83333   0.18508   0.00000  Uiso   1.00
C631   C     0.33302   0.08743   0.75089   0.00000  Uiso   1.00
C632   C     0.04190   0.02232   0.72971   0.00000  Uiso   1.00
C633   C     0.00062   0.29055   0.74862   0.00000  Uiso   1.00
C634   C     0.33271   0.04278   0.75138   0.00000  Uiso   1.00
C635   C     0.18398   0.14064   0.77774   0.00000  Uiso   1.00
C636   C     0.14935   0.19269   0.72226   0.00000  Uiso   1.00
C637   C     0.13449   0.14050   0.77780   0.00000  Uiso   1.00
C638   C     0.19884   0.19284   0.72220   0.00000  Uiso   1.00
C639   C     0.30624   0.16733   0.83612   0.00000  Uiso   1.00
C640   C     0.02709   0.16600   0.66388   0.00000  Uiso   1.00
C641   C     0.29125   0.16643   0.88559   0.00000  Uiso   1.00
C642   C     0.00031   0.24590   0.74912   0.00000  Uiso   1.00
C643   C     0.04208   0.16690   0.61441   0.00000  Uiso   1.00
C644   C     0.30562   0.14487   0.95641   0.00000  Uiso   1.00
C645   C     0.02771   0.18846   0.54359   0.00000  Uiso   1.00
C646   C     0.32175   0.14947   0.90996   0.00000  Uiso   1.00
C647   C     0.01158   0.18386   0.59004   0.00000  Uiso   1.00
C648   C     0.24469   0.17996   0.90849   0.00000  Uiso   1.00
C649   C     0.08864   0.15338   0.59151   0.00000  Uiso   1.00
C650   C     0.22490   0.16796   0.95402   0.00000  Uiso   1.00
C651   C     0.10843   0.16537   0.54598   0.00000  Uiso   1.00
C652   C     0.25750   0.15374   0.97856   0.00000  Uiso   1.00
C653   C     0.19437   0.15742   0.54754   0.00000  Uiso   1.00
C654   C     0.07583   0.17960   0.52144   0.00000  Uiso   1.00
C655   C     0.17447   0.16988   0.97628   0.00000  Uiso   1.00
C656   C     0.15886   0.16345   0.52372   0.00000  Uiso   1.00
C657   C     0.11064   0.12088   0.61233   0.00000  Uiso   1.00
C658   C     0.22269   0.21246   0.88767   0.00000  Uiso   1.00
C659   C     0.10278   0.11174   0.80725   0.00000  Uiso   1.00
C660   C     0.23055   0.22159   0.69275   0.00000  Uiso   1.00
C661   C     0.13897   0.17592   0.95246   0.00000  Uiso   1.00
C662   C     0.24220   0.15000   0.52518   0.00000  Uiso   1.00
C663   C     0.09113   0.18333   0.97482   0.00000  Uiso   1.00
C664   C     0.29041   0.02049   0.77223   0.00000  Uiso   1.00
C665   C     0.04292   0.31284   0.72777   0.00000  Uiso   1.00
C666   C     0.29144   0.31101   0.77029   0.00000  Uiso   1.00
Cu667  Cu    0.04689   0.16667   0.75000   0.00000  Uiso   1.00
Cu668  Cu    0.28645   0.16666   0.75000   0.00000  Uiso   1.00
H669   H     0.26764   0.14239   0.54465   0.00000  Uiso   1.00
H670   H     0.07404   0.03980   0.71331   0.00000  Uiso   1.00
H671   H     0.19684   0.11986   0.79986   0.00000  Uiso   1.00
H672   H     0.13649   0.21347   0.70014   0.00000  Uiso   1.00
H673   H     0.25399   0.05400   0.82489   0.00000  Uiso   1.00
H674   H     0.21866   0.02035   0.80731   0.00000  Uiso   1.00
H675   H     0.07935   0.27934   0.67512   0.00000  Uiso   1.00
H676   H     0.11467   0.31298   0.69271   0.00000  Uiso   1.00
H677   H     0.06569   0.19094   0.95535   0.00000  Uiso   1.00
H678   H     0.30849   0.19319   0.60678   0.00000  Uiso   1.00
H679   H     0.02484   0.14014   0.89322   0.00000  Uiso   1.00
H680   H     0.33033   0.13308   0.97488   0.00000  Uiso   1.00
H681   H     0.00300   0.20025   0.52512   0.00000  Uiso   1.00
H682   H     0.18613   0.15859   0.58370   0.00000  Uiso   1.00
H683   H     0.14720   0.17474   0.91630   0.00000  Uiso   1.00
H684   H     0.25929   0.29353   0.78669   0.00000  Uiso   1.00
N685   N     0.11736   0.16668   0.74999   0.00000  Uiso   1.00
N686   N     0.21597   0.16666   0.75001   0.00000  Uiso   1.00
N687   N     0.12791   0.09487   0.62902   0.00000  Uiso   1.00
N688   N     0.20542   0.23846   0.87098   0.00000  Uiso   1.00
N689   N     0.24715   0.04128   0.79614   0.00000  Uiso   1.00
N690   N     0.08618   0.29205   0.70386   0.00000  Uiso   1.00
N691   N     0.07765   0.08831   0.83091   0.00000  Uiso   1.00
N692   N     0.25569   0.24502   0.66909   0.00000  Uiso   1.00
O693   O     0.03958   0.10655   0.75000   0.00000  Uiso   1.00
O694   O     0.29375   0.22678   0.75000   0.00000  Uiso   1.00
O695   O     0.29372   0.10654   0.75001   0.00000  Uiso   1.00
O696   O     0.03961   0.22679   0.75000   0.00000  Uiso   1.00
O697   O     0.01852   0.16668   0.81492   0.00000  Uiso   1.00
O698   O     0.31481   0.16666   0.68509   0.00000  Uiso   1.00
O699   O     0.27267   0.16667   0.81492   0.00000  Uiso   1.00
O700   O     0.06067   0.16667   0.68508   0.00000  Uiso   1.00
C701   C     0.66636   0.08743   0.75089   0.00000  Uiso   1.00
C702   C     0.37523   0.02232   0.72971   0.00000  Uiso   1.00
C703   C     0.33395   0.29055   0.74862   0.00000  Uiso   1.00
C704   C     0.66605   0.04278   0.75138   0.00000  Uiso   1.00
C705   C     0.51732   0.14064   0.77774   0.00000  Uiso   1.00
C706   C     0.48268   0.19269   0.72226   0.00000  Uiso   1.00
C707   C     0.46782   0.14050   0.77780   0.00000  Uiso   1.00
C708   C     0.53218   0.19284   0.72220   0.00000  Uiso   1.00
C709   C     0.63958   0.16733   0.83612   0.00000  Uiso   1.00
C710   C     0.36042   0.16600   0.66388   0.00000  Uiso   1.00
C711   C     0.62459   0.16643   0.88559   0.00000  Uiso   1.00
C712   C     0.33364   0.24590   0.74912   0.00000  Uiso   1.00
C713   C     0.37541   0.16690   0.61441   0.00000  Uiso   1.00
C714   C     0.63896   0.14487   0.95641   0.00000  Uiso   1.00
C715   C     0.36104   0.18846   0.54359   0.00000  Uiso   1.00
C716   C     0.65508   0.14947   0.90996   0.00000  Uiso   1.00
C717   C     0.34492   0.18386   0.59004   0.00000  Uiso   1.00
C718   C     0.57802   0.17996   0.90849   0.00000  Uiso   1.00
C719   C     0.42198   0.15338   0.59151   0.00000  Uiso   1.00
C720   C     0.55824   0.16796   0.95402   0.00000  Uiso   1.00
C721   C     0.44176   0.16537   0.54598   0.00000  Uiso   1.00
C722   C     0.59084   0.15374   0.97856   0.00000  Uiso   1.00
C723   C     0.52770   0.15742   0.54754   0.00000  Uiso   1.00
C724   C     0.40916   0.17960   0.52144   0.00000  Uiso   1.00
C725   C     0.50780   0.16988   0.97628   0.00000  Uiso   1.00
C726   C     0.49220   0.16345   0.52372   0.00000  Uiso   1.00
C727   C     0.44398   0.12088   0.61233   0.00000  Uiso   1.00
C728   C     0.55602   0.21246   0.88767   0.00000  Uiso   1.00
C729   C     0.43611   0.11174   0.80725   0.00000  Uiso   1.00
C730   C     0.56389   0.22159   0.69275   0.00000  Uiso   1.00
C731   C     0.47230   0.17592   0.95246   0.00000  Uiso   1.00
C732   C     0.57553   0.15000   0.52518   0.00000  Uiso   1.00
C733   C     0.42446   0.18333   0.97482   0.00000  Uiso   1.00
C734   C     0.62375   0.02049   0.77223   0.00000  Uiso   1.00
C735   C     0.37625   0.31284   0.72777   0.00000  Uiso   1.00
C736   C     0.62477   0.31101   0.77029   0.00000  Uiso   1.00
Cu737  Cu    0.38022   0.16667   0.75000   0.00000  Uiso   1.00
Cu738  Cu    0.61978   0.16666   0.75000   0.00000  Uiso   1.00
H739   H     0.60098   0.14239   0.54465   0.00000  Uiso   1.00
H740   H     0.40737   0.03980   0.71331   0.00000  Uiso   1.00
H741   H     0.53018   0.11986   0.79986   0.00000  Uiso   1.00
H742   H     0.46982   0.21347   0.70014   0.00000  Uiso   1.00
H743   H     0.58733   0.05400   0.82489   0.00000  Uiso   1.00
H744   H     0.55199   0.02035   0.80731   0.00000  Uiso   1.00
H745   H     0.41268   0.27934   0.67512   0.00000  Uiso   1.00
H746   H     0.44801   0.31298   0.69271   0.00000  Uiso   1.00
H747   H     0.39902   0.19094   0.95535   0.00000  Uiso   1.00
H748   H     0.64182   0.19319   0.60678   0.00000  Uiso   1.00
H749   H     0.35818   0.14014   0.89322   0.00000  Uiso   1.00
H750   H     0.66367   0.13308   0.97488   0.00000  Uiso   1.00
H751   H     0.33633   0.20025   0.52512   0.00000  Uiso   1.00
H752   H     0.51946   0.15859   0.58370   0.00000  Uiso   1.00
H753   H     0.48054   0.17474   0.91630   0.00000  Uiso   1.00
H754   H     0.59263   0.29353   0.78669   0.00000  Uiso   1.00
N755   N     0.45069   0.16668   0.74999   0.00000  Uiso   1.00
N756   N     0.54931   0.16666   0.75001   0.00000  Uiso   1.00
N757   N     0.46124   0.09487   0.62902   0.00000  Uiso   1.00
N758   N     0.53876   0.23846   0.87098   0.00000  Uiso   1.00
N759   N     0.58048   0.04128   0.79614   0.00000  Uiso   1.00
N760   N     0.41952   0.29205   0.70386   0.00000  Uiso   1.00
N761   N     0.41098   0.08831   0.83091   0.00000  Uiso   1.00
N762   N     0.58902   0.24502   0.66909   0.00000  Uiso   1.00
O763   O     0.37291   0.10655   0.75000   0.00000  Uiso   1.00
O764   O     0.62709   0.22678   0.75000   0.00000  Uiso   1.00
O765   O     0.62706   0.10654   0.75001   0.00000  Uiso   1.00
O766   O     0.37294   0.22679   0.75000   0.00000  Uiso   1.00
O767   O     0.35186   0.16668   0.81492   0.00000  Uiso   1.00
O768   O     0.64814   0.16666   0.68509   0.00000  Uiso   1.00
O769   O     0.60600   0.16667   0.81492   0.00000  Uiso   1.00
O770   O     0.39400   0.16667   0.68508   0.00000  Uiso   1.00
C771   C     0.99969   0.08743   0.75089   0.00000  Uiso   1.00
C772   C     0.70856   0.02232   0.72971   0.00000  Uiso   1.00
C773   C     0.66728   0.29055   0.74862   0.00000  Uiso   1.00
C774   C     0.99938   0.04278   0.75138   0.00000  Uiso   1.00
C775   C     0.85065   0.14064   0.77774   0.00000  Uiso   1.00
C776   C     0.81602   0.19269   0.72226   0.00000  Uiso   1.00
C777   C     0.80116   0.14050   0.77780   0.00000  Uiso   1.00
C778   C     0.86551   0.19284   0.72220   0.00000  Uiso   1.00
C779   C     0.97291   0.16733   0.83612   0.00000  Uiso   1.00
C780   C     0.69376   0.16600   0.66388   0.00000  Uiso   1.00
C781   C     0.95792   0.16643   0.88559   0.00000  Uiso   1.00
C782   C     0.66698   0.24590   0.74912   0.00000  Uiso   1.00
C783   C     0.70874   0.16690   0.61441   0.00000  Uiso   1.00
C784   C     0.97229   0.14487   0.95641   0.00000  Uiso   1.00
C785   C     0.69438   0.18846   0.54359   0.00000  Uiso   1.00
C786   C     0.98841   0.14947   0.90996   0.00000  Uiso   1.00
C787   C     0.67825   0.18386   0.59004   0.00000  Uiso   1.00
C788   C     0.91135   0.17996   0.90849   0.00000  Uiso   1.00
C789   C     0.75531   0.15338   0.59151   0.00000  Uiso   1.00
C790   C     0.89157   0.16796   0.95402   0.00000  Uiso   1.00
C791   C     0.77510   0.16537   0.54598   0.00000  Uiso   1.00
C792   C     0.92417   0.15374   0.97856   0.00000  Uiso   1.00
C793   C     0.86103   0.15742   0.54754   0.00000  Uiso   1.00
C794   C     0.74250   0.17960   0.52144   0.00000  Uiso   1.00
C795   C     0.84114   0.16988   0.97628   0.00000  Uiso   1.00
C796   C     0.82553   0.16345   0.52372   0.00000  Uiso   1.00
C797   C     0.77731   0.12088   0.61233   0.00000  Uiso   1.00
C798   C     0.88935   0.21246   0.88767   0.00000  Uiso   1.00
C799   C     0.76944   0.11174   0.80725   0.00000  Uiso   1.00
C800   C     0.89722   0.22159   0.69275   0.00000  Uiso   1.00
C801   C     0.80563   0.17592   0.95246   0.00000  Uiso   1.00
C802   C     0.90887   0.15000   0.52518   0.00000  Uiso   1.00
C803   C     0.75780   0.18333   0.97482   0.00000  Uiso   1.00
C804   C     0.95708   0.02049   0.77223   0.00000  Uiso   1.00
C805   C     0.70959   0.31284   0.72777   0.00000  Uiso   1.00
C806   C     0.95810   0.31101   0.77029   0.00000  Uiso   1.00
Cu807  Cu    0.71355   0.16667   0.75000   0.00000  Uiso   1.00
Cu808  Cu    0.95311   0.16666   0.75000   0.00000  Uiso   1.00
H809   H     0.93431   0.14239   0.54465   0.00000  Uiso   1.00
H810   H     0.74071   0.03980   0.71331   0.00000  Uiso   1.00
H811   H     0.86351   0.11986   0.79986   0.00000  Uiso   1.00
H812   H     0.80315   0.21347   0.70014   0.00000  Uiso   1.00
H813   H     0.92066   0.05400   0.82489   0.00000  Uiso   1.00
H814   H     0.88532   0.02035   0.80731   0.00000  Uiso   1.00
H815   H     0.74602   0.27934   0.67512   0.00000  Uiso   1.00
H816   H     0.78134   0.31298   0.69271   0.00000  Uiso   1.00
H817   H     0.73236   0.19094   0.95535   0.00000  Uiso   1.00
H818   H     0.97516   0.19319   0.60678   0.00000  Uiso   1.00
H819   H     0.69151   0.14014   0.89322   0.00000  Uiso   1.00
H820   H     0.99700   0.13308   0.97488   0.00000  Uiso   1.00
H821   H     0.66967   0.20025   0.52512   0.00000  Uiso   1.00
H822   H     0.85280   0.15859   0.58370   0.00000  Uiso   1.00
H823   H     0.81387   0.17474   0.91630   0.00000  Uiso   1.00
H824   H     0.92596   0.29353   0.78669   0.00000  Uiso   1.00
N825   N     0.78403   0.16668   0.74999   0.00000  Uiso   1.00
N826   N     0.88264   0.16666   0.75001   0.00000  Uiso   1.00
N827   N     0.79457   0.09487   0.62902   0.00000  Uiso   1.00
N828   N     0.87209   0.23846   0.87098   0.00000  Uiso   1.00
N829   N     0.91382   0.04128   0.79614   0.00000  Uiso   1.00
N830   N     0.75285   0.29205   0.70386   0.00000  Uiso   1.00
N831   N     0.74431   0.08831   0.83091   0.00000  Uiso   1.00
N832   N     0.92235   0.24502   0.66909   0.00000  Uiso   1.00
O833   O     0.70625   0.10655   0.75000   0.00000  Uiso   1.00
O834   O     0.96042   0.22678   0.75000   0.00000  Uiso   1.00
O835   O     0.96039   0.10654   0.75001   0.00000  Uiso   1.00
O836   O     0.70628   0.22679   0.75000   0.00000  Uiso   1.00
O837   O     0.68519   0.16668   0.81492   0.00000  Uiso   1.00
O838   O     0.98148   0.16666   0.68509   0.00000  Uiso   1.00
O839   O     0.93933   0.16667   0.81492   0.00000  Uiso   1.00
O840   O     0.72733   0.16667   0.68508   0.00000  Uiso   1.00
C841   C     0.33302   0.42076   0.75089   0.00000  Uiso   1.00
C842   C     0.04190   0.35565   0.72971   0.00000  Uiso   1.00
C843   C     0.00062   0.62389   0.74862   0.00000  Uiso   1.00
C844   C     0.33271   0.37611   0.75138   0.00000  Uiso   1.00
C845   C     0.18398   0.47398   0.77774   0.00000  Uiso   1.00
C846   C     0.14935   0.52602   0.72226   0.00000  Uiso   1.00
C847   C     0.13449   0.47383   0.77780   0.00000  Uiso   1.00
C848   C     0.19884   0.52617   0.72220   0.00000  Uiso   1.00
C849   C     0.30624   0.50067   0.83612   0.00000  Uiso   1.00
C850   C     0.02709   0.49933   0.66388   0.00000  Uiso   1.00
C851   C     0.29125   0.49977   0.88559   0.00000  Uiso   1.00
C852   C     0.00031   0.57924   0.74912   0.00000  Uiso   1.00
C853   C     0.04208   0.50023   0.61441   0.00000  Uiso   1.00
C854   C     0.30562   0.47821   0.95641   0.00000  Uiso   1.00
C855   C     0.02771   0.52179   0.54359   0.00000  Uiso   1.00
C856   C     0.32175   0.48281   0.90996   0.00000  Uiso   1.00
C857   C     0.01158   0.51719   0.59004   0.00000  Uiso   1.00
C858   C     0.24469   0.51329   0.90849   0.00000  Uiso   1.00
C859   C     0.08864   0.48671   0.59151   0.00000  Uiso   1.00
C860   C     0.22490   0.50129   0.95402   0.00000  Uiso   1.00
C861   C     0.10843   0.49871   0.54598   0.00000  Uiso   1.00
C862   C     0.25750   0.48707   0.97856   0.00000  Uiso   1.00
C863   C     0.19437   0.49075   0.54754   0.00000  Uiso   1.00
C864   C     0.07583   0.51293   0.52144   0.00000  Uiso   1.00
C865   C     0.17447   0.50321   0.97628   0.00000  Uiso   1.00
C866   C     0.15886   0.49679   0.52372   0.00000  Uiso   1.00
C867   C     0.11064   0.45421   0.61233   0.00000  Uiso   1.00
C868   C     0.22269   0.54579   0.88767   0.00000  Uiso   1.00
C869   C     0.10278   0.44508   0.80725   0.00000  Uiso   1.00
C870   C     0.23055   0.55492   0.69275   0.00000  Uiso   1.00
C871   C     0.13897   0.50925   0.95246   0.00000  Uiso   1.00
C872   C     0.24220   0.48333   0.52518   0.00000  Uiso   1.00
C873   C     0.09113   0.51667   0.97482   0.00000  Uiso   1.00
C874   C     0.29041   0.35382   0.77223   0.00000  Uiso   1.00
C875   C     0.04292   0.64618   0.72777   0.00000  Uiso   1.00
C876   C     0.29144   0.64435   0.77029   0.00000  Uiso   1.00
Cu877  Cu    0.04689   0.50001   0.75000   0.00000  Uiso   1.00
Cu878  Cu    0.28645   0.49999   0.75000   0.00000  Uiso   1.00
H879   H     0.26764   0.47573   0.54465   0.00000  Uiso   1.00
H880   H     0.07404   0.37314   0.71331   0.00000  Uiso   1.00
H881   H     0.19684   0.45319   0.79986   0.00000  Uiso   1.00
H882   H     0.13649   0.54681   0.70014   0.00000  Uiso   1.00
H883   H     0.25399   0.38734   0.82489   0.00000  Uiso   1.00
H884   H     0.21866   0.35369   0.80731   0.00000  Uiso   1.00
H885   H     0.07935   0.61267   0.67512   0.00000  Uiso   1.00
H886   H     0.11467   0.64631   0.69271   0.00000  Uiso   1.00
H887   H     0.06569   0.52427   0.95535   0.00000  Uiso   1.00
H888   H     0.30849   0.52653   0.60678   0.00000  Uiso   1.00
H889   H     0.02484   0.47347   0.89322   0.00000  Uiso   1.00
H890   H     0.33033   0.46641   0.97488   0.00000  Uiso   1.00
H891   H     0.00300   0.53359   0.52512   0.00000  Uiso   1.00
H892   H     0.18613   0.49193   0.58370   0.00000  Uiso   1.00
H893   H     0.14720   0.50807   0.91630   0.00000  Uiso   1.00
H894   H     0.25929   0.62686   0.78669   0.00000  Uiso   1.00
N895   N     0.11736   0.50001   0.74999   0.00000  Uiso   1.00
N896   N     0.21597   0.49999   0.75001   0.00000  Uiso   1.00
N897   N     0.12791   0.42820   0.62902   0.00000  Uiso   1.00
N898   N     0.20542   0.57180   0.87098   0.00000  Uiso   1.00
N899   N     0.24715   0.37462   0.79614   0.00000  Uiso   1.00
N900   N     0.08618   0.62538   0.70386   0.00000  Uiso   1.00
N901   N     0.07765   0.42164   0.83091   0.00000  Uiso   1.00
N902   N     0.25569   0.57836   0.66909   0.00000  Uiso   1.00
O903   O     0.03958   0.43989   0.75000   0.00000  Uiso   1.00
O904   O     0.29375   0.56011   0.75000   0.00000  Uiso   1.00
O905   O     0.29372   0.43988   0.75001   0.00000  Uiso   1.00
O906   O     0.03961   0.56012   0.75000   0.00000  Uiso   1.00
O907   O     0.01852   0.50001   0.81492   0.00000  Uiso   1.00
O908   O     0.31481   0.49999   0.68509   0.00000  Uiso   1.00
O909   O     0.27267   0.50000   0.81492   0.00000  Uiso   1.00
O910   O     0.06067   0.50000   0.68508   0.00000  Uiso   1.00
C911   C     0.66636   0.42076   0.75089   0.00000  Uiso   1.00
C912   C     0.37523   0.35565   0.72971   0.00000  Uiso   1.00
C913   C     0.33395   0.62389   0.74862   0.00000  Uiso   1.00
C914   C     0.66605   0.37611   0.75138   0.00000  Uiso   1.00
C915   C     0.51732   0.47398   0.77774   0.00000  Uiso   1.00
C916   C     0.48268   0.52602   0.72226   0.00000  Uiso   1.00
C917   C     0.46782   0.47383   0.77780   0.00000  Uiso   1.00
C918   C     0.53218   0.52617   0.72220   0.00000  Uiso   1.00
C919   C     0.63958   0.50067   0.83612   0.00000  Uiso   1.00
C920   C     0.36042   0.49933   0.66388   0.00000  Uiso   1.00
C921   C     0.62459   0.49977   0.88559   0.00000  Uiso   1.00
C922   C     0.33364   0.57924   0.74912   0.00000  Uiso   1.00
C923   C     0.37541   0.50023   0.61441   0.00000  Uiso   1.00
C924   C     0.63896   0.47821   0.95641   0.00000  Uiso   1.00
C925   C     0.36104   0.52179   0.54359   0.00000  Uiso   1.00
C926   C     0.65508   0.48281   0.90996   0.00000  Uiso   1.00
C927   C     0.34492   0.51719   0.59004   0.00000  Uiso   1.00
C928   C     0.57802   0.51329   0.90849   0.00000  Uiso   1.00
C929   C     0.42198   0.48671   0.59151   0.00000  Uiso   1.00
C930   C     0.55824   0.50129   0.95402   0.00000  Uiso   1.00
C931   C     0.44176   0.49871   0.54598   0.00000  Uiso   1.00
C932   C     0.59084   0.48707   0.97856   0.00000  Uiso   1.00
C933   C     0.52770   0.49075   0.54754   0.00000  Uiso   1.00
C934   C     0.40916   0.51293   0.52144   0.00000  Uiso   1.00
C935   C     0.50780   0.50321   0.97628   0.00000  Uiso   1.00
C936   C     0.49220   0.49679   0.52372   0.00000  Uiso   1.00
C937   C     0.44398   0.45421   0.61233   0.00000  Uiso   1.00
C938   C     0.55602   0.54579   0.88767   0.00000  Uiso   1.00
C939   C     0.43611   0.44508   0.80725   0.00000  Uiso   1.00
C940   C     0.56389   0.55492   0.69275   0.00000  Uiso   1.00
C941   C     0.47230   0.50925   0.95246   0.00000  Uiso   1.00
C942   C     0.57553   0.48333   0.52518   0.00000  Uiso   1.00
C943   C     0.42446   0.51667   0.97482   0.00000  Uiso   1.00
C944   C     0.62375   0.35382   0.77223   0.00000  Uiso   1.00
C945   C     0.37625   0.64618   0.72777   0.00000  Uiso   1.00
C946   C     0.62477   0.64435   0.77029   0.00000  Uiso   1.00
Cu947  Cu    0.38022   0.50001   0.75000   0.00000  Uiso   1.00
Cu948  Cu    0.61978   0.49999   0.75000   0.00000  Uiso   1.00
H949   H     0.60098   0.47573   0.54465   0.00000  Uiso   1.00
H950   H     0.40737   0.37314   0.71331   0.00000  Uiso   1.00
H951   H     0.53018   0.45319   0.79986   0.00000  Uiso   1.00
H952   H     0.46982   0.54681   0.70014   0.00000  Uiso   1.00
H953   H     0.58733   0.38734   0.82489   0.00000  Uiso   1.00
H954   H     0.55199   0.35369   0.80731   0.00000  Uiso   1.00
H955   H     0.41268   0.61267   0.67512   0.00000  Uiso   1.00
H956   H     0.44801   0.64631   0.69271   0.00000  Uiso   1.00
H957   H     0.39902   0.52427   0.95535   0.00000  Uiso   1.00
H958   H     0.64182   0.52653   0.60678   0.00000  Uiso   1.00
H959   H     0.35818   0.47347   0.89322   0.00000  Uiso   1.00
H960   H     0.66367   0.46641   0.97488   0.00000  Uiso   1.00
H961   H     0.33633   0.53359   0.52512   0.00000  Uiso   1.00
H962   H     0.51946   0.49193   0.58370   0.00000  Uiso   1.00
H963   H     0.48054   0.50807   0.91630   0.00000  Uiso   1.00
H964   H     0.59263   0.62686   0.78669   0.00000  Uiso   1.00
N965   N     0.45069   0.50001   0.74999   0.00000  Uiso   1.00
N966   N     0.54931   0.49999   0.75001   0.00000  Uiso   1.00
N967   N     0.46124   0.42820   0.62902   0.00000  Uiso   1.00
N968   N     0.53876   0.57180   0.87098   0.00000  Uiso   1.00
N969   N     0.58048   0.37462   0.79614   0.00000  Uiso   1.00
N970   N     0.41952   0.62538   0.70386   0.00000  Uiso   1.00
N971   N     0.41098   0.42164   0.83091   0.00000  Uiso   1.00
N972   N     0.58902   0.57836   0.66909   0.00000  Uiso   1.00
O973   O     0.37291   0.43989   0.75000   0.00000  Uiso   1.00
O974   O     0.62709   0.56011   0.75000   0.00000  Uiso   1.00
O975   O     0.62706   0.43988   0.75001   0.00000  Uiso   1.00
O976   O     0.37294   0.56012   0.75000   0.00000  Uiso   1.00
O977   O     0.35186   0.50001   0.81492   0.00000  Uiso   1.00
O978   O     0.64814   0.49999   0.68509   0.00000  Uiso   1.00
O979   O     0.60600   0.50000   0.81492   0.00000  Uiso   1.00
O980   O     0.39400   0.50000   0.68508   0.00000  Uiso   1.00
C981   C     0.99969   0.42076   0.75089   0.00000  Uiso   1.00
C982   C     0.70856   0.35565   0.72971   0.00000  Uiso   1.00
C983   C     0.66728   0.62389   0.74862   0.00000  Uiso   1.00
C984   C     0.99938   0.37611   0.75138   0.00000  Uiso   1.00
C985   C     0.85065   0.47398   0.77774   0.00000  Uiso   1.00
C986   C     0.81602   0.52602   0.72226   0.00000  Uiso   1.00
C987   C     0.80116   0.47383   0.77780   0.00000  Uiso   1.00
C988   C     0.86551   0.52617   0.72220   0.00000  Uiso   1.00
C989   C     0.97291   0.50067   0.83612   0.00000  Uiso   1.00
C990   C     0.69376   0.49933   0.66388   0.00000  Uiso   1.00
C991   C     0.95792   0.49977   0.88559   0.00000  Uiso   1.00
C992   C     0.66698   0.57924   0.74912   0.00000  Uiso   1.00
C993   C     0.70874   0.50023   0.61441   0.00000  Uiso   1.00
C994   C     0.97229   0.47821   0.95641   0.00000  Uiso   1.00
C995   C     0.69438   0.52179   0.54359   0.00000  Uiso   1.00
C996   C     0.98841   0.48281   0.90996   0.00000  Uiso   1.00
C997   C     0.67825   0.51719   0.59004   0.00000  Uiso   1.00
C998   C     0.91135   0.51329   0.90849   0.00000  Uiso   1.00
C999   C     0.75531   0.48671   0.59151   0.00000  Uiso   1.00
C1000  C     0.89157   0.50129   0.95402   0.00000  Uiso   1.00
C1001  C     0.77510   0.49871   0.54598   0.00000  Uiso   1.00
C1002  C     0.92417   0.48707   0.97856   0.00000  Uiso   1.00
C1003  C     0.86103   0.49075   0.54754   0.00000  Uiso   1.00
C1004  C     0.74250   0.51293   0.52144   0.00000  Uiso   1.00
C1005  C     0.84114   0.50321   0.97628   0.00000  Uiso   1.00
C1006  C     0.82553   0.49679   0.52372   0.00000  Uiso   1.00
C1007  C     0.77731   0.45421   0.61233   0.00000  Uiso   1.00
C1008  C     0.88935   0.54579   0.88767   0.00000  Uiso   1.00
C1009  C     0.76944   0.44508   0.80725   0.00000  Uiso   1.00
C1010  C     0.89722   0.55492   0.69275   0.00000  Uiso   1.00
C1011  C     0.80563   0.50925   0.95246   0.00000  Uiso   1.00
C1012  C     0.90887   0.48333   0.52518   0.00000  Uiso   1.00
C1013  C     0.75780   0.51667   0.97482   0.00000  Uiso   1.00
C1014  C     0.95708   0.35382   0.77223   0.00000  Uiso   1.00
C1015  C     0.70959   0.64618   0.72777   0.00000  Uiso   1.00
C1016  C     0.95810   0.64435   0.77029   0.00000  Uiso   1.00
Cu1017 Cu    0.71355   0.50001   0.75000   0.00000  Uiso   1.00
Cu1018 Cu    0.95311   0.49999   0.75000   0.00000  Uiso   1.00
H1019  H     0.93431   0.47573   0.54465   0.00000  Uiso   1.00
H1020  H     0.74071   0.37314   0.71331   0.00000  Uiso   1.00
H1021  H     0.86351   0.45319   0.79986   0.00000  Uiso   1.00
H1022  H     0.80315   0.54681   0.70014   0.00000  Uiso   1.00
H1023  H     0.92066   0.38734   0.82489   0.00000  Uiso   1.00
H1024  H     0.88532   0.35369   0.80731   0.00000  Uiso   1.00
H1025  H     0.74602   0.61267   0.67512   0.00000  Uiso   1.00
H1026  H     0.78134   0.64631   0.69271   0.00000  Uiso   1.00
H1027  H     0.73236   0.52427   0.95535   0.00000  Uiso   1.00
H1028  H     0.97516   0.52653   0.60678   0.00000  Uiso   1.00
H1029  H     0.69151   0.47347   0.89322   0.00000  Uiso   1.00
H1030  H     0.99700   0.46641   0.97488   0.00000  Uiso   1.00
H1031  H     0.66967   0.53359   0.52512   0.00000  Uiso   1.00
H1032  H     0.85280   0.49193   0.58370   0.00000  Uiso   1.00
H1033  H     0.81387   0.50807   0.91630   0.00000  Uiso   1.00
H1034  H     0.92596   0.62686   0.78669   0.00000  Uiso   1.00
N1035  N     0.78403   0.50001   0.74999   0.00000  Uiso   1.00
N1036  N     0.88264   0.49999   0.75001   0.00000  Uiso   1.00
N1037  N     0.79457   0.42820   0.62902   0.00000  Uiso   1.00
N1038  N     0.87209   0.57180   0.87098   0.00000  Uiso   1.00
N1039  N     0.91382   0.37462   0.79614   0.00000  Uiso   1.00
N1040  N     0.75285   0.62538   0.70386   0.00000  Uiso   1.00
N1041  N     0.74431   0.42164   0.83091   0.00000  Uiso   1.00
N1042  N     0.92235   0.57836   0.66909   0.00000  Uiso   1.00
O1043  O     0.70625   0.43989   0.75000   0.00000  Uiso   1.00
O1044  O     0.96042   0.56011   0.75000   0.00000  Uiso   1.00
O1045  O     0.96039   0.43988   0.75001   0.00000  Uiso   1.00
O1046  O     0.70628   0.56012   0.75000   0.00000  Uiso   1.00
O1047  O     0.68519   0.50001   0.81492   0.00000  Uiso   1.00
O1048  O     0.98148   0.49999   0.68509   0.00000  Uiso   1.00
O1049  O     0.93933   0.50000   0.81492   0.00000  Uiso   1.00
O1050  O     0.72733   0.50000   0.68508   0.00000  Uiso   1.00
C1051  C     0.33302   0.75410   0.75089   0.00000  Uiso   1.00
C1052  C     0.04190   0.68899   0.72971   0.00000  Uiso   1.00
C1053  C     0.00062   0.95722   0.74862   0.00000  Uiso   1.00
C1054  C     0.33271   0.70945   0.75138   0.00000  Uiso   1.00
C1055  C     0.18398   0.80731   0.77774   0.00000  Uiso   1.00
C1056  C     0.14935   0.85936   0.72226   0.00000  Uiso   1.00
C1057  C     0.13449   0.80716   0.77780   0.00000  Uiso   1.00
C1058  C     0.19884   0.85950   0.72220   0.00000  Uiso   1.00
C1059  C     0.30624   0.83400   0.83612   0.00000  Uiso   1.00
C1060  C     0.02709   0.83267   0.66388   0.00000  Uiso   1.00
C1061  C     0.29125   0.83310   0.88559   0.00000  Uiso   1.00
C1062  C     0.00031   0.91257   0.74912   0.00000  Uiso   1.00
C1063  C     0.04208   0.83357   0.61441   0.00000  Uiso   1.00
C1064  C     0.30562   0.81154   0.95641   0.00000  Uiso   1.00
C1065  C     0.02771   0.85513   0.54359   0.00000  Uiso   1.00
C1066  C     0.32175   0.81614   0.90996   0.00000  Uiso   1.00
C1067  C     0.01158   0.85053   0.59004   0.00000  Uiso   1.00
C1068  C     0.24469   0.84662   0.90849   0.00000  Uiso   1.00
C1069  C     0.08864   0.82004   0.59151   0.00000  Uiso   1.00
C1070  C     0.22490   0.83463   0.95402   0.00000  Uiso   1.00
C1071  C     0.10843   0.83204   0.54598   0.00000  Uiso   1.00
C1072  C     0.25750   0.82040   0.97856   0.00000  Uiso   1.00
C1073  C     0.19437   0.82408   0.54754   0.00000  Uiso   1.00
C1074  C     0.07583   0.84626   0.52144   0.00000  Uiso   1.00
C1075  C     0.17447   0.83655   0.97628   0.00000  Uiso   1.00
C1076  C     0.15886   0.83012   0.52372   0.00000  Uiso   1.00
C1077  C     0.11064   0.78754   0.61233   0.00000  Uiso   1.00
C1078  C     0.22269   0.87912   0.88767   0.00000  Uiso   1.00
C1079  C     0.10278   0.77841   0.80725   0.00000  Uiso   1.00
C1080  C     0.23055   0.88826   0.69275   0.00000  Uiso   1.00
C1081  C     0.13897   0.84258   0.95246   0.00000  Uiso   1.00
C1082  C     0.24220   0.81667   0.52518   0.00000  Uiso   1.00
C1083  C     0.09113   0.85000   0.97482   0.00000  Uiso   1.00
C1084  C     0.29041   0.68716   0.77223   0.00000  Uiso   1.00
C1085  C     0.04292   0.97951   0.72777   0.00000  Uiso   1.00
C1086  C     0.29144   0.97768   0.77029   0.00000  Uiso   1.00
Cu1087 Cu    0.04689   0.83334   0.75000   0.00000  Uiso   1.00
Cu1088 Cu    0.28645   0.83333   0.75000   0.00000  Uiso   1.00
H1089  H     0.26764   0.80906   0.54465   0.00000  Uiso   1.00
H1090  H     0.07404   0.70647   0.71331   0.00000  Uiso   1.00
H1091  H     0.19684   0.78653   0.79986   0.00000  Uiso   1.00
H1092  H     0.13649   0.88014   0.70014   0.00000  Uiso   1.00
H1093  H     0.25399   0.72067   0.82489   0.00000  Uiso   1.00
H1094  H     0.21866   0.68702   0.80731   0.00000  Uiso   1.00
H1095  H     0.07935   0.94600   0.67512   0.00000  Uiso   1.00
H1096  H     0.11467   0.97964   0.69271   0.00000  Uiso   1.00
H1097  H     0.06569   0.85761   0.95535   0.00000  Uiso   1.00
H1098  H     0.30849   0.85986   0.60678   0.00000  Uiso   1.00
H1099  H     0.02484   0.80681   0.89322   0.00000  Uiso   1.00
H1100  H     0.33033   0.79975   0.97488   0.00000  Uiso   1.00
H1101  H     0.00300   0.86692   0.52512   0.00000  Uiso   1.00
H1102  H     0.18613   0.82526   0.58370   0.00000  Uiso   1.00
H1103  H     0.14720   0.84141   0.91630   0.00000  Uiso   1.00
H1104  H     0.25929   0.96020   0.78669   0.00000  Uiso   1.00
N1105  N     0.11736   0.83334   0.74999   0.00000  Uiso   1.00
N1106  N     0.21597   0.83332   0.75001   0.00000  Uiso   1.00
N1107  N     0.12791   0.76154   0.62902   0.00000  Uiso   1.00
N1108  N     0.20542   0.90513   0.87098   0.00000  Uiso   1.00
N1109  N     0.24715   0.70795   0.79614   0.00000  Uiso   1.00
N1110  N     0.08618   0.95872   0.70386   0.00000  Uiso   1.00
N1111  N     0.07765   0.75498   0.83091   0.00000  Uiso   1.00
N1112  N     0.25569   0.91169   0.66909   0.00000  Uiso   1.00
O1113  O     0.03958   0.77322   0.75000   0.00000  Uiso   1.00
O1114  O     0.29375   0.89345   0.75000   0.00000  Uiso   1.00
O1115  O     0.29372   0.77321   0.75001   0.00000  Uiso   1.00
O1116  O     0.03961   0.89346   0.75000   0.00000  Uiso   1.00
O1117  O     0.01852   0.83334   0.81492   0.00000  Uiso   1.00
O1118  O     0.31481   0.83332   0.68509   0.00000  Uiso   1.00
O1119  O     0.27267   0.83333   0.81492   0.00000  Uiso   1.00
O1120  O     0.06067   0.83333   0.68508   0.00000  Uiso   1.00
C1121  C     0.66636   0.75410   0.75089   0.00000  Uiso   1.00
C1122  C     0.37523   0.68899   0.72971   0.00000  Uiso   1.00
C1123  C     0.33395   0.95722   0.74862   0.00000  Uiso   1.00
C1124  C     0.66605   0.70945   0.75138   0.00000  Uiso   1.00
C1125  C     0.51732   0.80731   0.77774   0.00000  Uiso   1.00
C1126  C     0.48268   0.85936   0.72226   0.00000  Uiso   1.00
C1127  C     0.46782   0.80716   0.77780   0.00000  Uiso   1.00
C1128  C     0.53218   0.85950   0.72220   0.00000  Uiso   1.00
C1129  C     0.63958   0.83400   0.83612   0.00000  Uiso   1.00
C1130  C     0.36042   0.83267   0.66388   0.00000  Uiso   1.00
C1131  C     0.62459   0.83310   0.88559   0.00000  Uiso   1.00
C1132  C     0.33364   0.91257   0.74912   0.00000  Uiso   1.00
C1133  C     0.37541   0.83357   0.61441   0.00000  Uiso   1.00
C1134  C     0.63896   0.81154   0.95641   0.00000  Uiso   1.00
C1135  C     0.36104   0.85513   0.54359   0.00000  Uiso   1.00
C1136  C     0.65508   0.81614   0.90996   0.00000  Uiso   1.00
C1137  C     0.34492   0.85053   0.59004   0.00000  Uiso   1.00
C1138  C     0.57802   0.84662   0.90849   0.00000  Uiso   1.00
C1139  C     0.42198   0.82004   0.59151   0.00000  Uiso   1.00
C1140  C     0.55824   0.83463   0.95402   0.00000  Uiso   1.00
C1141  C     0.44176   0.83204   0.54598   0.00000  Uiso   1.00
C1142  C     0.59084   0.82040   0.97856   0.00000  Uiso   1.00
C1143  C     0.52770   0.82408   0.54754   0.00000  Uiso   1.00
C1144  C     0.40916   0.84626   0.52144   0.00000  Uiso   1.00
C1145  C     0.50780   0.83655   0.97628   0.00000  Uiso   1.00
C1146  C     0.49220   0.83012   0.52372   0.00000  Uiso   1.00
C1147  C     0.44398   0.78754   0.61233   0.00000  Uiso   1.00
C1148  C     0.55602   0.87912   0.88767   0.00000  Uiso   1.00
C1149  C     0.43611   0.77841   0.80725   0.00000  Uiso   1.00
C1150  C     0.56389   0.88826   0.69275   0.00000  Uiso   1.00
C1151  C     0.47230   0.84258   0.95246   0.00000  Uiso   1.00
C1152  C     0.57553   0.81667   0.52518   0.00000  Uiso   1.00
C1153  C     0.42446   0.85000   0.97482   0.00000  Uiso   1.00
C1154  C     0.62375   0.68716   0.77223   0.00000  Uiso   1.00
C1155  C     0.37625   0.97951   0.72777   0.00000  Uiso   1.00
C1156  C     0.62477   0.97768   0.77029   0.00000  Uiso   1.00
Cu1157 Cu    0.38022   0.83334   0.75000   0.00000  Uiso   1.00
Cu1158 Cu    0.61978   0.83333   0.75000   0.00000  Uiso   1.00
H1159  H     0.60098   0.80906   0.54465   0.00000  Uiso   1.00
H1160  H     0.40737   0.70647   0.71331   0.00000  Uiso   1.00
H1161  H     0.53018   0.78653   0.79986   0.00000  Uiso   1.00
H1162  H     0.46982   0.88014   0.70014   0.00000  Uiso   1.00
H1163  H     0.58733   0.72067   0.82489   0.00000  Uiso   1.00
H1164  H     0.55199   0.68702   0.80731   0.00000  Uiso   1.00
H1165  H     0.41268   0.94600   0.67512   0.00000  Uiso   1.00
H1166  H     0.44801   0.97964   0.69271   0.00000  Uiso   1.00
H1167  H     0.39902   0.85761   0.95535   0.00000  Uiso   1.00
H1168  H     0.64182   0.85986   0.60678   0.00000  Uiso   1.00
H1169  H     0.35818   0.80681   0.89322   0.00000  Uiso   1.00
H1170  H     0.66367   0.79975   0.97488   0.00000  Uiso   1.00
H1171  H     0.33633   0.86692   0.52512   0.00000  Uiso   1.00
H1172  H     0.51946   0.82526   0.58370   0.00000  Uiso   1.00
H1173  H     0.48054   0.84141   0.91630   0.00000  Uiso   1.00
H1174  H     0.59263   0.96020   0.78669   0.00000  Uiso   1.00
N1175  N     0.45069   0.83334   0.74999   0.00000  Uiso   1.00
N1176  N     0.54931   0.83332   0.75001   0.00000  Uiso   1.00
N1177  N     0.46124   0.76154   0.62902   0.00000  Uiso   1.00
N1178  N     0.53876   0.90513   0.87098   0.00000  Uiso   1.00
N1179  N     0.58048   0.70795   0.79614   0.00000  Uiso   1.00
N1180  N     0.41952   0.95872   0.70386   0.00000  Uiso   1.00
N1181  N     0.41098   0.75498   0.83091   0.00000  Uiso   1.00
N1182  N     0.58902   0.91169   0.66909   0.00000  Uiso   1.00
O1183  O     0.37291   0.77322   0.75000   0.00000  Uiso   1.00
O1184  O     0.62709   0.89345   0.75000   0.00000  Uiso   1.00
O1185  O     0.62706   0.77321   0.75001   0.00000  Uiso   1.00
O1186  O     0.37294   0.89346   0.75000   0.00000  Uiso   1.00
O1187  O     0.35186   0.83334   0.81492   0.00000  Uiso   1.00
O1188  O     0.64814   0.83332   0.68509   0.00000  Uiso   1.00
O1189  O     0.60600   0.83333   0.81492   0.00000  Uiso   1.00
O1190  O     0.39400   0.83333   0.68508   0.00000  Uiso   1.00
C1191  C     0.99969   0.75410   0.75089   0.00000  Uiso   1.00
C1192  C     0.70856   0.68899   0.72971   0.00000  Uiso   1.00
C1193  C     0.66728   0.95722   0.74862   0.00000  Uiso   1.00
C1194  C     0.99938   0.70945   0.75138   0.00000  Uiso   1.00
C1195  C     0.85065   0.80731   0.77774   0.00000  Uiso   1.00
C1196  C     0.81602   0.85936   0.72226   0.00000  Uiso   1.00
C1197  C     0.80116   0.80716   0.77780   0.00000  Uiso   1.00
C1198  C     0.86551   0.85950   0.72220   0.00000  Uiso   1.00
C1199  C     0.97291   0.83400   0.83612   0.00000  Uiso   1.00
C1200  C     0.69376   0.83267   0.66388   0.00000  Uiso   1.00
C1201  C     0.95792   0.83310   0.88559   0.00000  Uiso   1.00
C1202  C     0.66698   0.91257   0.74912   0.00000  Uiso   1.00
C1203  C     0.70874   0.83357   0.61441   0.00000  Uiso   1.00
C1204  C     0.97229   0.81154   0.95641   0.00000  Uiso   1.00
C1205  C     0.69438   0.85513   0.54359   0.00000  Uiso   1.00
C1206  C     0.98841   0.81614   0.90996   0.00000  Uiso   1.00
C1207  C     0.67825   0.85053   0.59004   0.00000  Uiso   1.00
C1208  C     0.91135   0.84662   0.90849   0.00000  Uiso   1.00
C1209  C     0.75531   0.82004   0.59151   0.00000  Uiso   1.00
C1210  C     0.89157   0.83463   0.95402   0.00000  Uiso   1.00
C1211  C     0.77510   0.83204   0.54598   0.00000  Uiso   1.00
C1212  C     0.92417   0.82040   0.97856   0.00000  Uiso   1.00
C1213  C     0.86103   0.82408   0.54754   0.00000  Uiso   1.00
C1214  C     0.74250   0.84626   0.52144   0.00000  Uiso   1.00
C1215  C     0.84114   0.83655   0.97628   0.00000  Uiso   1.00
C1216  C     0.82553   0.83012   0.52372   0.00000  Uiso   1.00
C1217  C     0.77731   0.78754   0.61233   0.00000  Uiso   1.00
C1218  C     0.88935   0.87912   0.88767   0.00000  Uiso   1.00
C1219  C     0.76944   0.77841   0.80725   0.00000  Uiso   1.00
C1220  C     0.89722   0.88826   0.69275   0.00000  Uiso   1.00
C1221  C     0.80563   0.84258   0.95246   0.00000  Uiso   1.00
C1222  C     0.90887   0.81667   0.52518   0.00000  Uiso   1.00
C1223  C     0.75780   0.85000   0.97482   0.00000  Uiso   1.00
C1224  C     0.95708   0.68716   0.77223   0.00000  Uiso   1.00
C1225  C     0.70959   0.97951   0.72777   0.00000  Uiso   1.00
C1226  C     0.95810   0.97768   0.77029   0.00000  Uiso   1.00
Cu1227 Cu    0.71355   0.83334   0.75000   0.00000  Uiso   1.00
Cu1228 Cu    0.95311   0.83333   0.75000   0.00000  Uiso   1.00
H1229  H     0.93431   0.80906   0.54465   0.00000  Uiso   1.00
H1230  H     0.74071   0.70647   0.71331   0.00000  Uiso   1.00
H1231  H     0.86351   0.78653   0.79986   0.00000  Uiso   1.00
H1232  H     0.80315   0.88014   0.70014   0.00000  Uiso   1.00
H1233  H     0.92066   0.72067   0.82489   0.00000  Uiso   1.00
H1234  H     0.88532   0.68702   0.80731   0.00000  Uiso   1.00
H1235  H     0.74602   0.94600   0.67512   0.00000  Uiso   1.00
H1236  H     0.78134   0.97964   0.69271   0.00000  Uiso   1.00
H1237  H     0.73236   0.85761   0.95535   0.00000  Uiso   1.00
H1238  H     0.97516   0.85986   0.60678   0.00000  Uiso   1.00
H1239  H     0.69151   0.80681   0.89322   0.00000  Uiso   1.00
H1240  H     0.99700   0.79975   0.97488   0.00000  Uiso   1.00
H1241  H     0.66967   0.86692   0.52512   0.00000  Uiso   1.00
H1242  H     0.85280   0.82526   0.58370   0.00000  Uiso   1.00
H1243  H     0.81387   0.84141   0.91630   0.00000  Uiso   1.00
H1244  H     0.92596   0.96020   0.78669   0.00000  Uiso   1.00
N1245  N     0.78403   0.83334   0.74999   0.00000  Uiso   1.00
N1246  N     0.88264   0.83332   0.75001   0.00000  Uiso   1.00
N1247  N     0.79457   0.76154   0.62902   0.00000  Uiso   1.00
N1248  N     0.87209   0.90513   0.87098   0.00000  Uiso   1.00
N1249  N     0.91382   0.70795   0.79614   0.00000  Uiso   1.00
N1250  N     0.75285   0.95872   0.70386   0.00000  Uiso   1.00
N1251  N     0.74431   0.75498   0.83091   0.00000  Uiso   1.00
N1252  N     0.92235   0.91169   0.66909   0.00000  Uiso   1.00
O1253  O     0.70625   0.77322   0.75000   0.00000  Uiso   1.00
O1254  O     0.96042   0.89345   0.75000   0.00000  Uiso   1.00
O1255  O     0.96039   0.77321   0.75001   0.00000  Uiso   1.00
O1256  O     0.70628   0.89346   0.75000   0.00000  Uiso   1.00
O1257  O     0.68519   0.83334   0.81492   0.00000  Uiso   1.00
O1258  O     0.98148   0.83332   0.68509   0.00000  Uiso   1.00
O1259  O     0.93933   0.83333   0.81492   0.00000  Uiso   1.00
O1260  O     0.72733   0.83333   0.68508   0.00000  Uiso   1.00
loop_
_geom_bond_atom_site_label_1
_geom_bond_atom_site_label_2
_geom_bond_distance
_geom_bond_site_symmetry_2
_ccdc_geom_bond_type
C1     O65     1.291   .     A
C1     C4      1.449   .     S
C1     O133    1.295   .     S
C2     H40     1.084   .     S
C2     C144    1.399   1_455 S
C2     C455    1.391   1_545 S
C3     C35     1.410   .     A
C3     C12     1.449   .     S
C3     C176    1.399   1_455 S
C4     C34     1.410   .     A
C4     C72     1.399   .     S
C5     N56     1.362   .     A
C5     C7      1.417   .     A
C5     H41     1.083   .     S
C6     N55     1.362   .     A
C6     H42     1.083   .     S
C6     C8      1.417   .     A
C7     C29     1.438   .     S
C7     N55     1.376   .     A
C8     C30     1.438   .     S
C8     N56     1.376   .     A
C9     C11     1.471   .     S
C9     O69     1.296   .     A
C9     O137    1.300   .     S
C10    O70     1.296   .     A
C10    C13     1.471   .     S
C10    O208    1.300   1_455 S
C11    C18     1.409   .     A
C11    C16     1.399   .     A
C12    O66     1.291   .     A
C12    O204    1.295   1_455 S
C13    C17     1.399   .     A
C13    C19     1.409   .     A
C14    C22     1.401   .     A
C14    H50     1.084   .     S
C14    C16     1.390   .     A
C15    H51     1.084   .     S
C15    C24     1.401   .     A
C15    C17     1.390   .     A
C16    H119    1.081   .     S
C17    H188    1.081   1_455 S
C18    C28     1.453   .     S
C18    C20     1.418   .     A
C19    C27     1.453   .     S
C19    C21     1.418   .     A
C20    C22     1.419   .     A
C20    C25     1.430   .     A
C21    C26     1.430   .     A
C21    C24     1.419   .     A
C22    C662    1.392   .     S
C23    C32     1.386   .     A
C23    H52     1.078   .     S
C23    C26     1.412   .     A
C24    C663    1.392   1_554 S
C25    C31     1.412   .     A
C25    C656    1.425   .     S
C26    C655    1.425   1_554 S
C27    N57     1.158   .     T
C28    N58     1.158   .     T
C29    N61     1.157   .     T
C30    N62     1.157   .     T
C31    C33     1.386   .     A
C31    H53     1.078   .     S
C32    H39     1.084   .     S
C32    C652    1.392   1_554 S
C33    H47     1.084   .     S
C33    C654    1.392   .     S
C34    N59     1.439   .     S
C34    C456    1.391   1_545 S
C35    N60     1.439   .     S
C35    C212    1.391   .     S
C36    H54     1.084   .     S
C36    C73     1.399   .     S
C36    C244    1.391   .     S
Cu37   O70     1.935   .     S
Cu37   O66     1.962   .     S
Cu37   O67     1.952   .     S
Cu37   N55     2.018   .     S
Cu37   O63     1.962   .     S
Cu37   Cu178   2.686   1_455 S
Cu38   O65     1.962   .     S
Cu38   O69     1.935   .     S
Cu38   N56     2.018   .     S
Cu38   O68     1.952   .     S
Cu38   O64     1.962   .     S
Cu38   Cu107   2.686   .     S
H43    N59     1.046   .     S
H44    N59     1.046   .     S
H45    N60     1.046   .     S
H46    N60     1.046   .     S
H48    C87     1.081   .     S
H49    C156    1.081   1_455 S
O63    C141    1.295   1_455 S
O64    C82     1.295   .     S
O67    C149    1.300   1_455 S
O68    C80     1.300   .     S
C71    O135    1.291   .     A
C71    C74     1.449   .     S
C71    O203    1.295   .     S
C72    H110    1.084   .     S
C72    C525    1.391   1_545 S
C73    C105    1.410   .     A
C73    C82     1.449   .     S
C74    C104    1.410   .     A
C74    C142    1.399   .     S
C75    N126    1.362   .     A
C75    C77     1.417   .     A
C75    H111    1.083   .     S
C76    N125    1.362   .     A
C76    H112    1.083   .     S
C76    C78     1.417   .     A
C77    C99     1.438   .     S
C77    N125    1.376   .     A
C78    C100    1.438   .     S
C78    N126    1.376   .     A
C79    C81     1.471   .     S
C79    O139    1.296   .     A
C79    O207    1.300   .     S
C80    O140    1.296   .     A
C80    C83     1.471   .     S
C81    C88     1.409   .     A
C81    C86     1.399   .     A
C82    O136    1.291   .     A
C83    C87     1.399   .     A
C83    C89     1.409   .     A
C84    C92     1.401   .     A
C84    H120    1.084   .     S
C84    C86     1.390   .     A
C85    H121    1.084   .     S
C85    C94     1.401   .     A
C85    C87     1.390   .     A
C86    H189    1.081   .     S
C88    C98     1.453   .     S
C88    C90     1.418   .     A
C89    C97     1.453   .     S
C89    C91     1.418   .     A
C90    C92     1.419   .     A
C90    C95     1.430   .     A
C91    C96     1.430   .     A
C91    C94     1.419   .     A
C92    C732    1.392   .     S
C93    C102    1.386   .     A
C93    H122    1.078   .     S
C93    C96     1.412   .     A
C94    C733    1.392   1_554 S
C95    C101    1.412   .     A
C95    C726    1.425   .     S
C96    C725    1.425   1_554 S
C97    N127    1.158   .     T
C98    N128    1.158   .     T
C99    N131    1.157   .     T
C100   N132    1.157   .     T
C101   C103    1.386   .     A
C101   H123    1.078   .     S
C102   H109    1.084   .     S
C102   C722    1.392   1_554 S
C103   H117    1.084   .     S
C103   C724    1.392   .     S
C104   N129    1.439   .     S
C104   C526    1.391   1_545 S
C105   N130    1.439   .     S
C105   C282    1.391   .     S
C106   H124    1.084   .     S
C106   C143    1.399   .     S
C106   C314    1.391   .     S
Cu107  O140    1.935   .     S
Cu107  O136    1.962   .     S
Cu107  O137    1.952   .     S
Cu107  N125    2.018   .     S
Cu107  O133    1.962   .     S
Cu108  O135    1.962   .     S
Cu108  O139    1.935   .     S
Cu108  N126    2.018   .     S
Cu108  O138    1.952   .     S
Cu108  O134    1.962   .     S
Cu108  Cu177   2.686   .     S
H113   N129    1.046   .     S
H114   N129    1.046   .     S
H115   N130    1.046   .     S
H116   N130    1.046   .     S
H118   C157    1.081   .     S
O134   C152    1.295   .     S
O138   C150    1.300   .     S
C141   O205    1.291   .     A
C141   C144    1.449   .     S
C141   O63     1.295   1_655 S
C142   H180    1.084   .     S
C142   C595    1.391   1_545 S
C143   C175    1.410   .     A
C143   C152    1.449   .     S
C144   C174    1.410   .     A
C144   C2      1.399   1_655 S
C145   N196    1.362   .     A
C145   C147    1.417   .     A
C145   H181    1.083   .     S
C146   N195    1.362   .     A
C146   H182    1.083   .     S
C146   C148    1.417   .     A
C147   C169    1.438   .     S
C147   N195    1.376   .     A
C148   C170    1.438   .     S
C148   N196    1.376   .     A
C149   C151    1.471   .     S
C149   O209    1.296   .     A
C149   O67     1.300   1_655 S
C150   O210    1.296   .     A
C150   C153    1.471   .     S
C151   C158    1.409   .     A
C151   C156    1.399   .     A
C152   O206    1.291   .     A
C153   C157    1.399   .     A
C153   C159    1.409   .     A
C154   C162    1.401   .     A
C154   H190    1.084   .     S
C154   C156    1.390   .     A
C155   H191    1.084   .     S
C155   C164    1.401   .     A
C155   C157    1.390   .     A
C156   H49     1.081   1_655 S
C158   C168    1.453   .     S
C158   C160    1.418   .     A
C159   C167    1.453   .     S
C159   C161    1.418   .     A
C160   C162    1.419   .     A
C160   C165    1.430   .     A
C161   C166    1.430   .     A
C161   C164    1.419   .     A
C162   C802    1.392   .     S
C163   C172    1.386   .     A
C163   H192    1.078   .     S
C163   C166    1.412   .     A
C164   C803    1.392   1_554 S
C165   C171    1.412   .     A
C165   C796    1.425   .     S
C166   C795    1.425   1_554 S
C167   N197    1.158   .     T
C168   N198    1.158   .     T
C169   N201    1.157   .     T
C170   N202    1.157   .     T
C171   C173    1.386   .     A
C171   H193    1.078   .     S
C172   H179    1.084   .     S
C172   C792    1.392   1_554 S
C173   H187    1.084   .     S
C173   C794    1.392   .     S
C174   N199    1.439   .     S
C174   C596    1.391   1_545 S
C175   N200    1.439   .     S
C175   C352    1.391   .     S
C176   H194    1.084   .     S
C176   C3      1.399   1_655 S
C176   C384    1.391   .     S
Cu177  O210    1.935   .     S
Cu177  O206    1.962   .     S
Cu177  O207    1.952   .     S
Cu177  N195    2.018   .     S
Cu177  O203    1.962   .     S
Cu178  O205    1.962   .     S
Cu178  O209    1.935   .     S
Cu178  N196    2.018   .     S
Cu178  O208    1.952   .     S
Cu178  O204    1.962   .     S
Cu178  Cu37    2.686   1_655 S
H183   N199    1.046   .     S
H184   N199    1.046   .     S
H185   N200    1.046   .     S
H186   N200    1.046   .     S
H188   C17     1.081   1_655 S
O204   C12     1.295   1_655 S
O208   C10     1.300   1_655 S
C211   O275    1.291   .     A
C211   C214    1.449   .     S
C211   O343    1.295   .     S
C212   H250    1.084   .     S
C212   C354    1.399   1_455 S
C213   C245    1.410   .     A
C213   C222    1.449   .     S
C213   C386    1.399   1_455 S
C214   C244    1.410   .     A
C214   C282    1.399   .     S
C215   N266    1.362   .     A
C215   C217    1.417   .     A
C215   H251    1.083   .     S
C216   N265    1.362   .     A
C216   H252    1.083   .     S
C216   C218    1.417   .     A
C217   C239    1.438   .     S
C217   N265    1.376   .     A
C218   C240    1.438   .     S
C218   N266    1.376   .     A
C219   C221    1.471   .     S
C219   O279    1.296   .     A
C219   O347    1.300   .     S
C220   O280    1.296   .     A
C220   C223    1.471   .     S
C220   O418    1.300   1_455 S
C221   C228    1.409   .     A
C221   C226    1.399   .     A
C222   O276    1.291   .     A
C222   O414    1.295   1_455 S
C223   C227    1.399   .     A
C223   C229    1.409   .     A
C224   C232    1.401   .     A
C224   H260    1.084   .     S
C224   C226    1.390   .     A
C225   H261    1.084   .     S
C225   C234    1.401   .     A
C225   C227    1.390   .     A
C226   H329    1.081   .     S
C227   H398    1.081   1_455 S
C228   C238    1.453   .     S
C228   C230    1.418   .     A
C229   C237    1.453   .     S
C229   C231    1.418   .     A
C230   C232    1.419   .     A
C230   C235    1.430   .     A
C231   C236    1.430   .     A
C231   C234    1.419   .     A
C232   C872    1.392   .     S
C233   C242    1.386   .     A
C233   H262    1.078   .     S
C233   C236    1.412   .     A
C234   C873    1.392   1_554 S
C235   C241    1.412   .     A
C235   C866    1.425   .     S
C236   C865    1.425   1_554 S
C237   N267    1.158   .     T
C238   N268    1.158   .     T
C239   N271    1.157   .     T
C240   N272    1.157   .     T
C241   C243    1.386   .     A
C241   H263    1.078   .     S
C242   H249    1.084   .     S
C242   C862    1.392   1_554 S
C243   H257    1.084   .     S
C243   C864    1.392   .     S
C244   N269    1.439   .     S
C245   N270    1.439   .     S
C245   C422    1.391   .     S
C246   H264    1.084   .     S
C246   C283    1.399   .     S
C246   C454    1.391   .     S
Cu247  O280    1.935   .     S
Cu247  O276    1.962   .     S
Cu247  O277    1.952   .     S
Cu247  N265    2.018   .     S
Cu247  O273    1.962   .     S
Cu247  Cu388   2.686   1_455 S
Cu248  O275    1.962   .     S
Cu248  O279    1.935   .     S
Cu248  N266    2.018   .     S
Cu248  O278    1.952   .     S
Cu248  O274    1.962   .     S
Cu248  Cu317   2.686   .     S
H253   N269    1.046   .     S
H254   N269    1.046   .     S
H255   N270    1.046   .     S
H256   N270    1.046   .     S
H258   C297    1.081   .     S
H259   C366    1.081   1_455 S
O273   C351    1.295   1_455 S
O274   C292    1.295   .     S
O277   C359    1.300   1_455 S
O278   C290    1.300   .     S
C281   O345    1.291   .     A
C281   C284    1.449   .     S
C281   O413    1.295   .     S
C282   H320    1.084   .     S
C283   C315    1.410   .     A
C283   C292    1.449   .     S
C284   C314    1.410   .     A
C284   C352    1.399   .     S
C285   N336    1.362   .     A
C285   C287    1.417   .     A
C285   H321    1.083   .     S
C286   N335    1.362   .     A
C286   H322    1.083   .     S
C286   C288    1.417   .     A
C287   C309    1.438   .     S
C287   N335    1.376   .     A
C288   C310    1.438   .     S
C288   N336    1.376   .     A
C289   C291    1.471   .     S
C289   O349    1.296   .     A
C289   O417    1.300   .     S
C290   O350    1.296   .     A
C290   C293    1.471   .     S
C291   C298    1.409   .     A
C291   C296    1.399   .     A
C292   O346    1.291   .     A
C293   C297    1.399   .     A
C293   C299    1.409   .     A
C294   C302    1.401   .     A
C294   H330    1.084   .     S
C294   C296    1.390   .     A
C295   H331    1.084   .     S
C295   C304    1.401   .     A
C295   C297    1.390   .     A
C296   H399    1.081   .     S
C298   C308    1.453   .     S
C298   C300    1.418   .     A
C299   C307    1.453   .     S
C299   C301    1.418   .     A
C300   C302    1.419   .     A
C300   C305    1.430   .     A
C301   C306    1.430   .     A
C301   C304    1.419   .     A
C302   C942    1.392   .     S
C303   C312    1.386   .     A
C303   H332    1.078   .     S
C303   C306    1.412   .     A
C304   C943    1.392   1_554 S
C305   C311    1.412   .     A
C305   C936    1.425   .     S
C306   C935    1.425   1_554 S
C307   N337    1.158   .     T
C308   N338    1.158   .     T
C309   N341    1.157   .     T
C310   N342    1.157   .     T
C311   C313    1.386   .     A
C311   H333    1.078   .     S
C312   H319    1.084   .     S
C312   C932    1.392   1_554 S
C313   H327    1.084   .     S
C313   C934    1.392   .     S
C314   N339    1.439   .     S
C315   N340    1.439   .     S
C315   C492    1.391   .     S
C316   H334    1.084   .     S
C316   C353    1.399   .     S
C316   C524    1.391   .     S
Cu317  O350    1.935   .     S
Cu317  O346    1.962   .     S
Cu317  O347    1.952   .     S
Cu317  N335    2.018   .     S
Cu317  O343    1.962   .     S
Cu318  O345    1.962   .     S
Cu318  O349    1.935   .     S
Cu318  N336    2.018   .     S
Cu318  O348    1.952   .     S
Cu318  O344    1.962   .     S
Cu318  Cu387   2.686   .     S
H323   N339    1.046   .     S
H324   N339    1.046   .     S
H325   N340    1.046   .     S
H326   N340    1.046   .     S
H328   C367    1.081   .     S
O344   C362    1.295   .     S
O348   C360    1.300   .     S
C351   O415    1.291   .     A
C351   C354    1.449   .     S
C351   O273    1.295   1_655 S
C352   H390    1.084   .     S
C353   C385    1.410   .     A
C353   C362    1.449   .     S
C354   C384    1.410   .     A
C354   C212    1.399   1_655 S
C355   N406    1.362   .     A
C355   C357    1.417   .     A
C355   H391    1.083   .     S
C356   N405    1.362   .     A
C356   H392    1.083   .     S
C356   C358    1.417   .     A
C357   C379    1.438   .     S
C357   N405    1.376   .     A
C358   C380    1.438   .     S
C358   N406    1.376   .     A
C359   C361    1.471   .     S
C359   O419    1.296   .     A
C359   O277    1.300   1_655 S
C360   O420    1.296   .     A
C360   C363    1.471   .     S
C361   C368    1.409   .     A
C361   C366    1.399   .     A
C362   O416    1.291   .     A
C363   C367    1.399   .     A
C363   C369    1.409   .     A
C364   C372    1.401   .     A
C364   H400    1.084   .     S
C364   C366    1.390   .     A
C365   H401    1.084   .     S
C365   C374    1.401   .     A
C365   C367    1.390   .     A
C366   H259    1.081   1_655 S
C368   C378    1.453   .     S
C368   C370    1.418   .     A
C369   C377    1.453   .     S
C369   C371    1.418   .     A
C370   C372    1.419   .     A
C370   C375    1.430   .     A
C371   C376    1.430   .     A
C371   C374    1.419   .     A
C372   C1012   1.392   .     S
C373   C382    1.386   .     A
C373   H402    1.078   .     S
C373   C376    1.412   .     A
C374   C1013   1.392   1_554 S
C375   C381    1.412   .     A
C375   C1006   1.425   .     S
C376   C1005   1.425   1_554 S
C377   N407    1.158   .     T
C378   N408    1.158   .     T
C379   N411    1.157   .     T
C380   N412    1.157   .     T
C381   C383    1.386   .     A
C381   H403    1.078   .     S
C382   H389    1.084   .     S
C382   C1002   1.392   1_554 S
C383   H397    1.084   .     S
C383   C1004   1.392   .     S
C384   N409    1.439   .     S
C385   N410    1.439   .     S
C385   C562    1.391   .     S
C386   H404    1.084   .     S
C386   C213    1.399   1_655 S
C386   C594    1.391   .     S
Cu387  O420    1.935   .     S
Cu387  O416    1.962   .     S
Cu387  O417    1.952   .     S
Cu387  N405    2.018   .     S
Cu387  O413    1.962   .     S
Cu388  O415    1.962   .     S
Cu388  O419    1.935   .     S
Cu388  N406    2.018   .     S
Cu388  O418    1.952   .     S
Cu388  O414    1.962   .     S
Cu388  Cu247   2.686   1_655 S
H393   N409    1.046   .     S
H394   N409    1.046   .     S
H395   N410    1.046   .     S
H396   N410    1.046   .     S
H398   C227    1.081   1_655 S
O414   C222    1.295   1_655 S
O418   C220    1.300   1_655 S
C421   O485    1.291   .     A
C421   C424    1.449   .     S
C421   O553    1.295   .     S
C422   H460    1.084   .     S
C422   C564    1.399   1_455 S
C423   C455    1.410   .     A
C423   C432    1.449   .     S
C423   C596    1.399   1_455 S
C424   C454    1.410   .     A
C424   C492    1.399   .     S
C425   N476    1.362   .     A
C425   C427    1.417   .     A
C425   H461    1.083   .     S
C426   N475    1.362   .     A
C426   H462    1.083   .     S
C426   C428    1.417   .     A
C427   C449    1.438   .     S
C427   N475    1.376   .     A
C428   C450    1.438   .     S
C428   N476    1.376   .     A
C429   C431    1.471   .     S
C429   O489    1.296   .     A
C429   O557    1.300   .     S
C430   O490    1.296   .     A
C430   C433    1.471   .     S
C430   O628    1.300   1_455 S
C431   C438    1.409   .     A
C431   C436    1.399   .     A
C432   O486    1.291   .     A
C432   O624    1.295   1_455 S
C433   C437    1.399   .     A
C433   C439    1.409   .     A
C434   C442    1.401   .     A
C434   H470    1.084   .     S
C434   C436    1.390   .     A
C435   H471    1.084   .     S
C435   C444    1.401   .     A
C435   C437    1.390   .     A
C436   H539    1.081   .     S
C437   H608    1.081   1_455 S
C438   C448    1.453   .     S
C438   C440    1.418   .     A
C439   C447    1.453   .     S
C439   C441    1.418   .     A
C440   C442    1.419   .     A
C440   C445    1.430   .     A
C441   C446    1.430   .     A
C441   C444    1.419   .     A
C442   C1082   1.392   .     S
C443   C452    1.386   .     A
C443   H472    1.078   .     S
C443   C446    1.412   .     A
C444   C1083   1.392   1_554 S
C445   C451    1.412   .     A
C445   C1076   1.425   .     S
C446   C1075   1.425   1_554 S
C447   N477    1.158   .     T
C448   N478    1.158   .     T
C449   N481    1.157   .     T
C450   N482    1.157   .     T
C451   C453    1.386   .     A
C451   H473    1.078   .     S
C452   H459    1.084   .     S
C452   C1072   1.392   1_554 S
C453   H467    1.084   .     S
C453   C1074   1.392   .     S
C454   N479    1.439   .     S
C455   N480    1.439   .     S
C455   C2      1.391   1_565 S
C456   H474    1.084   .     S
C456   C493    1.399   .     S
C456   C34     1.391   1_565 S
Cu457  O490    1.935   .     S
Cu457  O486    1.962   .     S
Cu457  O487    1.952   .     S
Cu457  N475    2.018   .     S
Cu457  O483    1.962   .     S
Cu457  Cu598   2.686   1_455 S
Cu458  O485    1.962   .     S
Cu458  O489    1.935   .     S
Cu458  N476    2.018   .     S
Cu458  O488    1.952   .     S
Cu458  O484    1.962   .     S
Cu458  Cu527   2.686   .     S
H463   N479    1.046   .     S
H464   N479    1.046   .     S
H465   N480    1.046   .     S
H466   N480    1.046   .     S
H468   C507    1.081   .     S
H469   C576    1.081   1_455 S
O483   C561    1.295   1_455 S
O484   C502    1.295   .     S
O487   C569    1.300   1_455 S
O488   C500    1.300   .     S
C491   O555    1.291   .     A
C491   C494    1.449   .     S
C491   O623    1.295   .     S
C492   H530    1.084   .     S
C493   C525    1.410   .     A
C493   C502    1.449   .     S
C494   C524    1.410   .     A
C494   C562    1.399   .     S
C495   N546    1.362   .     A
C495   C497    1.417   .     A
C495   H531    1.083   .     S
C496   N545    1.362   .     A
C496   H532    1.083   .     S
C496   C498    1.417   .     A
C497   C519    1.438   .     S
C497   N545    1.376   .     A
C498   C520    1.438   .     S
C498   N546    1.376   .     A
C499   C501    1.471   .     S
C499   O559    1.296   .     A
C499   O627    1.300   .     S
C500   O560    1.296   .     A
C500   C503    1.471   .     S
C501   C508    1.409   .     A
C501   C506    1.399   .     A
C502   O556    1.291   .     A
C503   C507    1.399   .     A
C503   C509    1.409   .     A
C504   C512    1.401   .     A
C504   H540    1.084   .     S
C504   C506    1.390   .     A
C505   H541    1.084   .     S
C505   C514    1.401   .     A
C505   C507    1.390   .     A
C506   H609    1.081   .     S
C508   C518    1.453   .     S
C508   C510    1.418   .     A
C509   C517    1.453   .     S
C509   C511    1.418   .     A
C510   C512    1.419   .     A
C510   C515    1.430   .     A
C511   C516    1.430   .     A
C511   C514    1.419   .     A
C512   C1152   1.392   .     S
C513   C522    1.386   .     A
C513   H542    1.078   .     S
C513   C516    1.412   .     A
C514   C1153   1.392   1_554 S
C515   C521    1.412   .     A
C515   C1146   1.425   .     S
C516   C1145   1.425   1_554 S
C517   N547    1.158   .     T
C518   N548    1.158   .     T
C519   N551    1.157   .     T
C520   N552    1.157   .     T
C521   C523    1.386   .     A
C521   H543    1.078   .     S
C522   H529    1.084   .     S
C522   C1142   1.392   1_554 S
C523   H537    1.084   .     S
C523   C1144   1.392   .     S
C524   N549    1.439   .     S
C525   N550    1.439   .     S
C525   C72     1.391   1_565 S
C526   H544    1.084   .     S
C526   C563    1.399   .     S
C526   C104    1.391   1_565 S
Cu527  O560    1.935   .     S
Cu527  O556    1.962   .     S
Cu527  O557    1.952   .     S
Cu527  N545    2.018   .     S
Cu527  O553    1.962   .     S
Cu528  O555    1.962   .     S
Cu528  O559    1.935   .     S
Cu528  N546    2.018   .     S
Cu528  O558    1.952   .     S
Cu528  O554    1.962   .     S
Cu528  Cu597   2.686   .     S
H533   N549    1.046   .     S
H534   N549    1.046   .     S
H535   N550    1.046   .     S
H536   N550    1.046   .     S
H538   C577    1.081   .     S
O554   C572    1.295   .     S
O558   C570    1.300   .     S
C561   O625    1.291   .     A
C561   C564    1.449   .     S
C561   O483    1.295   1_655 S
C562   H600    1.084   .     S
C563   C595    1.410   .     A
C563   C572    1.449   .     S
C564   C594    1.410   .     A
C564   C422    1.399   1_655 S
C565   N616    1.362   .     A
C565   C567    1.417   .     A
C565   H601    1.083   .     S
C566   N615    1.362   .     A
C566   H602    1.083   .     S
C566   C568    1.417   .     A
C567   C589    1.438   .     S
C567   N615    1.376   .     A
C568   C590    1.438   .     S
C568   N616    1.376   .     A
C569   C571    1.471   .     S
C569   O629    1.296   .     A
C569   O487    1.300   1_655 S
C570   O630    1.296   .     A
C570   C573    1.471   .     S
C571   C578    1.409   .     A
C571   C576    1.399   .     A
C572   O626    1.291   .     A
C573   C577    1.399   .     A
C573   C579    1.409   .     A
C574   C582    1.401   .     A
C574   H610    1.084   .     S
C574   C576    1.390   .     A
C575   H611    1.084   .     S
C575   C584    1.401   .     A
C575   C577    1.390   .     A
C576   H469    1.081   1_655 S
C578   C588    1.453   .     S
C578   C580    1.418   .     A
C579   C587    1.453   .     S
C579   C581    1.418   .     A
C580   C582    1.419   .     A
C580   C585    1.430   .     A
C581   C586    1.430   .     A
C581   C584    1.419   .     A
C582   C1222   1.392   .     S
C583   C592    1.386   .     A
C583   H612    1.078   .     S
C583   C586    1.412   .     A
C584   C1223   1.392   1_554 S
C585   C591    1.412   .     A
C585   C1216   1.425   .     S
C586   C1215   1.425   1_554 S
C587   N617    1.158   .     T
C588   N618    1.158   .     T
C589   N621    1.157   .     T
C590   N622    1.157   .     T
C591   C593    1.386   .     A
C591   H613    1.078   .     S
C592   H599    1.084   .     S
C592   C1212   1.392   1_554 S
C593   H607    1.084   .     S
C593   C1214   1.392   .     S
C594   N619    1.439   .     S
C595   N620    1.439   .     S
C595   C142    1.391   1_565 S
C596   H614    1.084   .     S
C596   C423    1.399   1_655 S
C596   C174    1.391   1_565 S
Cu597  O630    1.935   .     S
Cu597  O626    1.962   .     S
Cu597  O627    1.952   .     S
Cu597  N615    2.018   .     S
Cu597  O623    1.962   .     S
Cu598  O625    1.962   .     S
Cu598  O629    1.935   .     S
Cu598  N616    2.018   .     S
Cu598  O628    1.952   .     S
Cu598  O624    1.962   .     S
Cu598  Cu457   2.686   1_655 S
H603   N619    1.046   .     S
H604   N619    1.046   .     S
H605   N620    1.046   .     S
H606   N620    1.046   .     S
H608   C437    1.081   1_655 S
O624   C432    1.295   1_655 S
O628   C430    1.300   1_655 S
C631   O695    1.291   .     A
C631   C634    1.449   .     S
C631   O763    1.295   .     S
C632   H670    1.084   .     S
C632   C774    1.399   1_455 S
C632   C1085   1.391   1_545 S
C633   C665    1.410   .     A
C633   C642    1.449   .     S
C633   C806    1.399   1_455 S
C634   C664    1.410   .     A
C634   C702    1.399   .     S
C635   N686    1.362   .     A
C635   C637    1.417   .     A
C635   H671    1.083   .     S
C636   N685    1.362   .     A
C636   H672    1.083   .     S
C636   C638    1.417   .     A
C637   C659    1.438   .     S
C637   N685    1.376   .     A
C638   C660    1.438   .     S
C638   N686    1.376   .     A
C639   C641    1.471   .     S
C639   O699    1.296   .     A
C639   O767    1.300   .     S
C640   O700    1.296   .     A
C640   C643    1.471   .     S
C640   O838    1.300   1_455 S
C641   C648    1.409   .     A
C641   C646    1.399   .     A
C642   O696    1.291   .     A
C642   O834    1.295   1_455 S
C643   C647    1.399   .     A
C643   C649    1.409   .     A
C644   C652    1.401   .     A
C644   H680    1.084   .     S
C644   C646    1.390   .     A
C645   H681    1.084   .     S
C645   C654    1.401   .     A
C645   C647    1.390   .     A
C646   H749    1.081   .     S
C647   H818    1.081   1_455 S
C648   C658    1.453   .     S
C648   C650    1.418   .     A
C649   C657    1.453   .     S
C649   C651    1.418   .     A
C650   C652    1.419   .     A
C650   C655    1.430   .     A
C651   C656    1.430   .     A
C651   C654    1.419   .     A
C652   C32     1.392   1_556 S
C653   C662    1.386   .     A
C653   H682    1.078   .     S
C653   C656    1.412   .     A
C655   C661    1.412   .     A
C655   C26     1.425   1_556 S
C657   N687    1.158   .     T
C658   N688    1.158   .     T
C659   N691    1.157   .     T
C660   N692    1.157   .     T
C661   C663    1.386   .     A
C661   H683    1.078   .     S
C662   H669    1.084   .     S
C663   H677    1.084   .     S
C663   C24     1.392   1_556 S
C664   N689    1.439   .     S
C664   C1086   1.391   1_545 S
C665   N690    1.439   .     S
C665   C842    1.391   .     S
C666   H684    1.084   .     S
C666   C703    1.399   .     S
C666   C874    1.391   .     S
Cu667  O700    1.935   .     S
Cu667  O696    1.962   .     S
Cu667  O697    1.952   .     S
Cu667  N685    2.018   .     S
Cu667  O693    1.962   .     S
Cu667  Cu808   2.686   1_455 S
Cu668  O695    1.962   .     S
Cu668  O699    1.935   .     S
Cu668  N686    2.018   .     S
Cu668  O698    1.952   .     S
Cu668  O694    1.962   .     S
Cu668  Cu737   2.686   .     S
H673   N689    1.046   .     S
H674   N689    1.046   .     S
H675   N690    1.046   .     S
H676   N690    1.046   .     S
H678   C717    1.081   .     S
H679   C786    1.081   1_455 S
O693   C771    1.295   1_455 S
O694   C712    1.295   .     S
O697   C779    1.300   1_455 S
O698   C710    1.300   .     S
C701   O765    1.291   .     A
C701   C704    1.449   .     S
C701   O833    1.295   .     S
C702   H740    1.084   .     S
C702   C1155   1.391   1_545 S
C703   C735    1.410   .     A
C703   C712    1.449   .     S
C704   C734    1.410   .     A
C704   C772    1.399   .     S
C705   N756    1.362   .     A
C705   C707    1.417   .     A
C705   H741    1.083   .     S
C706   N755    1.362   .     A
C706   H742    1.083   .     S
C706   C708    1.417   .     A
C707   C729    1.438   .     S
C707   N755    1.376   .     A
C708   C730    1.438   .     S
C708   N756    1.376   .     A
C709   C711    1.471   .     S
C709   O769    1.296   .     A
C709   O837    1.300   .     S
C710   O770    1.296   .     A
C710   C713    1.471   .     S
C711   C718    1.409   .     A
C711   C716    1.399   .     A
C712   O766    1.291   .     A
C713   C717    1.399   .     A
C713   C719    1.409   .     A
C714   C722    1.401   .     A
C714   H750    1.084   .     S
C714   C716    1.390   .     A
C715   H751    1.084   .     S
C715   C724    1.401   .     A
C715   C717    1.390   .     A
C716   H819    1.081   .     S
C718   C728    1.453   .     S
C718   C720    1.418   .     A
C719   C727    1.453   .     S
C719   C721    1.418   .     A
C720   C722    1.419   .     A
C720   C725    1.430   .     A
C721   C726    1.430   .     A
C721   C724    1.419   .     A
C722   C102    1.392   1_556 S
C723   C732    1.386   .     A
C723   H752    1.078   .     S
C723   C726    1.412   .     A
C725   C731    1.412   .     A
C725   C96     1.425   1_556 S
C727   N757    1.158   .     T
C728   N758    1.158   .     T
C729   N761    1.157   .     T
C730   N762    1.157   .     T
C731   C733    1.386   .     A
C731   H753    1.078   .     S
C732   H739    1.084   .     S
C733   H747    1.084   .     S
C733   C94     1.392   1_556 S
C734   N759    1.439   .     S
C734   C1156   1.391   1_545 S
C735   N760    1.439   .     S
C735   C912    1.391   .     S
C736   H754    1.084   .     S
C736   C773    1.399   .     S
C736   C944    1.391   .     S
Cu737  O770    1.935   .     S
Cu737  O766    1.962   .     S
Cu737  O767    1.952   .     S
Cu737  N755    2.018   .     S
Cu737  O763    1.962   .     S
Cu738  O765    1.962   .     S
Cu738  O769    1.935   .     S
Cu738  N756    2.018   .     S
Cu738  O768    1.952   .     S
Cu738  O764    1.962   .     S
Cu738  Cu807   2.686   .     S
H743   N759    1.046   .     S
H744   N759    1.046   .     S
H745   N760    1.046   .     S
H746   N760    1.046   .     S
H748   C787    1.081   .     S
O764   C782    1.295   .     S
O768   C780    1.300   .     S
C771   O835    1.291   .     A
C771   C774    1.449   .     S
C771   O693    1.295   1_655 S
C772   H810    1.084   .     S
C772   C1225   1.391   1_545 S
C773   C805    1.410   .     A
C773   C782    1.449   .     S
C774   C804    1.410   .     A
C774   C632    1.399   1_655 S
C775   N826    1.362   .     A
C775   C777    1.417   .     A
C775   H811    1.083   .     S
C776   N825    1.362   .     A
C776   H812    1.083   .     S
C776   C778    1.417   .     A
C777   C799    1.438   .     S
C777   N825    1.376   .     A
C778   C800    1.438   .     S
C778   N826    1.376   .     A
C779   C781    1.471   .     S
C779   O839    1.296   .     A
C779   O697    1.300   1_655 S
C780   O840    1.296   .     A
C780   C783    1.471   .     S
C781   C788    1.409   .     A
C781   C786    1.399   .     A
C782   O836    1.291   .     A
C783   C787    1.399   .     A
C783   C789    1.409   .     A
C784   C792    1.401   .     A
C784   H820    1.084   .     S
C784   C786    1.390   .     A
C785   H821    1.084   .     S
C785   C794    1.401   .     A
C785   C787    1.390   .     A
C786   H679    1.081   1_655 S
C788   C798    1.453   .     S
C788   C790    1.418   .     A
C789   C797    1.453   .     S
C789   C791    1.418   .     A
C790   C792    1.419   .     A
C790   C795    1.430   .     A
C791   C796    1.430   .     A
C791   C794    1.419   .     A
C792   C172    1.392   1_556 S
C793   C802    1.386   .     A
C793   H822    1.078   .     S
C793   C796    1.412   .     A
C795   C801    1.412   .     A
C795   C166    1.425   1_556 S
C797   N827    1.158   .     T
C798   N828    1.158   .     T
C799   N831    1.157   .     T
C800   N832    1.157   .     T
C801   C803    1.386   .     A
C801   H823    1.078   .     S
C802   H809    1.084   .     S
C803   H817    1.084   .     S
C803   C164    1.392   1_556 S
C804   N829    1.439   .     S
C804   C1226   1.391   1_545 S
C805   N830    1.439   .     S
C805   C982    1.391   .     S
C806   H824    1.084   .     S
C806   C633    1.399   1_655 S
C806   C1014   1.391   .     S
Cu807  O840    1.935   .     S
Cu807  O836    1.962   .     S
Cu807  O837    1.952   .     S
Cu807  N825    2.018   .     S
Cu807  O833    1.962   .     S
Cu808  O835    1.962   .     S
Cu808  O839    1.935   .     S
Cu808  N826    2.018   .     S
Cu808  O838    1.952   .     S
Cu808  O834    1.962   .     S
Cu808  Cu667   2.686   1_655 S
H813   N829    1.046   .     S
H814   N829    1.046   .     S
H815   N830    1.046   .     S
H816   N830    1.046   .     S
H818   C647    1.081   1_655 S
O834   C642    1.295   1_655 S
O838   C640    1.300   1_655 S
C841   O905    1.291   .     A
C841   C844    1.449   .     S
C841   O973    1.295   .     S
C842   H880    1.084   .     S
C842   C984    1.399   1_455 S
C843   C875    1.410   .     A
C843   C852    1.449   .     S
C843   C1016   1.399   1_455 S
C844   C874    1.410   .     A
C844   C912    1.399   .     S
C845   N896    1.362   .     A
C845   C847    1.417   .     A
C845   H881    1.083   .     S
C846   N895    1.362   .     A
C846   H882    1.083   .     S
C846   C848    1.417   .     A
C847   C869    1.438   .     S
C847   N895    1.376   .     A
C848   C870    1.438   .     S
C848   N896    1.376   .     A
C849   C851    1.471   .     S
C849   O909    1.296   .     A
C849   O977    1.300   .     S
C850   O910    1.296   .     A
C850   C853    1.471   .     S
C850   O1048   1.300   1_455 S
C851   C858    1.409   .     A
C851   C856    1.399   .     A
C852   O906    1.291   .     A
C852   O1044   1.295   1_455 S
C853   C857    1.399   .     A
C853   C859    1.409   .     A
C854   C862    1.401   .     A
C854   H890    1.084   .     S
C854   C856    1.390   .     A
C855   H891    1.084   .     S
C855   C864    1.401   .     A
C855   C857    1.390   .     A
C856   H959    1.081   .     S
C857   H1028   1.081   1_455 S
C858   C868    1.453   .     S
C858   C860    1.418   .     A
C859   C867    1.453   .     S
C859   C861    1.418   .     A
C860   C862    1.419   .     A
C860   C865    1.430   .     A
C861   C866    1.430   .     A
C861   C864    1.419   .     A
C862   C242    1.392   1_556 S
C863   C872    1.386   .     A
C863   H892    1.078   .     S
C863   C866    1.412   .     A
C865   C871    1.412   .     A
C865   C236    1.425   1_556 S
C867   N897    1.158   .     T
C868   N898    1.158   .     T
C869   N901    1.157   .     T
C870   N902    1.157   .     T
C871   C873    1.386   .     A
C871   H893    1.078   .     S
C872   H879    1.084   .     S
C873   H887    1.084   .     S
C873   C234    1.392   1_556 S
C874   N899    1.439   .     S
C875   N900    1.439   .     S
C875   C1052   1.391   .     S
C876   H894    1.084   .     S
C876   C913    1.399   .     S
C876   C1084   1.391   .     S
Cu877  O910    1.935   .     S
Cu877  O906    1.962   .     S
Cu877  O907    1.952   .     S
Cu877  N895    2.018   .     S
Cu877  O903    1.962   .     S
Cu877  Cu1018  2.686   1_455 S
Cu878  O905    1.962   .     S
Cu878  O909    1.935   .     S
Cu878  N896    2.018   .     S
Cu878  O908    1.952   .     S
Cu878  O904    1.962   .     S
Cu878  Cu947   2.686   .     S
H883   N899    1.046   .     S
H884   N899    1.046   .     S
H885   N900    1.046   .     S
H886   N900    1.046   .     S
H888   C927    1.081   .     S
H889   C996    1.081   1_455 S
O903   C981    1.295   1_455 S
O904   C922    1.295   .     S
O907   C989    1.300   1_455 S
O908   C920    1.300   .     S
C911   O975    1.291   .     A
C911   C914    1.449   .     S
C911   O1043   1.295   .     S
C912   H950    1.084   .     S
C913   C945    1.410   .     A
C913   C922    1.449   .     S
C914   C944    1.410   .     A
C914   C982    1.399   .     S
C915   N966    1.362   .     A
C915   C917    1.417   .     A
C915   H951    1.083   .     S
C916   N965    1.362   .     A
C916   H952    1.083   .     S
C916   C918    1.417   .     A
C917   C939    1.438   .     S
C917   N965    1.376   .     A
C918   C940    1.438   .     S
C918   N966    1.376   .     A
C919   C921    1.471   .     S
C919   O979    1.296   .     A
C919   O1047   1.300   .     S
C920   O980    1.296   .     A
C920   C923    1.471   .     S
C921   C928    1.409   .     A
C921   C926    1.399   .     A
C922   O976    1.291   .     A
C923   C927    1.399   .     A
C923   C929    1.409   .     A
C924   C932    1.401   .     A
C924   H960    1.084   .     S
C924   C926    1.390   .     A
C925   H961    1.084   .     S
C925   C934    1.401   .     A
C925   C927    1.390   .     A
C926   H1029   1.081   .     S
C928   C938    1.453   .     S
C928   C930    1.418   .     A
C929   C937    1.453   .     S
C929   C931    1.418   .     A
C930   C932    1.419   .     A
C930   C935    1.430   .     A
C931   C936    1.430   .     A
C931   C934    1.419   .     A
C932   C312    1.392   1_556 S
C933   C942    1.386   .     A
C933   H962    1.078   .     S
C933   C936    1.412   .     A
C935   C941    1.412   .     A
C935   C306    1.425   1_556 S
C937   N967    1.158   .     T
C938   N968    1.158   .     T
C939   N971    1.157   .     T
C940   N972    1.157   .     T
C941   C943    1.386   .     A
C941   H963    1.078   .     S
C942   H949    1.084   .     S
C943   H957    1.084   .     S
C943   C304    1.392   1_556 S
C944   N969    1.439   .     S
C945   N970    1.439   .     S
C945   C1122   1.391   .     S
C946   H964    1.084   .     S
C946   C983    1.399   .     S
C946   C1154   1.391   .     S
Cu947  O980    1.935   .     S
Cu947  O976    1.962   .     S
Cu947  O977    1.952   .     S
Cu947  N965    2.018   .     S
Cu947  O973    1.962   .     S
Cu948  O975    1.962   .     S
Cu948  O979    1.935   .     S
Cu948  N966    2.018   .     S
Cu948  O978    1.952   .     S
Cu948  O974    1.962   .     S
Cu948  Cu1017  2.686   .     S
H953   N969    1.046   .     S
H954   N969    1.046   .     S
H955   N970    1.046   .     S
H956   N970    1.046   .     S
H958   C997    1.081   .     S
O974   C992    1.295   .     S
O978   C990    1.300   .     S
C981   O1045   1.291   .     A
C981   C984    1.449   .     S
C981   O903    1.295   1_655 S
C982   H1020   1.084   .     S
C983   C1015   1.410   .     A
C983   C992    1.449   .     S
C984   C1014   1.410   .     A
C984   C842    1.399   1_655 S
C985   N1036   1.362   .     A
C985   C987    1.417   .     A
C985   H1021   1.083   .     S
C986   N1035   1.362   .     A
C986   H1022   1.083   .     S
C986   C988    1.417   .     A
C987   C1009   1.438   .     S
C987   N1035   1.376   .     A
C988   C1010   1.438   .     S
C988   N1036   1.376   .     A
C989   C991    1.471   .     S
C989   O1049   1.296   .     A
C989   O907    1.300   1_655 S
C990   O1050   1.296   .     A
C990   C993    1.471   .     S
C991   C998    1.409   .     A
C991   C996    1.399   .     A
C992   O1046   1.291   .     A
C993   C997    1.399   .     A
C993   C999    1.409   .     A
C994   C1002   1.401   .     A
C994   H1030   1.084   .     S
C994   C996    1.390   .     A
C995   H1031   1.084   .     S
C995   C1004   1.401   .     A
C995   C997    1.390   .     A
C996   H889    1.081   1_655 S
C998   C1008   1.453   .     S
C998   C1000   1.418   .     A
C999   C1007   1.453   .     S
C999   C1001   1.418   .     A
C1000  C1002   1.419   .     A
C1000  C1005   1.430   .     A
C1001  C1006   1.430   .     A
C1001  C1004   1.419   .     A
C1002  C382    1.392   1_556 S
C1003  C1012   1.386   .     A
C1003  H1032   1.078   .     S
C1003  C1006   1.412   .     A
C1005  C1011   1.412   .     A
C1005  C376    1.425   1_556 S
C1007  N1037   1.158   .     T
C1008  N1038   1.158   .     T
C1009  N1041   1.157   .     T
C1010  N1042   1.157   .     T
C1011  C1013   1.386   .     A
C1011  H1033   1.078   .     S
C1012  H1019   1.084   .     S
C1013  H1027   1.084   .     S
C1013  C374    1.392   1_556 S
C1014  N1039   1.439   .     S
C1015  N1040   1.439   .     S
C1015  C1192   1.391   .     S
C1016  H1034   1.084   .     S
C1016  C843    1.399   1_655 S
C1016  C1224   1.391   .     S
Cu1017 O1050   1.935   .     S
Cu1017 O1046   1.962   .     S
Cu1017 O1047   1.952   .     S
Cu1017 N1035   2.018   .     S
Cu1017 O1043   1.962   .     S
Cu1018 O1045   1.962   .     S
Cu1018 O1049   1.935   .     S
Cu1018 N1036   2.018   .     S
Cu1018 O1048   1.952   .     S
Cu1018 O1044   1.962   .     S
Cu1018 Cu877   2.686   1_655 S
H1023  N1039   1.046   .     S
H1024  N1039   1.046   .     S
H1025  N1040   1.046   .     S
H1026  N1040   1.046   .     S
H1028  C857    1.081   1_655 S
O1044  C852    1.295   1_655 S
O1048  C850    1.300   1_655 S
C1051  O1115   1.291   .     A
C1051  C1054   1.449   .     S
C1051  O1183   1.295   .     S
C1052  H1090   1.084   .     S
C1052  C1194   1.399   1_455 S
C1053  C1085   1.410   .     A
C1053  C1062   1.449   .     S
C1053  C1226   1.399   1_455 S
C1054  C1084   1.410   .     A
C1054  C1122   1.399   .     S
C1055  N1106   1.362   .     A
C1055  C1057   1.417   .     A
C1055  H1091   1.083   .     S
C1056  N1105   1.362   .     A
C1056  H1092   1.083   .     S
C1056  C1058   1.417   .     A
C1057  C1079   1.438   .     S
C1057  N1105   1.376   .     A
C1058  C1080   1.438   .     S
C1058  N1106   1.376   .     A
C1059  C1061   1.471   .     S
C1059  O1119   1.296   .     A
C1059  O1187   1.300   .     S
C1060  O1120   1.296   .     A
C1060  C1063   1.471   .     S
C1060  O1258   1.300   1_455 S
C1061  C1068   1.409   .     A
C1061  C1066   1.399   .     A
C1062  O1116   1.291   .     A
C1062  O1254   1.295   1_455 S
C1063  C1067   1.399   .     A
C1063  C1069   1.409   .     A
C1064  C1072   1.401   .     A
C1064  H1100   1.084   .     S
C1064  C1066   1.390   .     A
C1065  H1101   1.084   .     S
C1065  C1074   1.401   .     A
C1065  C1067   1.390   .     A
C1066  H1169   1.081   .     S
C1067  H1238   1.081   1_455 S
C1068  C1078   1.453   .     S
C1068  C1070   1.418   .     A
C1069  C1077   1.453   .     S
C1069  C1071   1.418   .     A
C1070  C1072   1.419   .     A
C1070  C1075   1.430   .     A
C1071  C1076   1.430   .     A
C1071  C1074   1.419   .     A
C1072  C452    1.392   1_556 S
C1073  C1082   1.386   .     A
C1073  H1102   1.078   .     S
C1073  C1076   1.412   .     A
C1075  C1081   1.412   .     A
C1075  C446    1.425   1_556 S
C1077  N1107   1.158   .     T
C1078  N1108   1.158   .     T
C1079  N1111   1.157   .     T
C1080  N1112   1.157   .     T
C1081  C1083   1.386   .     A
C1081  H1103   1.078   .     S
C1082  H1089   1.084   .     S
C1083  H1097   1.084   .     S
C1083  C444    1.392   1_556 S
C1084  N1109   1.439   .     S
C1085  N1110   1.439   .     S
C1085  C632    1.391   1_565 S
C1086  H1104   1.084   .     S
C1086  C1123   1.399   .     S
C1086  C664    1.391   1_565 S
Cu1087 O1120   1.935   .     S
Cu1087 O1116   1.962   .     S
Cu1087 O1117   1.952   .     S
Cu1087 N1105   2.018   .     S
Cu1087 O1113   1.962   .     S
Cu1087 Cu1228  2.686   1_455 S
Cu1088 O1115   1.962   .     S
Cu1088 O1119   1.935   .     S
Cu1088 N1106   2.018   .     S
Cu1088 O1118   1.952   .     S
Cu1088 O1114   1.962   .     S
Cu1088 Cu1157  2.686   .     S
H1093  N1109   1.046   .     S
H1094  N1109   1.046   .     S
H1095  N1110   1.046   .     S
H1096  N1110   1.046   .     S
H1098  C1137   1.081   .     S
H1099  C1206   1.081   1_455 S
O1113  C1191   1.295   1_455 S
O1114  C1132   1.295   .     S
O1117  C1199   1.300   1_455 S
O1118  C1130   1.300   .     S
C1121  O1185   1.291   .     A
C1121  C1124   1.449   .     S
C1121  O1253   1.295   .     S
C1122  H1160   1.084   .     S
C1123  C1155   1.410   .     A
C1123  C1132   1.449   .     S
C1124  C1154   1.410   .     A
C1124  C1192   1.399   .     S
C1125  N1176   1.362   .     A
C1125  C1127   1.417   .     A
C1125  H1161   1.083   .     S
C1126  N1175   1.362   .     A
C1126  H1162   1.083   .     S
C1126  C1128   1.417   .     A
C1127  C1149   1.438   .     S
C1127  N1175   1.376   .     A
C1128  C1150   1.438   .     S
C1128  N1176   1.376   .     A
C1129  C1131   1.471   .     S
C1129  O1189   1.296   .     A
C1129  O1257   1.300   .     S
C1130  O1190   1.296   .     A
C1130  C1133   1.471   .     S
C1131  C1138   1.409   .     A
C1131  C1136   1.399   .     A
C1132  O1186   1.291   .     A
C1133  C1137   1.399   .     A
C1133  C1139   1.409   .     A
C1134  C1142   1.401   .     A
C1134  H1170   1.084   .     S
C1134  C1136   1.390   .     A
C1135  H1171   1.084   .     S
C1135  C1144   1.401   .     A
C1135  C1137   1.390   .     A
C1136  H1239   1.081   .     S
C1138  C1148   1.453   .     S
C1138  C1140   1.418   .     A
C1139  C1147   1.453   .     S
C1139  C1141   1.418   .     A
C1140  C1142   1.419   .     A
C1140  C1145   1.430   .     A
C1141  C1146   1.430   .     A
C1141  C1144   1.419   .     A
C1142  C522    1.392   1_556 S
C1143  C1152   1.386   .     A
C1143  H1172   1.078   .     S
C1143  C1146   1.412   .     A
C1145  C1151   1.412   .     A
C1145  C516    1.425   1_556 S
C1147  N1177   1.158   .     T
C1148  N1178   1.158   .     T
C1149  N1181   1.157   .     T
C1150  N1182   1.157   .     T
C1151  C1153   1.386   .     A
C1151  H1173   1.078   .     S
C1152  H1159   1.084   .     S
C1153  H1167   1.084   .     S
C1153  C514    1.392   1_556 S
C1154  N1179   1.439   .     S
C1155  N1180   1.439   .     S
C1155  C702    1.391   1_565 S
C1156  H1174   1.084   .     S
C1156  C1193   1.399   .     S
C1156  C734    1.391   1_565 S
Cu1157 O1190   1.935   .     S
Cu1157 O1186   1.962   .     S
Cu1157 O1187   1.952   .     S
Cu1157 N1175   2.018   .     S
Cu1157 O1183   1.962   .     S
Cu1158 O1185   1.962   .     S
Cu1158 O1189   1.935   .     S
Cu1158 N1176   2.018   .     S
Cu1158 O1188   1.952   .     S
Cu1158 O1184   1.962   .     S
Cu1158 Cu1227  2.686   .     S
H1163  N1179   1.046   .     S
H1164  N1179   1.046   .     S
H1165  N1180   1.046   .     S
H1166  N1180   1.046   .     S
H1168  C1207   1.081   .     S
O1184  C1202   1.295   .     S
O1188  C1200   1.300   .     S
C1191  O1255   1.291   .     A
C1191  C1194   1.449   .     S
C1191  O1113   1.295   1_655 S
C1192  H1230   1.084   .     S
C1193  C1225   1.410   .     A
C1193  C1202   1.449   .     S
C1194  C1224   1.410   .     A
C1194  C1052   1.399   1_655 S
C1195  N1246   1.362   .     A
C1195  C1197   1.417   .     A
C1195  H1231   1.083   .     S
C1196  N1245   1.362   .     A
C1196  H1232   1.083   .     S
C1196  C1198   1.417   .     A
C1197  C1219   1.438   .     S
C1197  N1245   1.376   .     A
C1198  C1220   1.438   .     S
C1198  N1246   1.376   .     A
C1199  C1201   1.471   .     S
C1199  O1259   1.296   .     A
C1199  O1117   1.300   1_655 S
C1200  O1260   1.296   .     A
C1200  C1203   1.471   .     S
C1201  C1208   1.409   .     A
C1201  C1206   1.399   .     A
C1202  O1256   1.291   .     A
C1203  C1207   1.399   .     A
C1203  C1209   1.409   .     A
C1204  C1212   1.401   .     A
C1204  H1240   1.084   .     S
C1204  C1206   1.390   .     A
C1205  H1241   1.084   .     S
C1205  C1214   1.401   .     A
C1205  C1207   1.390   .     A
C1206  H1099   1.081   1_655 S
C1208  C1218   1.453   .     S
C1208  C1210   1.418   .     A
C1209  C1217   1.453   .     S
C1209  C1211   1.418   .     A
C1210  C1212   1.419   .     A
C1210  C1215   1.430   .     A
C1211  C1216   1.430   .     A
C1211  C1214   1.419   .     A
C1212  C592    1.392   1_556 S
C1213  C1222   1.386   .     A
C1213  H1242   1.078   .     S
C1213  C1216   1.412   .     A
C1215  C1221   1.412   .     A
C1215  C586    1.425   1_556 S
C1217  N1247   1.158   .     T
C1218  N1248   1.158   .     T
C1219  N1251   1.157   .     T
C1220  N1252   1.157   .     T
C1221  C1223   1.386   .     A
C1221  H1243   1.078   .     S
C1222  H1229   1.084   .     S
C1223  H1237   1.084   .     S
C1223  C584    1.392   1_556 S
C1224  N1249   1.439   .     S
C1225  N1250   1.439   .     S
C1225  C772    1.391   1_565 S
C1226  H1244   1.084   .     S
C1226  C1053   1.399   1_655 S
C1226  C804    1.391   1_565 S
Cu1227 O1260   1.935   .     S
Cu1227 O1256   1.962   .     S
Cu1227 O1257   1.952   .     S
Cu1227 N1245   2.018   .     S
Cu1227 O1253   1.962   .     S
Cu1228 O1255   1.962   .     S
Cu1228 O1259   1.935   .     S
Cu1228 N1246   2.018   .     S
Cu1228 O1258   1.952   .     S
Cu1228 O1254   1.962   .     S
Cu1228 Cu1087  2.686   1_655 S
H1233  N1249   1.046   .     S
H1234  N1249   1.046   .     S
H1235  N1250   1.046   .     S
H1236  N1250   1.046   .     S
H1238  C1067   1.081   1_655 S
O1254  C1062   1.295   1_655 S
O1258  C1060   1.300   1_655 S
