data_str_m2_o10_o17_pcu_sym.120
_audit_creation_date              2020-01-03
_audit_creation_method            'Materials Studio'
_symmetry_space_group_name_H-M    'P1'
_symmetry_Int_Tables_number       1
_symmetry_cell_setting            triclinic
loop_
_symmetry_equiv_pos_as_xyz
  x,y,z
_cell_length_a                    30.0316
_cell_length_b                    26.1994
_cell_length_c                    22.3143
_cell_angle_alpha                 102.5279
_cell_angle_beta                  94.4062
_cell_angle_gamma                 92.5963
loop_
_atom_site_label
_atom_site_type_symbol
_atom_site_fract_x
_atom_site_fract_y
_atom_site_fract_z
_atom_site_U_iso_or_equiv
_atom_site_adp_type
_atom_site_occupancy
C1     C     0.24761   0.06678   0.15151   0.00000  Uiso   1.00
C2     C     0.25238   0.26656   0.18182   0.00000  Uiso   1.00
C3     C     0.02683   0.13132   0.25943   0.00000  Uiso   1.00
C4     C     0.47317   0.20201   0.07391   0.00000  Uiso   1.00
C5     C     0.23981   0.01154   0.14537   0.00000  Uiso   1.00
C6     C     0.26016   0.32179   0.18796   0.00000  Uiso   1.00
C7     C     0.16443   0.16709   0.16739   0.00000  Uiso   1.00
C8     C     0.33557   0.16624   0.16594   0.00000  Uiso   1.00
C9     C     0.40497   0.18218   0.11830   0.00000  Uiso   1.00
C10    C     0.09503   0.15115   0.21504   0.00000  Uiso   1.00
C11    C     0.38379   0.16510   0.16481   0.00000  Uiso   1.00
C12    C     0.11621   0.16823   0.16852   0.00000  Uiso   1.00
C13    C     0.40880   0.14793   0.21149   0.00000  Uiso   1.00
C14    C     0.09120   0.18540   0.12185   0.00000  Uiso   1.00
C15    C     0.45515   0.14792   0.21221   0.00000  Uiso   1.00
C16    C     0.04485   0.18541   0.12113   0.00000  Uiso   1.00
C17    C     0.47664   0.16614   0.16613   0.00000  Uiso   1.00
C18    C     0.02336   0.16719   0.16721   0.00000  Uiso   1.00
C19    C     0.45145   0.18340   0.11903   0.00000  Uiso   1.00
C20    C     0.04855   0.14994   0.21431   0.00000  Uiso   1.00
C21    C     0.48033   0.13025   0.25832   0.00000  Uiso   1.00
C22    C     0.01967   0.20309   0.07501   0.00000  Uiso   1.00
Cu23   Cu    0.25501   0.17246   0.22813   0.00000  Uiso   1.00
Cu24   Cu    0.24500   0.16087   0.10521   0.00000  Uiso   1.00
H25    H     0.38538   0.19567   0.08254   0.00000  Uiso   1.00
H26    H     0.11462   0.13766   0.25079   0.00000  Uiso   1.00
H27    H     0.39212   0.13435   0.24711   0.00000  Uiso   1.00
H28    H     0.10788   0.19898   0.08623   0.00000  Uiso   1.00
H29    H     0.46406   0.11580   0.29363   0.00000  Uiso   1.00
H30    H     0.03594   0.21753   0.03970   0.00000  Uiso   1.00
H31    H     0.04579   0.11773   0.29559   0.00000  Uiso   1.00
H32    H     0.45421   0.21560   0.03774   0.00000  Uiso   1.00
H33    H     0.21519   0.12589   0.31611   0.00000  Uiso   1.00
H34    H     0.28481   0.20744   0.01723   0.00000  Uiso   1.00
N35    N     0.23745   0.15214   0.01284   0.00000  Uiso   1.00
N36    N     0.26256   0.18119   0.32049   0.00000  Uiso   1.00
O37    O     0.25326   0.09538   0.20659   0.00000  Uiso   1.00
O38    O     0.24675   0.23796   0.12674   0.00000  Uiso   1.00
O39    O     0.24480   0.08559   0.10279   0.00000  Uiso   1.00
O40    O     0.25520   0.24774   0.23055   0.00000  Uiso   1.00
O41    O     0.18936   0.17155   0.21857   0.00000  Uiso   1.00
O42    O     0.31065   0.16179   0.11476   0.00000  Uiso   1.00
O43    O     0.18090   0.16176   0.11477   0.00000  Uiso   1.00
O44    O     0.31910   0.17157   0.21857   0.00000  Uiso   1.00
C45    C     0.20310   0.31869   0.09820   0.00000  Uiso   1.00
O46    O     0.17248   0.29282   0.11283   0.00000  Uiso   1.00
O47    O     0.20312   0.32501   0.03757   0.00000  Uiso   1.00
H48    H     0.17655   0.30553   0.00994   0.00000  Uiso   1.00
C49    C     0.29686   0.01465   0.23516   0.00000  Uiso   1.00
O50    O     0.32753   0.04044   0.22051   0.00000  Uiso   1.00
O51    O     0.29676   0.00843   0.29583   0.00000  Uiso   1.00
H52    H     0.32333   0.02790   0.32347   0.00000  Uiso   1.00
C53    C     0.74761   0.06678   0.15151   0.00000  Uiso   1.00
C54    C     0.75238   0.26656   0.18182   0.00000  Uiso   1.00
C55    C     0.52683   0.13132   0.25943   0.00000  Uiso   1.00
C56    C     0.97317   0.20201   0.07391   0.00000  Uiso   1.00
C57    C     0.73981   0.01154   0.14537   0.00000  Uiso   1.00
C58    C     0.76016   0.32179   0.18796   0.00000  Uiso   1.00
C59    C     0.66443   0.16709   0.16739   0.00000  Uiso   1.00
C60    C     0.83557   0.16624   0.16594   0.00000  Uiso   1.00
C61    C     0.90497   0.18218   0.11830   0.00000  Uiso   1.00
C62    C     0.59503   0.15115   0.21504   0.00000  Uiso   1.00
C63    C     0.88379   0.16510   0.16481   0.00000  Uiso   1.00
C64    C     0.61621   0.16823   0.16852   0.00000  Uiso   1.00
C65    C     0.90880   0.14793   0.21149   0.00000  Uiso   1.00
C66    C     0.59120   0.18540   0.12185   0.00000  Uiso   1.00
C67    C     0.95515   0.14792   0.21221   0.00000  Uiso   1.00
C68    C     0.54485   0.18541   0.12113   0.00000  Uiso   1.00
C69    C     0.97664   0.16614   0.16613   0.00000  Uiso   1.00
C70    C     0.52336   0.16719   0.16721   0.00000  Uiso   1.00
C71    C     0.95145   0.18340   0.11903   0.00000  Uiso   1.00
C72    C     0.54855   0.14994   0.21431   0.00000  Uiso   1.00
C73    C     0.98033   0.13025   0.25832   0.00000  Uiso   1.00
C74    C     0.51967   0.20309   0.07501   0.00000  Uiso   1.00
Cu75   Cu    0.75501   0.17246   0.22813   0.00000  Uiso   1.00
Cu76   Cu    0.74500   0.16087   0.10521   0.00000  Uiso   1.00
H77    H     0.88538   0.19567   0.08254   0.00000  Uiso   1.00
H78    H     0.61462   0.13766   0.25079   0.00000  Uiso   1.00
H79    H     0.89212   0.13435   0.24711   0.00000  Uiso   1.00
H80    H     0.60788   0.19898   0.08623   0.00000  Uiso   1.00
H81    H     0.96406   0.11580   0.29363   0.00000  Uiso   1.00
H82    H     0.53594   0.21753   0.03970   0.00000  Uiso   1.00
H83    H     0.54579   0.11773   0.29559   0.00000  Uiso   1.00
H84    H     0.95421   0.21560   0.03774   0.00000  Uiso   1.00
H85    H     0.71519   0.12589   0.31611   0.00000  Uiso   1.00
H86    H     0.78481   0.20744   0.01723   0.00000  Uiso   1.00
N87    N     0.73745   0.15214   0.01284   0.00000  Uiso   1.00
N88    N     0.76256   0.18119   0.32049   0.00000  Uiso   1.00
O89    O     0.75326   0.09538   0.20659   0.00000  Uiso   1.00
O90    O     0.74675   0.23796   0.12674   0.00000  Uiso   1.00
O91    O     0.74480   0.08559   0.10279   0.00000  Uiso   1.00
O92    O     0.75520   0.24774   0.23055   0.00000  Uiso   1.00
O93    O     0.68936   0.17155   0.21857   0.00000  Uiso   1.00
O94    O     0.81065   0.16179   0.11476   0.00000  Uiso   1.00
O95    O     0.68090   0.16176   0.11477   0.00000  Uiso   1.00
O96    O     0.81910   0.17157   0.21857   0.00000  Uiso   1.00
C97    C     0.70310   0.31869   0.09820   0.00000  Uiso   1.00
O98    O     0.67248   0.29282   0.11283   0.00000  Uiso   1.00
O99    O     0.70312   0.32501   0.03757   0.00000  Uiso   1.00
H100   H     0.67655   0.30553   0.00994   0.00000  Uiso   1.00
C101   C     0.79686   0.01465   0.23516   0.00000  Uiso   1.00
O102   O     0.82753   0.04044   0.22051   0.00000  Uiso   1.00
O103   O     0.79676   0.00843   0.29583   0.00000  Uiso   1.00
H104   H     0.82333   0.02790   0.32347   0.00000  Uiso   1.00
C105   C     0.24761   0.40011   0.15151   0.00000  Uiso   1.00
C106   C     0.25238   0.59989   0.18182   0.00000  Uiso   1.00
C107   C     0.02683   0.46466   0.25943   0.00000  Uiso   1.00
C108   C     0.47317   0.53534   0.07391   0.00000  Uiso   1.00
C109   C     0.23981   0.34488   0.14537   0.00000  Uiso   1.00
C110   C     0.26016   0.65512   0.18796   0.00000  Uiso   1.00
C111   C     0.16443   0.50042   0.16739   0.00000  Uiso   1.00
C112   C     0.33557   0.49958   0.16594   0.00000  Uiso   1.00
C113   C     0.40497   0.51551   0.11830   0.00000  Uiso   1.00
C114   C     0.09503   0.48449   0.21504   0.00000  Uiso   1.00
C115   C     0.38379   0.49844   0.16481   0.00000  Uiso   1.00
C116   C     0.11621   0.50156   0.16852   0.00000  Uiso   1.00
C117   C     0.40880   0.48126   0.21149   0.00000  Uiso   1.00
C118   C     0.09120   0.51874   0.12185   0.00000  Uiso   1.00
C119   C     0.45515   0.48125   0.21221   0.00000  Uiso   1.00
C120   C     0.04485   0.51875   0.12113   0.00000  Uiso   1.00
C121   C     0.47664   0.49948   0.16613   0.00000  Uiso   1.00
C122   C     0.02336   0.50052   0.16721   0.00000  Uiso   1.00
C123   C     0.45145   0.51673   0.11903   0.00000  Uiso   1.00
C124   C     0.04855   0.48327   0.21431   0.00000  Uiso   1.00
C125   C     0.48033   0.46358   0.25832   0.00000  Uiso   1.00
C126   C     0.01967   0.53642   0.07501   0.00000  Uiso   1.00
Cu127  Cu    0.25501   0.50579   0.22813   0.00000  Uiso   1.00
Cu128  Cu    0.24500   0.49421   0.10521   0.00000  Uiso   1.00
H129   H     0.38538   0.52901   0.08254   0.00000  Uiso   1.00
H130   H     0.11462   0.47099   0.25079   0.00000  Uiso   1.00
H131   H     0.39212   0.46768   0.24711   0.00000  Uiso   1.00
H132   H     0.10788   0.53232   0.08623   0.00000  Uiso   1.00
H133   H     0.46406   0.44913   0.29363   0.00000  Uiso   1.00
H134   H     0.03594   0.55087   0.03970   0.00000  Uiso   1.00
H135   H     0.04579   0.45106   0.29559   0.00000  Uiso   1.00
H136   H     0.45421   0.54893   0.03774   0.00000  Uiso   1.00
H137   H     0.21519   0.45923   0.31611   0.00000  Uiso   1.00
H138   H     0.28481   0.54077   0.01723   0.00000  Uiso   1.00
N139   N     0.23745   0.48547   0.01284   0.00000  Uiso   1.00
N140   N     0.26256   0.51453   0.32049   0.00000  Uiso   1.00
O141   O     0.25326   0.42871   0.20659   0.00000  Uiso   1.00
O142   O     0.24675   0.57129   0.12674   0.00000  Uiso   1.00
O143   O     0.24480   0.41892   0.10279   0.00000  Uiso   1.00
O144   O     0.25520   0.58108   0.23055   0.00000  Uiso   1.00
O145   O     0.18936   0.50488   0.21857   0.00000  Uiso   1.00
O146   O     0.31065   0.49512   0.11476   0.00000  Uiso   1.00
O147   O     0.18090   0.49510   0.11477   0.00000  Uiso   1.00
O148   O     0.31910   0.50490   0.21857   0.00000  Uiso   1.00
C149   C     0.20310   0.65202   0.09820   0.00000  Uiso   1.00
O150   O     0.17248   0.62615   0.11283   0.00000  Uiso   1.00
O151   O     0.20312   0.65834   0.03757   0.00000  Uiso   1.00
H152   H     0.17655   0.63886   0.00994   0.00000  Uiso   1.00
C153   C     0.29686   0.34799   0.23516   0.00000  Uiso   1.00
O154   O     0.32753   0.37377   0.22051   0.00000  Uiso   1.00
O155   O     0.29676   0.34177   0.29583   0.00000  Uiso   1.00
H156   H     0.32333   0.36123   0.32347   0.00000  Uiso   1.00
C157   C     0.74761   0.40011   0.15151   0.00000  Uiso   1.00
C158   C     0.75238   0.59989   0.18182   0.00000  Uiso   1.00
C159   C     0.52683   0.46466   0.25943   0.00000  Uiso   1.00
C160   C     0.97317   0.53534   0.07391   0.00000  Uiso   1.00
C161   C     0.73981   0.34488   0.14537   0.00000  Uiso   1.00
C162   C     0.76016   0.65512   0.18796   0.00000  Uiso   1.00
C163   C     0.66443   0.50042   0.16739   0.00000  Uiso   1.00
C164   C     0.83557   0.49958   0.16594   0.00000  Uiso   1.00
C165   C     0.90497   0.51551   0.11830   0.00000  Uiso   1.00
C166   C     0.59503   0.48449   0.21504   0.00000  Uiso   1.00
C167   C     0.88379   0.49844   0.16481   0.00000  Uiso   1.00
C168   C     0.61621   0.50156   0.16852   0.00000  Uiso   1.00
C169   C     0.90880   0.48126   0.21149   0.00000  Uiso   1.00
C170   C     0.59120   0.51874   0.12185   0.00000  Uiso   1.00
C171   C     0.95515   0.48125   0.21221   0.00000  Uiso   1.00
C172   C     0.54485   0.51875   0.12113   0.00000  Uiso   1.00
C173   C     0.97664   0.49948   0.16613   0.00000  Uiso   1.00
C174   C     0.52336   0.50052   0.16721   0.00000  Uiso   1.00
C175   C     0.95145   0.51673   0.11903   0.00000  Uiso   1.00
C176   C     0.54855   0.48327   0.21431   0.00000  Uiso   1.00
C177   C     0.98033   0.46358   0.25832   0.00000  Uiso   1.00
C178   C     0.51967   0.53642   0.07501   0.00000  Uiso   1.00
Cu179  Cu    0.75501   0.50579   0.22813   0.00000  Uiso   1.00
Cu180  Cu    0.74500   0.49421   0.10521   0.00000  Uiso   1.00
H181   H     0.88538   0.52901   0.08254   0.00000  Uiso   1.00
H182   H     0.61462   0.47099   0.25079   0.00000  Uiso   1.00
H183   H     0.89212   0.46768   0.24711   0.00000  Uiso   1.00
H184   H     0.60788   0.53232   0.08623   0.00000  Uiso   1.00
H185   H     0.96406   0.44913   0.29363   0.00000  Uiso   1.00
H186   H     0.53594   0.55087   0.03970   0.00000  Uiso   1.00
H187   H     0.54579   0.45106   0.29559   0.00000  Uiso   1.00
H188   H     0.95421   0.54893   0.03774   0.00000  Uiso   1.00
H189   H     0.71519   0.45923   0.31611   0.00000  Uiso   1.00
H190   H     0.78481   0.54077   0.01723   0.00000  Uiso   1.00
N191   N     0.73745   0.48547   0.01284   0.00000  Uiso   1.00
N192   N     0.76256   0.51453   0.32049   0.00000  Uiso   1.00
O193   O     0.75326   0.42871   0.20659   0.00000  Uiso   1.00
O194   O     0.74675   0.57129   0.12674   0.00000  Uiso   1.00
O195   O     0.74480   0.41892   0.10279   0.00000  Uiso   1.00
O196   O     0.75520   0.58108   0.23055   0.00000  Uiso   1.00
O197   O     0.68936   0.50488   0.21857   0.00000  Uiso   1.00
O198   O     0.81065   0.49512   0.11476   0.00000  Uiso   1.00
O199   O     0.68090   0.49510   0.11477   0.00000  Uiso   1.00
O200   O     0.81910   0.50490   0.21857   0.00000  Uiso   1.00
C201   C     0.70310   0.65202   0.09820   0.00000  Uiso   1.00
O202   O     0.67248   0.62615   0.11283   0.00000  Uiso   1.00
O203   O     0.70312   0.65834   0.03757   0.00000  Uiso   1.00
H204   H     0.67655   0.63886   0.00994   0.00000  Uiso   1.00
C205   C     0.79686   0.34799   0.23516   0.00000  Uiso   1.00
O206   O     0.82753   0.37377   0.22051   0.00000  Uiso   1.00
O207   O     0.79676   0.34177   0.29583   0.00000  Uiso   1.00
H208   H     0.82333   0.36123   0.32347   0.00000  Uiso   1.00
C209   C     0.24761   0.73344   0.15151   0.00000  Uiso   1.00
C210   C     0.25238   0.93322   0.18182   0.00000  Uiso   1.00
C211   C     0.02683   0.79799   0.25943   0.00000  Uiso   1.00
C212   C     0.47317   0.86868   0.07391   0.00000  Uiso   1.00
C213   C     0.23981   0.67821   0.14537   0.00000  Uiso   1.00
C214   C     0.26016   0.98846   0.18796   0.00000  Uiso   1.00
C215   C     0.16443   0.83376   0.16739   0.00000  Uiso   1.00
C216   C     0.33557   0.83291   0.16594   0.00000  Uiso   1.00
C217   C     0.40497   0.84885   0.11830   0.00000  Uiso   1.00
C218   C     0.09503   0.81782   0.21504   0.00000  Uiso   1.00
C219   C     0.38379   0.83177   0.16481   0.00000  Uiso   1.00
C220   C     0.11621   0.83490   0.16852   0.00000  Uiso   1.00
C221   C     0.40880   0.81459   0.21149   0.00000  Uiso   1.00
C222   C     0.09120   0.85207   0.12185   0.00000  Uiso   1.00
C223   C     0.45515   0.81458   0.21221   0.00000  Uiso   1.00
C224   C     0.04485   0.85208   0.12113   0.00000  Uiso   1.00
C225   C     0.47664   0.83281   0.16613   0.00000  Uiso   1.00
C226   C     0.02336   0.83385   0.16721   0.00000  Uiso   1.00
C227   C     0.45145   0.85006   0.11903   0.00000  Uiso   1.00
C228   C     0.04855   0.81660   0.21431   0.00000  Uiso   1.00
C229   C     0.48033   0.79691   0.25832   0.00000  Uiso   1.00
C230   C     0.01967   0.86975   0.07501   0.00000  Uiso   1.00
Cu231  Cu    0.25501   0.83913   0.22813   0.00000  Uiso   1.00
Cu232  Cu    0.24500   0.82754   0.10521   0.00000  Uiso   1.00
H233   H     0.38538   0.86234   0.08254   0.00000  Uiso   1.00
H234   H     0.11462   0.80433   0.25079   0.00000  Uiso   1.00
H235   H     0.39212   0.80101   0.24711   0.00000  Uiso   1.00
H236   H     0.10788   0.86565   0.08623   0.00000  Uiso   1.00
H237   H     0.46406   0.78246   0.29363   0.00000  Uiso   1.00
H238   H     0.03594   0.88420   0.03970   0.00000  Uiso   1.00
H239   H     0.04579   0.78440   0.29559   0.00000  Uiso   1.00
H240   H     0.45421   0.88227   0.03774   0.00000  Uiso   1.00
H241   H     0.21519   0.79256   0.31611   0.00000  Uiso   1.00
H242   H     0.28481   0.87411   0.01723   0.00000  Uiso   1.00
N243   N     0.23745   0.81881   0.01284   0.00000  Uiso   1.00
N244   N     0.26256   0.84786   0.32049   0.00000  Uiso   1.00
O245   O     0.25326   0.76204   0.20659   0.00000  Uiso   1.00
O246   O     0.24675   0.90462   0.12674   0.00000  Uiso   1.00
O247   O     0.24480   0.75226   0.10279   0.00000  Uiso   1.00
O248   O     0.25520   0.91441   0.23055   0.00000  Uiso   1.00
O249   O     0.18936   0.83821   0.21857   0.00000  Uiso   1.00
O250   O     0.31065   0.82845   0.11476   0.00000  Uiso   1.00
O251   O     0.18090   0.82843   0.11477   0.00000  Uiso   1.00
O252   O     0.31910   0.83824   0.21857   0.00000  Uiso   1.00
C253   C     0.20310   0.98535   0.09820   0.00000  Uiso   1.00
O254   O     0.17248   0.95948   0.11283   0.00000  Uiso   1.00
O255   O     0.20312   0.99167   0.03757   0.00000  Uiso   1.00
H256   H     0.17655   0.97220   0.00994   0.00000  Uiso   1.00
C257   C     0.29686   0.68132   0.23516   0.00000  Uiso   1.00
O258   O     0.32753   0.70710   0.22051   0.00000  Uiso   1.00
O259   O     0.29676   0.67510   0.29583   0.00000  Uiso   1.00
H260   H     0.32333   0.69457   0.32347   0.00000  Uiso   1.00
C261   C     0.74761   0.73344   0.15151   0.00000  Uiso   1.00
C262   C     0.75238   0.93322   0.18182   0.00000  Uiso   1.00
C263   C     0.52683   0.79799   0.25943   0.00000  Uiso   1.00
C264   C     0.97317   0.86868   0.07391   0.00000  Uiso   1.00
C265   C     0.73981   0.67821   0.14537   0.00000  Uiso   1.00
C266   C     0.76016   0.98846   0.18796   0.00000  Uiso   1.00
C267   C     0.66443   0.83376   0.16739   0.00000  Uiso   1.00
C268   C     0.83557   0.83291   0.16594   0.00000  Uiso   1.00
C269   C     0.90497   0.84885   0.11830   0.00000  Uiso   1.00
C270   C     0.59503   0.81782   0.21504   0.00000  Uiso   1.00
C271   C     0.88379   0.83177   0.16481   0.00000  Uiso   1.00
C272   C     0.61621   0.83490   0.16852   0.00000  Uiso   1.00
C273   C     0.90880   0.81459   0.21149   0.00000  Uiso   1.00
C274   C     0.59120   0.85207   0.12185   0.00000  Uiso   1.00
C275   C     0.95515   0.81458   0.21221   0.00000  Uiso   1.00
C276   C     0.54485   0.85208   0.12113   0.00000  Uiso   1.00
C277   C     0.97664   0.83281   0.16613   0.00000  Uiso   1.00
C278   C     0.52336   0.83385   0.16721   0.00000  Uiso   1.00
C279   C     0.95145   0.85006   0.11903   0.00000  Uiso   1.00
C280   C     0.54855   0.81660   0.21431   0.00000  Uiso   1.00
C281   C     0.98033   0.79691   0.25832   0.00000  Uiso   1.00
C282   C     0.51967   0.86975   0.07501   0.00000  Uiso   1.00
Cu283  Cu    0.75501   0.83913   0.22813   0.00000  Uiso   1.00
Cu284  Cu    0.74500   0.82754   0.10521   0.00000  Uiso   1.00
H285   H     0.88538   0.86234   0.08254   0.00000  Uiso   1.00
H286   H     0.61462   0.80433   0.25079   0.00000  Uiso   1.00
H287   H     0.89212   0.80101   0.24711   0.00000  Uiso   1.00
H288   H     0.60788   0.86565   0.08623   0.00000  Uiso   1.00
H289   H     0.96406   0.78246   0.29363   0.00000  Uiso   1.00
H290   H     0.53594   0.88420   0.03970   0.00000  Uiso   1.00
H291   H     0.54579   0.78440   0.29559   0.00000  Uiso   1.00
H292   H     0.95421   0.88227   0.03774   0.00000  Uiso   1.00
H293   H     0.71519   0.79256   0.31611   0.00000  Uiso   1.00
H294   H     0.78481   0.87411   0.01723   0.00000  Uiso   1.00
N295   N     0.73745   0.81881   0.01284   0.00000  Uiso   1.00
N296   N     0.76256   0.84786   0.32049   0.00000  Uiso   1.00
O297   O     0.75326   0.76204   0.20659   0.00000  Uiso   1.00
O298   O     0.74675   0.90462   0.12674   0.00000  Uiso   1.00
O299   O     0.74480   0.75226   0.10279   0.00000  Uiso   1.00
O300   O     0.75520   0.91441   0.23055   0.00000  Uiso   1.00
O301   O     0.68936   0.83821   0.21857   0.00000  Uiso   1.00
O302   O     0.81065   0.82845   0.11476   0.00000  Uiso   1.00
O303   O     0.68090   0.82843   0.11477   0.00000  Uiso   1.00
O304   O     0.81910   0.83824   0.21857   0.00000  Uiso   1.00
C305   C     0.70310   0.98535   0.09820   0.00000  Uiso   1.00
O306   O     0.67248   0.95948   0.11283   0.00000  Uiso   1.00
O307   O     0.70312   0.99167   0.03757   0.00000  Uiso   1.00
H308   H     0.67655   0.97220   0.00994   0.00000  Uiso   1.00
C309   C     0.79686   0.68132   0.23516   0.00000  Uiso   1.00
O310   O     0.82753   0.70710   0.22051   0.00000  Uiso   1.00
O311   O     0.79676   0.67510   0.29583   0.00000  Uiso   1.00
H312   H     0.82333   0.69457   0.32347   0.00000  Uiso   1.00
C313   C     0.24761   0.06678   0.48485   0.00000  Uiso   1.00
C314   C     0.25238   0.26656   0.51515   0.00000  Uiso   1.00
C315   C     0.02683   0.13132   0.59276   0.00000  Uiso   1.00
C316   C     0.47317   0.20201   0.40724   0.00000  Uiso   1.00
C317   C     0.23981   0.01154   0.47871   0.00000  Uiso   1.00
C318   C     0.26016   0.32179   0.52130   0.00000  Uiso   1.00
C319   C     0.16443   0.16709   0.50073   0.00000  Uiso   1.00
C320   C     0.33557   0.16624   0.49927   0.00000  Uiso   1.00
C321   C     0.40497   0.18218   0.45163   0.00000  Uiso   1.00
C322   C     0.09503   0.15115   0.54837   0.00000  Uiso   1.00
C323   C     0.38379   0.16510   0.49814   0.00000  Uiso   1.00
C324   C     0.11621   0.16823   0.50186   0.00000  Uiso   1.00
C325   C     0.40880   0.14793   0.54482   0.00000  Uiso   1.00
C326   C     0.09120   0.18540   0.45518   0.00000  Uiso   1.00
C327   C     0.45515   0.14792   0.54554   0.00000  Uiso   1.00
C328   C     0.04485   0.18541   0.45446   0.00000  Uiso   1.00
C329   C     0.47664   0.16614   0.49946   0.00000  Uiso   1.00
C330   C     0.02336   0.16719   0.50054   0.00000  Uiso   1.00
C331   C     0.45145   0.18340   0.45236   0.00000  Uiso   1.00
C332   C     0.04855   0.14994   0.54764   0.00000  Uiso   1.00
C333   C     0.48033   0.13025   0.59165   0.00000  Uiso   1.00
C334   C     0.01967   0.20309   0.40834   0.00000  Uiso   1.00
Cu335  Cu    0.25501   0.17246   0.56146   0.00000  Uiso   1.00
Cu336  Cu    0.24500   0.16087   0.43854   0.00000  Uiso   1.00
H337   H     0.38538   0.19567   0.41588   0.00000  Uiso   1.00
H338   H     0.11462   0.13766   0.58413   0.00000  Uiso   1.00
H339   H     0.39212   0.13435   0.58044   0.00000  Uiso   1.00
H340   H     0.10788   0.19898   0.41956   0.00000  Uiso   1.00
H341   H     0.46406   0.11580   0.62696   0.00000  Uiso   1.00
H342   H     0.03594   0.21753   0.37304   0.00000  Uiso   1.00
H343   H     0.04579   0.11773   0.62893   0.00000  Uiso   1.00
H344   H     0.45421   0.21560   0.37107   0.00000  Uiso   1.00
H345   H     0.21519   0.12589   0.64944   0.00000  Uiso   1.00
H346   H     0.28481   0.20744   0.35056   0.00000  Uiso   1.00
N347   N     0.23745   0.15214   0.34617   0.00000  Uiso   1.00
N348   N     0.26256   0.18119   0.65383   0.00000  Uiso   1.00
O349   O     0.25326   0.09538   0.53992   0.00000  Uiso   1.00
O350   O     0.24675   0.23796   0.46008   0.00000  Uiso   1.00
O351   O     0.24480   0.08559   0.43612   0.00000  Uiso   1.00
O352   O     0.25520   0.24774   0.56388   0.00000  Uiso   1.00
O353   O     0.18936   0.17155   0.55191   0.00000  Uiso   1.00
O354   O     0.31065   0.16179   0.44809   0.00000  Uiso   1.00
O355   O     0.18090   0.16176   0.44810   0.00000  Uiso   1.00
O356   O     0.31910   0.17157   0.55190   0.00000  Uiso   1.00
C357   C     0.20310   0.31869   0.43153   0.00000  Uiso   1.00
O358   O     0.17248   0.29282   0.44616   0.00000  Uiso   1.00
O359   O     0.20312   0.32501   0.37091   0.00000  Uiso   1.00
H360   H     0.17655   0.30553   0.34328   0.00000  Uiso   1.00
C361   C     0.29686   0.01465   0.56849   0.00000  Uiso   1.00
O362   O     0.32753   0.04044   0.55385   0.00000  Uiso   1.00
O363   O     0.29676   0.00843   0.62916   0.00000  Uiso   1.00
H364   H     0.32333   0.02790   0.65680   0.00000  Uiso   1.00
C365   C     0.74761   0.06678   0.48485   0.00000  Uiso   1.00
C366   C     0.75238   0.26656   0.51515   0.00000  Uiso   1.00
C367   C     0.52683   0.13132   0.59276   0.00000  Uiso   1.00
C368   C     0.97317   0.20201   0.40724   0.00000  Uiso   1.00
C369   C     0.73981   0.01154   0.47871   0.00000  Uiso   1.00
C370   C     0.76016   0.32179   0.52130   0.00000  Uiso   1.00
C371   C     0.66443   0.16709   0.50073   0.00000  Uiso   1.00
C372   C     0.83557   0.16624   0.49927   0.00000  Uiso   1.00
C373   C     0.90497   0.18218   0.45163   0.00000  Uiso   1.00
C374   C     0.59503   0.15115   0.54837   0.00000  Uiso   1.00
C375   C     0.88379   0.16510   0.49814   0.00000  Uiso   1.00
C376   C     0.61621   0.16823   0.50186   0.00000  Uiso   1.00
C377   C     0.90880   0.14793   0.54482   0.00000  Uiso   1.00
C378   C     0.59120   0.18540   0.45518   0.00000  Uiso   1.00
C379   C     0.95515   0.14792   0.54554   0.00000  Uiso   1.00
C380   C     0.54485   0.18541   0.45446   0.00000  Uiso   1.00
C381   C     0.97664   0.16614   0.49946   0.00000  Uiso   1.00
C382   C     0.52336   0.16719   0.50054   0.00000  Uiso   1.00
C383   C     0.95145   0.18340   0.45236   0.00000  Uiso   1.00
C384   C     0.54855   0.14994   0.54764   0.00000  Uiso   1.00
C385   C     0.98033   0.13025   0.59165   0.00000  Uiso   1.00
C386   C     0.51967   0.20309   0.40834   0.00000  Uiso   1.00
Cu387  Cu    0.75501   0.17246   0.56146   0.00000  Uiso   1.00
Cu388  Cu    0.74500   0.16087   0.43854   0.00000  Uiso   1.00
H389   H     0.88538   0.19567   0.41588   0.00000  Uiso   1.00
H390   H     0.61462   0.13766   0.58413   0.00000  Uiso   1.00
H391   H     0.89212   0.13435   0.58044   0.00000  Uiso   1.00
H392   H     0.60788   0.19898   0.41956   0.00000  Uiso   1.00
H393   H     0.96406   0.11580   0.62696   0.00000  Uiso   1.00
H394   H     0.53594   0.21753   0.37304   0.00000  Uiso   1.00
H395   H     0.54579   0.11773   0.62893   0.00000  Uiso   1.00
H396   H     0.95421   0.21560   0.37107   0.00000  Uiso   1.00
H397   H     0.71519   0.12589   0.64944   0.00000  Uiso   1.00
H398   H     0.78481   0.20744   0.35056   0.00000  Uiso   1.00
N399   N     0.73745   0.15214   0.34617   0.00000  Uiso   1.00
N400   N     0.76256   0.18119   0.65383   0.00000  Uiso   1.00
O401   O     0.75326   0.09538   0.53992   0.00000  Uiso   1.00
O402   O     0.74675   0.23796   0.46008   0.00000  Uiso   1.00
O403   O     0.74480   0.08559   0.43612   0.00000  Uiso   1.00
O404   O     0.75520   0.24774   0.56388   0.00000  Uiso   1.00
O405   O     0.68936   0.17155   0.55191   0.00000  Uiso   1.00
O406   O     0.81065   0.16179   0.44809   0.00000  Uiso   1.00
O407   O     0.68090   0.16176   0.44810   0.00000  Uiso   1.00
O408   O     0.81910   0.17157   0.55190   0.00000  Uiso   1.00
C409   C     0.70310   0.31869   0.43153   0.00000  Uiso   1.00
O410   O     0.67248   0.29282   0.44616   0.00000  Uiso   1.00
O411   O     0.70312   0.32501   0.37091   0.00000  Uiso   1.00
H412   H     0.67655   0.30553   0.34328   0.00000  Uiso   1.00
C413   C     0.79686   0.01465   0.56849   0.00000  Uiso   1.00
O414   O     0.82753   0.04044   0.55385   0.00000  Uiso   1.00
O415   O     0.79676   0.00843   0.62916   0.00000  Uiso   1.00
H416   H     0.82333   0.02790   0.65680   0.00000  Uiso   1.00
C417   C     0.24761   0.40011   0.48485   0.00000  Uiso   1.00
C418   C     0.25238   0.59989   0.51515   0.00000  Uiso   1.00
C419   C     0.02683   0.46466   0.59276   0.00000  Uiso   1.00
C420   C     0.47317   0.53534   0.40724   0.00000  Uiso   1.00
C421   C     0.23981   0.34488   0.47871   0.00000  Uiso   1.00
C422   C     0.26016   0.65512   0.52130   0.00000  Uiso   1.00
C423   C     0.16443   0.50042   0.50073   0.00000  Uiso   1.00
C424   C     0.33557   0.49958   0.49927   0.00000  Uiso   1.00
C425   C     0.40497   0.51551   0.45163   0.00000  Uiso   1.00
C426   C     0.09503   0.48449   0.54837   0.00000  Uiso   1.00
C427   C     0.38379   0.49844   0.49814   0.00000  Uiso   1.00
C428   C     0.11621   0.50156   0.50186   0.00000  Uiso   1.00
C429   C     0.40880   0.48126   0.54482   0.00000  Uiso   1.00
C430   C     0.09120   0.51874   0.45518   0.00000  Uiso   1.00
C431   C     0.45515   0.48125   0.54554   0.00000  Uiso   1.00
C432   C     0.04485   0.51875   0.45446   0.00000  Uiso   1.00
C433   C     0.47664   0.49948   0.49946   0.00000  Uiso   1.00
C434   C     0.02336   0.50052   0.50054   0.00000  Uiso   1.00
C435   C     0.45145   0.51673   0.45236   0.00000  Uiso   1.00
C436   C     0.04855   0.48327   0.54764   0.00000  Uiso   1.00
C437   C     0.48033   0.46358   0.59165   0.00000  Uiso   1.00
C438   C     0.01967   0.53642   0.40834   0.00000  Uiso   1.00
Cu439  Cu    0.25501   0.50579   0.56146   0.00000  Uiso   1.00
Cu440  Cu    0.24500   0.49421   0.43854   0.00000  Uiso   1.00
H441   H     0.38538   0.52901   0.41588   0.00000  Uiso   1.00
H442   H     0.11462   0.47099   0.58413   0.00000  Uiso   1.00
H443   H     0.39212   0.46768   0.58044   0.00000  Uiso   1.00
H444   H     0.10788   0.53232   0.41956   0.00000  Uiso   1.00
H445   H     0.46406   0.44913   0.62696   0.00000  Uiso   1.00
H446   H     0.03594   0.55087   0.37304   0.00000  Uiso   1.00
H447   H     0.04579   0.45106   0.62893   0.00000  Uiso   1.00
H448   H     0.45421   0.54893   0.37107   0.00000  Uiso   1.00
H449   H     0.21519   0.45923   0.64944   0.00000  Uiso   1.00
H450   H     0.28481   0.54077   0.35056   0.00000  Uiso   1.00
N451   N     0.23745   0.48547   0.34617   0.00000  Uiso   1.00
N452   N     0.26256   0.51453   0.65383   0.00000  Uiso   1.00
O453   O     0.25326   0.42871   0.53992   0.00000  Uiso   1.00
O454   O     0.24675   0.57129   0.46008   0.00000  Uiso   1.00
O455   O     0.24480   0.41892   0.43612   0.00000  Uiso   1.00
O456   O     0.25520   0.58108   0.56388   0.00000  Uiso   1.00
O457   O     0.18936   0.50488   0.55191   0.00000  Uiso   1.00
O458   O     0.31065   0.49512   0.44809   0.00000  Uiso   1.00
O459   O     0.18090   0.49510   0.44810   0.00000  Uiso   1.00
O460   O     0.31910   0.50490   0.55190   0.00000  Uiso   1.00
C461   C     0.20310   0.65202   0.43153   0.00000  Uiso   1.00
O462   O     0.17248   0.62615   0.44616   0.00000  Uiso   1.00
O463   O     0.20312   0.65834   0.37091   0.00000  Uiso   1.00
H464   H     0.17655   0.63886   0.34328   0.00000  Uiso   1.00
C465   C     0.29686   0.34799   0.56849   0.00000  Uiso   1.00
O466   O     0.32753   0.37377   0.55385   0.00000  Uiso   1.00
O467   O     0.29676   0.34177   0.62916   0.00000  Uiso   1.00
H468   H     0.32333   0.36123   0.65680   0.00000  Uiso   1.00
C469   C     0.74761   0.40011   0.48485   0.00000  Uiso   1.00
C470   C     0.75238   0.59989   0.51515   0.00000  Uiso   1.00
C471   C     0.52683   0.46466   0.59276   0.00000  Uiso   1.00
C472   C     0.97317   0.53534   0.40724   0.00000  Uiso   1.00
C473   C     0.73981   0.34488   0.47871   0.00000  Uiso   1.00
C474   C     0.76016   0.65512   0.52130   0.00000  Uiso   1.00
C475   C     0.66443   0.50042   0.50073   0.00000  Uiso   1.00
C476   C     0.83557   0.49958   0.49927   0.00000  Uiso   1.00
C477   C     0.90497   0.51551   0.45163   0.00000  Uiso   1.00
C478   C     0.59503   0.48449   0.54837   0.00000  Uiso   1.00
C479   C     0.88379   0.49844   0.49814   0.00000  Uiso   1.00
C480   C     0.61621   0.50156   0.50186   0.00000  Uiso   1.00
C481   C     0.90880   0.48126   0.54482   0.00000  Uiso   1.00
C482   C     0.59120   0.51874   0.45518   0.00000  Uiso   1.00
C483   C     0.95515   0.48125   0.54554   0.00000  Uiso   1.00
C484   C     0.54485   0.51875   0.45446   0.00000  Uiso   1.00
C485   C     0.97664   0.49948   0.49946   0.00000  Uiso   1.00
C486   C     0.52336   0.50052   0.50054   0.00000  Uiso   1.00
C487   C     0.95145   0.51673   0.45236   0.00000  Uiso   1.00
C488   C     0.54855   0.48327   0.54764   0.00000  Uiso   1.00
C489   C     0.98033   0.46358   0.59165   0.00000  Uiso   1.00
C490   C     0.51967   0.53642   0.40834   0.00000  Uiso   1.00
Cu491  Cu    0.75501   0.50579   0.56146   0.00000  Uiso   1.00
Cu492  Cu    0.74500   0.49421   0.43854   0.00000  Uiso   1.00
H493   H     0.88538   0.52901   0.41588   0.00000  Uiso   1.00
H494   H     0.61462   0.47099   0.58413   0.00000  Uiso   1.00
H495   H     0.89212   0.46768   0.58044   0.00000  Uiso   1.00
H496   H     0.60788   0.53232   0.41956   0.00000  Uiso   1.00
H497   H     0.96406   0.44913   0.62696   0.00000  Uiso   1.00
H498   H     0.53594   0.55087   0.37304   0.00000  Uiso   1.00
H499   H     0.54579   0.45106   0.62893   0.00000  Uiso   1.00
H500   H     0.95421   0.54893   0.37107   0.00000  Uiso   1.00
H501   H     0.71519   0.45923   0.64944   0.00000  Uiso   1.00
H502   H     0.78481   0.54077   0.35056   0.00000  Uiso   1.00
N503   N     0.73745   0.48547   0.34617   0.00000  Uiso   1.00
N504   N     0.76256   0.51453   0.65383   0.00000  Uiso   1.00
O505   O     0.75326   0.42871   0.53992   0.00000  Uiso   1.00
O506   O     0.74675   0.57129   0.46008   0.00000  Uiso   1.00
O507   O     0.74480   0.41892   0.43612   0.00000  Uiso   1.00
O508   O     0.75520   0.58108   0.56388   0.00000  Uiso   1.00
O509   O     0.68936   0.50488   0.55191   0.00000  Uiso   1.00
O510   O     0.81065   0.49512   0.44809   0.00000  Uiso   1.00
O511   O     0.68090   0.49510   0.44810   0.00000  Uiso   1.00
O512   O     0.81910   0.50490   0.55190   0.00000  Uiso   1.00
C513   C     0.70310   0.65202   0.43153   0.00000  Uiso   1.00
O514   O     0.67248   0.62615   0.44616   0.00000  Uiso   1.00
O515   O     0.70312   0.65834   0.37091   0.00000  Uiso   1.00
H516   H     0.67655   0.63886   0.34328   0.00000  Uiso   1.00
C517   C     0.79686   0.34799   0.56849   0.00000  Uiso   1.00
O518   O     0.82753   0.37377   0.55385   0.00000  Uiso   1.00
O519   O     0.79676   0.34177   0.62916   0.00000  Uiso   1.00
H520   H     0.82333   0.36123   0.65680   0.00000  Uiso   1.00
C521   C     0.24761   0.73344   0.48485   0.00000  Uiso   1.00
C522   C     0.25238   0.93322   0.51515   0.00000  Uiso   1.00
C523   C     0.02683   0.79799   0.59276   0.00000  Uiso   1.00
C524   C     0.47317   0.86868   0.40724   0.00000  Uiso   1.00
C525   C     0.23981   0.67821   0.47871   0.00000  Uiso   1.00
C526   C     0.26016   0.98846   0.52130   0.00000  Uiso   1.00
C527   C     0.16443   0.83376   0.50073   0.00000  Uiso   1.00
C528   C     0.33557   0.83291   0.49927   0.00000  Uiso   1.00
C529   C     0.40497   0.84885   0.45163   0.00000  Uiso   1.00
C530   C     0.09503   0.81782   0.54837   0.00000  Uiso   1.00
C531   C     0.38379   0.83177   0.49814   0.00000  Uiso   1.00
C532   C     0.11621   0.83490   0.50186   0.00000  Uiso   1.00
C533   C     0.40880   0.81459   0.54482   0.00000  Uiso   1.00
C534   C     0.09120   0.85207   0.45518   0.00000  Uiso   1.00
C535   C     0.45515   0.81458   0.54554   0.00000  Uiso   1.00
C536   C     0.04485   0.85208   0.45446   0.00000  Uiso   1.00
C537   C     0.47664   0.83281   0.49946   0.00000  Uiso   1.00
C538   C     0.02336   0.83385   0.50054   0.00000  Uiso   1.00
C539   C     0.45145   0.85006   0.45236   0.00000  Uiso   1.00
C540   C     0.04855   0.81660   0.54764   0.00000  Uiso   1.00
C541   C     0.48033   0.79691   0.59165   0.00000  Uiso   1.00
C542   C     0.01967   0.86975   0.40834   0.00000  Uiso   1.00
Cu543  Cu    0.25501   0.83913   0.56146   0.00000  Uiso   1.00
Cu544  Cu    0.24500   0.82754   0.43854   0.00000  Uiso   1.00
H545   H     0.38538   0.86234   0.41588   0.00000  Uiso   1.00
H546   H     0.11462   0.80433   0.58413   0.00000  Uiso   1.00
H547   H     0.39212   0.80101   0.58044   0.00000  Uiso   1.00
H548   H     0.10788   0.86565   0.41956   0.00000  Uiso   1.00
H549   H     0.46406   0.78246   0.62696   0.00000  Uiso   1.00
H550   H     0.03594   0.88420   0.37304   0.00000  Uiso   1.00
H551   H     0.04579   0.78440   0.62893   0.00000  Uiso   1.00
H552   H     0.45421   0.88227   0.37107   0.00000  Uiso   1.00
H553   H     0.21519   0.79256   0.64944   0.00000  Uiso   1.00
H554   H     0.28481   0.87411   0.35056   0.00000  Uiso   1.00
N555   N     0.23745   0.81881   0.34617   0.00000  Uiso   1.00
N556   N     0.26256   0.84786   0.65383   0.00000  Uiso   1.00
O557   O     0.25326   0.76204   0.53992   0.00000  Uiso   1.00
O558   O     0.24675   0.90462   0.46008   0.00000  Uiso   1.00
O559   O     0.24480   0.75226   0.43612   0.00000  Uiso   1.00
O560   O     0.25520   0.91441   0.56388   0.00000  Uiso   1.00
O561   O     0.18936   0.83821   0.55191   0.00000  Uiso   1.00
O562   O     0.31065   0.82845   0.44809   0.00000  Uiso   1.00
O563   O     0.18090   0.82843   0.44810   0.00000  Uiso   1.00
O564   O     0.31910   0.83824   0.55190   0.00000  Uiso   1.00
C565   C     0.20310   0.98535   0.43153   0.00000  Uiso   1.00
O566   O     0.17248   0.95948   0.44616   0.00000  Uiso   1.00
O567   O     0.20312   0.99167   0.37091   0.00000  Uiso   1.00
H568   H     0.17655   0.97220   0.34328   0.00000  Uiso   1.00
C569   C     0.29686   0.68132   0.56849   0.00000  Uiso   1.00
O570   O     0.32753   0.70710   0.55385   0.00000  Uiso   1.00
O571   O     0.29676   0.67510   0.62916   0.00000  Uiso   1.00
H572   H     0.32333   0.69457   0.65680   0.00000  Uiso   1.00
C573   C     0.74761   0.73344   0.48485   0.00000  Uiso   1.00
C574   C     0.75238   0.93322   0.51515   0.00000  Uiso   1.00
C575   C     0.52683   0.79799   0.59276   0.00000  Uiso   1.00
C576   C     0.97317   0.86868   0.40724   0.00000  Uiso   1.00
C577   C     0.73981   0.67821   0.47871   0.00000  Uiso   1.00
C578   C     0.76016   0.98846   0.52130   0.00000  Uiso   1.00
C579   C     0.66443   0.83376   0.50073   0.00000  Uiso   1.00
C580   C     0.83557   0.83291   0.49927   0.00000  Uiso   1.00
C581   C     0.90497   0.84885   0.45163   0.00000  Uiso   1.00
C582   C     0.59503   0.81782   0.54837   0.00000  Uiso   1.00
C583   C     0.88379   0.83177   0.49814   0.00000  Uiso   1.00
C584   C     0.61621   0.83490   0.50186   0.00000  Uiso   1.00
C585   C     0.90880   0.81459   0.54482   0.00000  Uiso   1.00
C586   C     0.59120   0.85207   0.45518   0.00000  Uiso   1.00
C587   C     0.95515   0.81458   0.54554   0.00000  Uiso   1.00
C588   C     0.54485   0.85208   0.45446   0.00000  Uiso   1.00
C589   C     0.97664   0.83281   0.49946   0.00000  Uiso   1.00
C590   C     0.52336   0.83385   0.50054   0.00000  Uiso   1.00
C591   C     0.95145   0.85006   0.45236   0.00000  Uiso   1.00
C592   C     0.54855   0.81660   0.54764   0.00000  Uiso   1.00
C593   C     0.98033   0.79691   0.59165   0.00000  Uiso   1.00
C594   C     0.51967   0.86975   0.40834   0.00000  Uiso   1.00
Cu595  Cu    0.75501   0.83913   0.56146   0.00000  Uiso   1.00
Cu596  Cu    0.74500   0.82754   0.43854   0.00000  Uiso   1.00
H597   H     0.88538   0.86234   0.41588   0.00000  Uiso   1.00
H598   H     0.61462   0.80433   0.58413   0.00000  Uiso   1.00
H599   H     0.89212   0.80101   0.58044   0.00000  Uiso   1.00
H600   H     0.60788   0.86565   0.41956   0.00000  Uiso   1.00
H601   H     0.96406   0.78246   0.62696   0.00000  Uiso   1.00
H602   H     0.53594   0.88420   0.37304   0.00000  Uiso   1.00
H603   H     0.54579   0.78440   0.62893   0.00000  Uiso   1.00
H604   H     0.95421   0.88227   0.37107   0.00000  Uiso   1.00
H605   H     0.71519   0.79256   0.64944   0.00000  Uiso   1.00
H606   H     0.78481   0.87411   0.35056   0.00000  Uiso   1.00
N607   N     0.73745   0.81881   0.34617   0.00000  Uiso   1.00
N608   N     0.76256   0.84786   0.65383   0.00000  Uiso   1.00
O609   O     0.75326   0.76204   0.53992   0.00000  Uiso   1.00
O610   O     0.74675   0.90462   0.46008   0.00000  Uiso   1.00
O611   O     0.74480   0.75226   0.43612   0.00000  Uiso   1.00
O612   O     0.75520   0.91441   0.56388   0.00000  Uiso   1.00
O613   O     0.68936   0.83821   0.55191   0.00000  Uiso   1.00
O614   O     0.81065   0.82845   0.44809   0.00000  Uiso   1.00
O615   O     0.68090   0.82843   0.44810   0.00000  Uiso   1.00
O616   O     0.81910   0.83824   0.55190   0.00000  Uiso   1.00
C617   C     0.70310   0.98535   0.43153   0.00000  Uiso   1.00
O618   O     0.67248   0.95948   0.44616   0.00000  Uiso   1.00
O619   O     0.70312   0.99167   0.37091   0.00000  Uiso   1.00
H620   H     0.67655   0.97220   0.34328   0.00000  Uiso   1.00
C621   C     0.79686   0.68132   0.56849   0.00000  Uiso   1.00
O622   O     0.82753   0.70710   0.55385   0.00000  Uiso   1.00
O623   O     0.79676   0.67510   0.62916   0.00000  Uiso   1.00
H624   H     0.82333   0.69457   0.65680   0.00000  Uiso   1.00
C625   C     0.24761   0.06678   0.81818   0.00000  Uiso   1.00
C626   C     0.25238   0.26656   0.84849   0.00000  Uiso   1.00
C627   C     0.02683   0.13132   0.92609   0.00000  Uiso   1.00
C628   C     0.47317   0.20201   0.74057   0.00000  Uiso   1.00
C629   C     0.23981   0.01154   0.81204   0.00000  Uiso   1.00
C630   C     0.26016   0.32179   0.85463   0.00000  Uiso   1.00
C631   C     0.16443   0.16709   0.83406   0.00000  Uiso   1.00
C632   C     0.33557   0.16624   0.83261   0.00000  Uiso   1.00
C633   C     0.40497   0.18218   0.78496   0.00000  Uiso   1.00
C634   C     0.09503   0.15115   0.88170   0.00000  Uiso   1.00
C635   C     0.38379   0.16510   0.83148   0.00000  Uiso   1.00
C636   C     0.11621   0.16823   0.83519   0.00000  Uiso   1.00
C637   C     0.40880   0.14793   0.87815   0.00000  Uiso   1.00
C638   C     0.09120   0.18540   0.78851   0.00000  Uiso   1.00
C639   C     0.45515   0.14792   0.87887   0.00000  Uiso   1.00
C640   C     0.04485   0.18541   0.78779   0.00000  Uiso   1.00
C641   C     0.47664   0.16614   0.83279   0.00000  Uiso   1.00
C642   C     0.02336   0.16719   0.83387   0.00000  Uiso   1.00
C643   C     0.45145   0.18340   0.78569   0.00000  Uiso   1.00
C644   C     0.04855   0.14994   0.88097   0.00000  Uiso   1.00
C645   C     0.48033   0.13025   0.92499   0.00000  Uiso   1.00
C646   C     0.01967   0.20309   0.74168   0.00000  Uiso   1.00
Cu647  Cu    0.25501   0.17246   0.89479   0.00000  Uiso   1.00
Cu648  Cu    0.24500   0.16087   0.77187   0.00000  Uiso   1.00
H649   H     0.38538   0.19567   0.74921   0.00000  Uiso   1.00
H650   H     0.11462   0.13766   0.91746   0.00000  Uiso   1.00
H651   H     0.39212   0.13435   0.91377   0.00000  Uiso   1.00
H652   H     0.10788   0.19898   0.75289   0.00000  Uiso   1.00
H653   H     0.46406   0.11580   0.96030   0.00000  Uiso   1.00
H654   H     0.03594   0.21753   0.70637   0.00000  Uiso   1.00
H655   H     0.04579   0.11773   0.96226   0.00000  Uiso   1.00
H656   H     0.45421   0.21560   0.70441   0.00000  Uiso   1.00
H657   H     0.21519   0.12589   0.98277   0.00000  Uiso   1.00
H658   H     0.28481   0.20744   0.68389   0.00000  Uiso   1.00
N659   N     0.23745   0.15214   0.67951   0.00000  Uiso   1.00
N660   N     0.26256   0.18119   0.98716   0.00000  Uiso   1.00
O661   O     0.25326   0.09538   0.87326   0.00000  Uiso   1.00
O662   O     0.24675   0.23796   0.79341   0.00000  Uiso   1.00
O663   O     0.24480   0.08559   0.76945   0.00000  Uiso   1.00
O664   O     0.25520   0.24774   0.89721   0.00000  Uiso   1.00
O665   O     0.18936   0.17155   0.88524   0.00000  Uiso   1.00
O666   O     0.31065   0.16179   0.78143   0.00000  Uiso   1.00
O667   O     0.18090   0.16176   0.78143   0.00000  Uiso   1.00
O668   O     0.31910   0.17157   0.88523   0.00000  Uiso   1.00
C669   C     0.20310   0.31869   0.76486   0.00000  Uiso   1.00
O670   O     0.17248   0.29282   0.77949   0.00000  Uiso   1.00
O671   O     0.20312   0.32501   0.70424   0.00000  Uiso   1.00
H672   H     0.17655   0.30553   0.67661   0.00000  Uiso   1.00
C673   C     0.29686   0.01465   0.90182   0.00000  Uiso   1.00
O674   O     0.32753   0.04044   0.88718   0.00000  Uiso   1.00
O675   O     0.29676   0.00843   0.96249   0.00000  Uiso   1.00
H676   H     0.32333   0.02790   0.99013   0.00000  Uiso   1.00
C677   C     0.74761   0.06678   0.81818   0.00000  Uiso   1.00
C678   C     0.75238   0.26656   0.84849   0.00000  Uiso   1.00
C679   C     0.52683   0.13132   0.92609   0.00000  Uiso   1.00
C680   C     0.97317   0.20201   0.74057   0.00000  Uiso   1.00
C681   C     0.73981   0.01154   0.81204   0.00000  Uiso   1.00
C682   C     0.76016   0.32179   0.85463   0.00000  Uiso   1.00
C683   C     0.66443   0.16709   0.83406   0.00000  Uiso   1.00
C684   C     0.83557   0.16624   0.83261   0.00000  Uiso   1.00
C685   C     0.90497   0.18218   0.78496   0.00000  Uiso   1.00
C686   C     0.59503   0.15115   0.88170   0.00000  Uiso   1.00
C687   C     0.88379   0.16510   0.83148   0.00000  Uiso   1.00
C688   C     0.61621   0.16823   0.83519   0.00000  Uiso   1.00
C689   C     0.90880   0.14793   0.87815   0.00000  Uiso   1.00
C690   C     0.59120   0.18540   0.78851   0.00000  Uiso   1.00
C691   C     0.95515   0.14792   0.87887   0.00000  Uiso   1.00
C692   C     0.54485   0.18541   0.78779   0.00000  Uiso   1.00
C693   C     0.97664   0.16614   0.83279   0.00000  Uiso   1.00
C694   C     0.52336   0.16719   0.83387   0.00000  Uiso   1.00
C695   C     0.95145   0.18340   0.78569   0.00000  Uiso   1.00
C696   C     0.54855   0.14994   0.88097   0.00000  Uiso   1.00
C697   C     0.98033   0.13025   0.92499   0.00000  Uiso   1.00
C698   C     0.51967   0.20309   0.74168   0.00000  Uiso   1.00
Cu699  Cu    0.75501   0.17246   0.89479   0.00000  Uiso   1.00
Cu700  Cu    0.74500   0.16087   0.77187   0.00000  Uiso   1.00
H701   H     0.88538   0.19567   0.74921   0.00000  Uiso   1.00
H702   H     0.61462   0.13766   0.91746   0.00000  Uiso   1.00
H703   H     0.89212   0.13435   0.91377   0.00000  Uiso   1.00
H704   H     0.60788   0.19898   0.75289   0.00000  Uiso   1.00
H705   H     0.96406   0.11580   0.96030   0.00000  Uiso   1.00
H706   H     0.53594   0.21753   0.70637   0.00000  Uiso   1.00
H707   H     0.54579   0.11773   0.96226   0.00000  Uiso   1.00
H708   H     0.95421   0.21560   0.70441   0.00000  Uiso   1.00
H709   H     0.71519   0.12589   0.98277   0.00000  Uiso   1.00
H710   H     0.78481   0.20744   0.68389   0.00000  Uiso   1.00
N711   N     0.73745   0.15214   0.67951   0.00000  Uiso   1.00
N712   N     0.76256   0.18119   0.98716   0.00000  Uiso   1.00
O713   O     0.75326   0.09538   0.87326   0.00000  Uiso   1.00
O714   O     0.74675   0.23796   0.79341   0.00000  Uiso   1.00
O715   O     0.74480   0.08559   0.76945   0.00000  Uiso   1.00
O716   O     0.75520   0.24774   0.89721   0.00000  Uiso   1.00
O717   O     0.68936   0.17155   0.88524   0.00000  Uiso   1.00
O718   O     0.81065   0.16179   0.78143   0.00000  Uiso   1.00
O719   O     0.68090   0.16176   0.78143   0.00000  Uiso   1.00
O720   O     0.81910   0.17157   0.88523   0.00000  Uiso   1.00
C721   C     0.70310   0.31869   0.76486   0.00000  Uiso   1.00
O722   O     0.67248   0.29282   0.77949   0.00000  Uiso   1.00
O723   O     0.70312   0.32501   0.70424   0.00000  Uiso   1.00
H724   H     0.67655   0.30553   0.67661   0.00000  Uiso   1.00
C725   C     0.79686   0.01465   0.90182   0.00000  Uiso   1.00
O726   O     0.82753   0.04044   0.88718   0.00000  Uiso   1.00
O727   O     0.79676   0.00843   0.96249   0.00000  Uiso   1.00
H728   H     0.82333   0.02790   0.99013   0.00000  Uiso   1.00
C729   C     0.24761   0.40011   0.81818   0.00000  Uiso   1.00
C730   C     0.25238   0.59989   0.84849   0.00000  Uiso   1.00
C731   C     0.02683   0.46466   0.92609   0.00000  Uiso   1.00
C732   C     0.47317   0.53534   0.74057   0.00000  Uiso   1.00
C733   C     0.23981   0.34488   0.81204   0.00000  Uiso   1.00
C734   C     0.26016   0.65512   0.85463   0.00000  Uiso   1.00
C735   C     0.16443   0.50042   0.83406   0.00000  Uiso   1.00
C736   C     0.33557   0.49958   0.83261   0.00000  Uiso   1.00
C737   C     0.40497   0.51551   0.78496   0.00000  Uiso   1.00
C738   C     0.09503   0.48449   0.88170   0.00000  Uiso   1.00
C739   C     0.38379   0.49844   0.83148   0.00000  Uiso   1.00
C740   C     0.11621   0.50156   0.83519   0.00000  Uiso   1.00
C741   C     0.40880   0.48126   0.87815   0.00000  Uiso   1.00
C742   C     0.09120   0.51874   0.78851   0.00000  Uiso   1.00
C743   C     0.45515   0.48125   0.87887   0.00000  Uiso   1.00
C744   C     0.04485   0.51875   0.78779   0.00000  Uiso   1.00
C745   C     0.47664   0.49948   0.83279   0.00000  Uiso   1.00
C746   C     0.02336   0.50052   0.83387   0.00000  Uiso   1.00
C747   C     0.45145   0.51673   0.78569   0.00000  Uiso   1.00
C748   C     0.04855   0.48327   0.88097   0.00000  Uiso   1.00
C749   C     0.48033   0.46358   0.92499   0.00000  Uiso   1.00
C750   C     0.01967   0.53642   0.74168   0.00000  Uiso   1.00
Cu751  Cu    0.25501   0.50579   0.89479   0.00000  Uiso   1.00
Cu752  Cu    0.24500   0.49421   0.77187   0.00000  Uiso   1.00
H753   H     0.38538   0.52901   0.74921   0.00000  Uiso   1.00
H754   H     0.11462   0.47099   0.91746   0.00000  Uiso   1.00
H755   H     0.39212   0.46768   0.91377   0.00000  Uiso   1.00
H756   H     0.10788   0.53232   0.75289   0.00000  Uiso   1.00
H757   H     0.46406   0.44913   0.96030   0.00000  Uiso   1.00
H758   H     0.03594   0.55087   0.70637   0.00000  Uiso   1.00
H759   H     0.04579   0.45106   0.96226   0.00000  Uiso   1.00
H760   H     0.45421   0.54893   0.70441   0.00000  Uiso   1.00
H761   H     0.21519   0.45923   0.98277   0.00000  Uiso   1.00
H762   H     0.28481   0.54077   0.68389   0.00000  Uiso   1.00
N763   N     0.23745   0.48547   0.67951   0.00000  Uiso   1.00
N764   N     0.26256   0.51453   0.98716   0.00000  Uiso   1.00
O765   O     0.25326   0.42871   0.87326   0.00000  Uiso   1.00
O766   O     0.24675   0.57129   0.79341   0.00000  Uiso   1.00
O767   O     0.24480   0.41892   0.76945   0.00000  Uiso   1.00
O768   O     0.25520   0.58108   0.89721   0.00000  Uiso   1.00
O769   O     0.18936   0.50488   0.88524   0.00000  Uiso   1.00
O770   O     0.31065   0.49512   0.78143   0.00000  Uiso   1.00
O771   O     0.18090   0.49510   0.78143   0.00000  Uiso   1.00
O772   O     0.31910   0.50490   0.88523   0.00000  Uiso   1.00
C773   C     0.20310   0.65202   0.76486   0.00000  Uiso   1.00
O774   O     0.17248   0.62615   0.77949   0.00000  Uiso   1.00
O775   O     0.20312   0.65834   0.70424   0.00000  Uiso   1.00
H776   H     0.17655   0.63886   0.67661   0.00000  Uiso   1.00
C777   C     0.29686   0.34799   0.90182   0.00000  Uiso   1.00
O778   O     0.32753   0.37377   0.88718   0.00000  Uiso   1.00
O779   O     0.29676   0.34177   0.96249   0.00000  Uiso   1.00
H780   H     0.32333   0.36123   0.99013   0.00000  Uiso   1.00
C781   C     0.74761   0.40011   0.81818   0.00000  Uiso   1.00
C782   C     0.75238   0.59989   0.84849   0.00000  Uiso   1.00
C783   C     0.52683   0.46466   0.92609   0.00000  Uiso   1.00
C784   C     0.97317   0.53534   0.74057   0.00000  Uiso   1.00
C785   C     0.73981   0.34488   0.81204   0.00000  Uiso   1.00
C786   C     0.76016   0.65512   0.85463   0.00000  Uiso   1.00
C787   C     0.66443   0.50042   0.83406   0.00000  Uiso   1.00
C788   C     0.83557   0.49958   0.83261   0.00000  Uiso   1.00
C789   C     0.90497   0.51551   0.78496   0.00000  Uiso   1.00
C790   C     0.59503   0.48449   0.88170   0.00000  Uiso   1.00
C791   C     0.88379   0.49844   0.83148   0.00000  Uiso   1.00
C792   C     0.61621   0.50156   0.83519   0.00000  Uiso   1.00
C793   C     0.90880   0.48126   0.87815   0.00000  Uiso   1.00
C794   C     0.59120   0.51874   0.78851   0.00000  Uiso   1.00
C795   C     0.95515   0.48125   0.87887   0.00000  Uiso   1.00
C796   C     0.54485   0.51875   0.78779   0.00000  Uiso   1.00
C797   C     0.97664   0.49948   0.83279   0.00000  Uiso   1.00
C798   C     0.52336   0.50052   0.83387   0.00000  Uiso   1.00
C799   C     0.95145   0.51673   0.78569   0.00000  Uiso   1.00
C800   C     0.54855   0.48327   0.88097   0.00000  Uiso   1.00
C801   C     0.98033   0.46358   0.92499   0.00000  Uiso   1.00
C802   C     0.51967   0.53642   0.74168   0.00000  Uiso   1.00
Cu803  Cu    0.75501   0.50579   0.89479   0.00000  Uiso   1.00
Cu804  Cu    0.74500   0.49421   0.77187   0.00000  Uiso   1.00
H805   H     0.88538   0.52901   0.74921   0.00000  Uiso   1.00
H806   H     0.61462   0.47099   0.91746   0.00000  Uiso   1.00
H807   H     0.89212   0.46768   0.91377   0.00000  Uiso   1.00
H808   H     0.60788   0.53232   0.75289   0.00000  Uiso   1.00
H809   H     0.96406   0.44913   0.96030   0.00000  Uiso   1.00
H810   H     0.53594   0.55087   0.70637   0.00000  Uiso   1.00
H811   H     0.54579   0.45106   0.96226   0.00000  Uiso   1.00
H812   H     0.95421   0.54893   0.70441   0.00000  Uiso   1.00
H813   H     0.71519   0.45923   0.98277   0.00000  Uiso   1.00
H814   H     0.78481   0.54077   0.68389   0.00000  Uiso   1.00
N815   N     0.73745   0.48547   0.67951   0.00000  Uiso   1.00
N816   N     0.76256   0.51453   0.98716   0.00000  Uiso   1.00
O817   O     0.75326   0.42871   0.87326   0.00000  Uiso   1.00
O818   O     0.74675   0.57129   0.79341   0.00000  Uiso   1.00
O819   O     0.74480   0.41892   0.76945   0.00000  Uiso   1.00
O820   O     0.75520   0.58108   0.89721   0.00000  Uiso   1.00
O821   O     0.68936   0.50488   0.88524   0.00000  Uiso   1.00
O822   O     0.81065   0.49512   0.78143   0.00000  Uiso   1.00
O823   O     0.68090   0.49510   0.78143   0.00000  Uiso   1.00
O824   O     0.81910   0.50490   0.88523   0.00000  Uiso   1.00
C825   C     0.70310   0.65202   0.76486   0.00000  Uiso   1.00
O826   O     0.67248   0.62615   0.77949   0.00000  Uiso   1.00
O827   O     0.70312   0.65834   0.70424   0.00000  Uiso   1.00
H828   H     0.67655   0.63886   0.67661   0.00000  Uiso   1.00
C829   C     0.79686   0.34799   0.90182   0.00000  Uiso   1.00
O830   O     0.82753   0.37377   0.88718   0.00000  Uiso   1.00
O831   O     0.79676   0.34177   0.96249   0.00000  Uiso   1.00
H832   H     0.82333   0.36123   0.99013   0.00000  Uiso   1.00
C833   C     0.24761   0.73344   0.81818   0.00000  Uiso   1.00
C834   C     0.25238   0.93322   0.84849   0.00000  Uiso   1.00
C835   C     0.02683   0.79799   0.92609   0.00000  Uiso   1.00
C836   C     0.47317   0.86868   0.74057   0.00000  Uiso   1.00
C837   C     0.23981   0.67821   0.81204   0.00000  Uiso   1.00
C838   C     0.26016   0.98846   0.85463   0.00000  Uiso   1.00
C839   C     0.16443   0.83376   0.83406   0.00000  Uiso   1.00
C840   C     0.33557   0.83291   0.83261   0.00000  Uiso   1.00
C841   C     0.40497   0.84885   0.78496   0.00000  Uiso   1.00
C842   C     0.09503   0.81782   0.88170   0.00000  Uiso   1.00
C843   C     0.38379   0.83177   0.83148   0.00000  Uiso   1.00
C844   C     0.11621   0.83490   0.83519   0.00000  Uiso   1.00
C845   C     0.40880   0.81459   0.87815   0.00000  Uiso   1.00
C846   C     0.09120   0.85207   0.78851   0.00000  Uiso   1.00
C847   C     0.45515   0.81458   0.87887   0.00000  Uiso   1.00
C848   C     0.04485   0.85208   0.78779   0.00000  Uiso   1.00
C849   C     0.47664   0.83281   0.83279   0.00000  Uiso   1.00
C850   C     0.02336   0.83385   0.83387   0.00000  Uiso   1.00
C851   C     0.45145   0.85006   0.78569   0.00000  Uiso   1.00
C852   C     0.04855   0.81660   0.88097   0.00000  Uiso   1.00
C853   C     0.48033   0.79691   0.92499   0.00000  Uiso   1.00
C854   C     0.01967   0.86975   0.74168   0.00000  Uiso   1.00
Cu855  Cu    0.25501   0.83913   0.89479   0.00000  Uiso   1.00
Cu856  Cu    0.24500   0.82754   0.77187   0.00000  Uiso   1.00
H857   H     0.38538   0.86234   0.74921   0.00000  Uiso   1.00
H858   H     0.11462   0.80433   0.91746   0.00000  Uiso   1.00
H859   H     0.39212   0.80101   0.91377   0.00000  Uiso   1.00
H860   H     0.10788   0.86565   0.75289   0.00000  Uiso   1.00
H861   H     0.46406   0.78246   0.96030   0.00000  Uiso   1.00
H862   H     0.03594   0.88420   0.70637   0.00000  Uiso   1.00
H863   H     0.04579   0.78440   0.96226   0.00000  Uiso   1.00
H864   H     0.45421   0.88227   0.70441   0.00000  Uiso   1.00
H865   H     0.21519   0.79256   0.98277   0.00000  Uiso   1.00
H866   H     0.28481   0.87411   0.68389   0.00000  Uiso   1.00
N867   N     0.23745   0.81881   0.67951   0.00000  Uiso   1.00
N868   N     0.26256   0.84786   0.98716   0.00000  Uiso   1.00
O869   O     0.25326   0.76204   0.87326   0.00000  Uiso   1.00
O870   O     0.24675   0.90462   0.79341   0.00000  Uiso   1.00
O871   O     0.24480   0.75226   0.76945   0.00000  Uiso   1.00
O872   O     0.25520   0.91441   0.89721   0.00000  Uiso   1.00
O873   O     0.18936   0.83821   0.88524   0.00000  Uiso   1.00
O874   O     0.31065   0.82845   0.78143   0.00000  Uiso   1.00
O875   O     0.18090   0.82843   0.78143   0.00000  Uiso   1.00
O876   O     0.31910   0.83824   0.88523   0.00000  Uiso   1.00
C877   C     0.20310   0.98535   0.76486   0.00000  Uiso   1.00
O878   O     0.17248   0.95948   0.77949   0.00000  Uiso   1.00
O879   O     0.20312   0.99167   0.70424   0.00000  Uiso   1.00
H880   H     0.17655   0.97220   0.67661   0.00000  Uiso   1.00
C881   C     0.29686   0.68132   0.90182   0.00000  Uiso   1.00
O882   O     0.32753   0.70710   0.88718   0.00000  Uiso   1.00
O883   O     0.29676   0.67510   0.96249   0.00000  Uiso   1.00
H884   H     0.32333   0.69457   0.99013   0.00000  Uiso   1.00
C885   C     0.74761   0.73344   0.81818   0.00000  Uiso   1.00
C886   C     0.75238   0.93322   0.84849   0.00000  Uiso   1.00
C887   C     0.52683   0.79799   0.92609   0.00000  Uiso   1.00
C888   C     0.97317   0.86868   0.74057   0.00000  Uiso   1.00
C889   C     0.73981   0.67821   0.81204   0.00000  Uiso   1.00
C890   C     0.76016   0.98846   0.85463   0.00000  Uiso   1.00
C891   C     0.66443   0.83376   0.83406   0.00000  Uiso   1.00
C892   C     0.83557   0.83291   0.83261   0.00000  Uiso   1.00
C893   C     0.90497   0.84885   0.78496   0.00000  Uiso   1.00
C894   C     0.59503   0.81782   0.88170   0.00000  Uiso   1.00
C895   C     0.88379   0.83177   0.83148   0.00000  Uiso   1.00
C896   C     0.61621   0.83490   0.83519   0.00000  Uiso   1.00
C897   C     0.90880   0.81459   0.87815   0.00000  Uiso   1.00
C898   C     0.59120   0.85207   0.78851   0.00000  Uiso   1.00
C899   C     0.95515   0.81458   0.87887   0.00000  Uiso   1.00
C900   C     0.54485   0.85208   0.78779   0.00000  Uiso   1.00
C901   C     0.97664   0.83281   0.83279   0.00000  Uiso   1.00
C902   C     0.52336   0.83385   0.83387   0.00000  Uiso   1.00
C903   C     0.95145   0.85006   0.78569   0.00000  Uiso   1.00
C904   C     0.54855   0.81660   0.88097   0.00000  Uiso   1.00
C905   C     0.98033   0.79691   0.92499   0.00000  Uiso   1.00
C906   C     0.51967   0.86975   0.74168   0.00000  Uiso   1.00
Cu907  Cu    0.75501   0.83913   0.89479   0.00000  Uiso   1.00
Cu908  Cu    0.74500   0.82754   0.77187   0.00000  Uiso   1.00
H909   H     0.88538   0.86234   0.74921   0.00000  Uiso   1.00
H910   H     0.61462   0.80433   0.91746   0.00000  Uiso   1.00
H911   H     0.89212   0.80101   0.91377   0.00000  Uiso   1.00
H912   H     0.60788   0.86565   0.75289   0.00000  Uiso   1.00
H913   H     0.96406   0.78246   0.96030   0.00000  Uiso   1.00
H914   H     0.53594   0.88420   0.70637   0.00000  Uiso   1.00
H915   H     0.54579   0.78440   0.96226   0.00000  Uiso   1.00
H916   H     0.95421   0.88227   0.70441   0.00000  Uiso   1.00
H917   H     0.71519   0.79256   0.98277   0.00000  Uiso   1.00
H918   H     0.78481   0.87411   0.68389   0.00000  Uiso   1.00
N919   N     0.73745   0.81881   0.67951   0.00000  Uiso   1.00
N920   N     0.76256   0.84786   0.98716   0.00000  Uiso   1.00
O921   O     0.75326   0.76204   0.87326   0.00000  Uiso   1.00
O922   O     0.74675   0.90462   0.79341   0.00000  Uiso   1.00
O923   O     0.74480   0.75226   0.76945   0.00000  Uiso   1.00
O924   O     0.75520   0.91441   0.89721   0.00000  Uiso   1.00
O925   O     0.68936   0.83821   0.88524   0.00000  Uiso   1.00
O926   O     0.81065   0.82845   0.78143   0.00000  Uiso   1.00
O927   O     0.68090   0.82843   0.78143   0.00000  Uiso   1.00
O928   O     0.81910   0.83824   0.88523   0.00000  Uiso   1.00
C929   C     0.70310   0.98535   0.76486   0.00000  Uiso   1.00
O930   O     0.67248   0.95948   0.77949   0.00000  Uiso   1.00
O931   O     0.70312   0.99167   0.70424   0.00000  Uiso   1.00
H932   H     0.67655   0.97220   0.67661   0.00000  Uiso   1.00
C933   C     0.79686   0.68132   0.90182   0.00000  Uiso   1.00
O934   O     0.82753   0.70710   0.88718   0.00000  Uiso   1.00
O935   O     0.79676   0.67510   0.96249   0.00000  Uiso   1.00
H936   H     0.82333   0.69457   0.99013   0.00000  Uiso   1.00
loop_
_geom_bond_atom_site_label_1
_geom_bond_atom_site_label_2
_geom_bond_distance
_geom_bond_site_symmetry_2
_ccdc_geom_bond_type
C1     O37     1.287   .     A
C1     C5      1.430   .     S
C1     O39     1.286   .     A
C2     O38     1.287   .     A
C2     C6      1.430   .     S
C2     O40     1.286   .     A
C3     C20     1.401   .     A
C3     H31     1.084   .     S
C3     C73     1.394   1_455 S
C4     H32     1.084   .     S
C4     C19     1.401   .     A
C4     C74     1.394   .     S
C5     C214    1.355   1_545 S
C5     C253    1.495   1_545 S
C6     C109    1.355   .     S
C6     C153    1.495   .     S
C7     O43     1.291   .     A
C7     C12     1.452   .     S
C7     O41     1.297   .     A
C8     O44     1.291   .     A
C8     C11     1.452   .     S
C8     O42     1.297   .     A
C9     C11     1.400   .     A
C9     H25     1.085   .     S
C9     C19     1.393   .     A
C10    H26     1.085   .     S
C10    C12     1.400   .     A
C10    C20     1.393   .     A
C11    C13     1.402   .     A
C12    C14     1.402   .     A
C13    C15     1.391   .     A
C13    H27     1.085   .     S
C14    H28     1.085   .     S
C14    C16     1.391   .     A
C15    C21     1.401   .     A
C15    C17     1.410   .     A
C16    C18     1.410   .     A
C16    C22     1.401   .     A
C17    C19     1.413   .     A
C17    C70     1.400   .     S
C18    C20     1.413   .     A
C18    C69     1.400   1_455 S
C21    H29     1.084   .     S
C21    C55     1.394   .     S
C22    H30     1.084   .     S
C22    C56     1.394   1_455 S
Cu23   Cu24    2.685   .     S
Cu23   O41     1.965   .     S
Cu23   N36     2.018   .     S
Cu23   O40     1.961   .     S
Cu23   O37     1.969   .     S
Cu23   O44     1.954   .     S
Cu24   O38     1.969   .     S
Cu24   N35     2.018   .     S
Cu24   O39     1.961   .     S
Cu24   O42     1.965   .     S
Cu24   O43     1.954   .     S
H33    N347    1.029   .     S
H34    N660    1.029   1_554 S
N35    H657    1.029   1_554 S
N35    N660    1.296   1_554 S
N36    N347    1.296   .     S
N36    H346    1.029   .     S
C45    O46     1.224   .     D
C45    O47     1.398   .     S
C45    C109    1.495   .     S
O47    H48     1.014   .     S
C49    O50     1.224   .     D
C49    O51     1.398   .     S
C49    C214    1.495   1_545 S
O51    H52     1.014   .     S
C53    O89     1.287   .     A
C53    C57     1.430   .     S
C53    O91     1.286   .     A
C54    O90     1.287   .     A
C54    C58     1.430   .     S
C54    O92     1.286   .     A
C55    C72     1.401   .     A
C55    H83     1.084   .     S
C56    H84     1.084   .     S
C56    C71     1.401   .     A
C56    C22     1.394   1_655 S
C57    C266    1.355   1_545 S
C57    C305    1.495   1_545 S
C58    C161    1.355   .     S
C58    C205    1.495   .     S
C59    O95     1.291   .     A
C59    C64     1.452   .     S
C59    O93     1.297   .     A
C60    O96     1.291   .     A
C60    C63     1.452   .     S
C60    O94     1.297   .     A
C61    C63     1.400   .     A
C61    H77     1.085   .     S
C61    C71     1.393   .     A
C62    H78     1.085   .     S
C62    C64     1.400   .     A
C62    C72     1.393   .     A
C63    C65     1.402   .     A
C64    C66     1.402   .     A
C65    C67     1.391   .     A
C65    H79     1.085   .     S
C66    H80     1.085   .     S
C66    C68     1.391   .     A
C67    C73     1.401   .     A
C67    C69     1.410   .     A
C68    C70     1.410   .     A
C68    C74     1.401   .     A
C69    C71     1.413   .     A
C69    C18     1.400   1_655 S
C70    C72     1.413   .     A
C73    H81     1.084   .     S
C73    C3      1.394   1_655 S
C74    H82     1.084   .     S
Cu75   Cu76    2.685   .     S
Cu75   O93     1.965   .     S
Cu75   N88     2.018   .     S
Cu75   O92     1.961   .     S
Cu75   O89     1.969   .     S
Cu75   O96     1.954   .     S
Cu76   O90     1.969   .     S
Cu76   N87     2.018   .     S
Cu76   O91     1.961   .     S
Cu76   O94     1.965   .     S
Cu76   O95     1.954   .     S
H85    N399    1.029   .     S
H86    N712    1.029   1_554 S
N87    H709    1.029   1_554 S
N87    N712    1.296   1_554 S
N88    N399    1.296   .     S
N88    H398    1.029   .     S
C97    O98     1.224   .     D
C97    O99     1.398   .     S
C97    C161    1.495   .     S
O99    H100    1.014   .     S
C101   O102    1.224   .     D
C101   O103    1.398   .     S
C101   C266    1.495   1_545 S
O103   H104    1.014   .     S
C105   O141    1.287   .     A
C105   C109    1.430   .     S
C105   O143    1.286   .     A
C106   O142    1.287   .     A
C106   C110    1.430   .     S
C106   O144    1.286   .     A
C107   C124    1.401   .     A
C107   H135    1.084   .     S
C107   C177    1.394   1_455 S
C108   H136    1.084   .     S
C108   C123    1.401   .     A
C108   C178    1.394   .     S
C110   C213    1.355   .     S
C110   C257    1.495   .     S
C111   O147    1.291   .     A
C111   C116    1.452   .     S
C111   O145    1.297   .     A
C112   O148    1.291   .     A
C112   C115    1.452   .     S
C112   O146    1.297   .     A
C113   C115    1.400   .     A
C113   H129    1.085   .     S
C113   C123    1.393   .     A
C114   H130    1.085   .     S
C114   C116    1.400   .     A
C114   C124    1.393   .     A
C115   C117    1.402   .     A
C116   C118    1.402   .     A
C117   C119    1.391   .     A
C117   H131    1.085   .     S
C118   H132    1.085   .     S
C118   C120    1.391   .     A
C119   C125    1.401   .     A
C119   C121    1.410   .     A
C120   C122    1.410   .     A
C120   C126    1.401   .     A
C121   C123    1.413   .     A
C121   C174    1.400   .     S
C122   C124    1.413   .     A
C122   C173    1.400   1_455 S
C125   H133    1.084   .     S
C125   C159    1.394   .     S
C126   H134    1.084   .     S
C126   C160    1.394   1_455 S
Cu127  Cu128   2.685   .     S
Cu127  O145    1.965   .     S
Cu127  N140    2.018   .     S
Cu127  O144    1.961   .     S
Cu127  O141    1.969   .     S
Cu127  O148    1.954   .     S
Cu128  O142    1.969   .     S
Cu128  N139    2.018   .     S
Cu128  O143    1.961   .     S
Cu128  O146    1.965   .     S
Cu128  O147    1.954   .     S
H137   N451    1.029   .     S
H138   N764    1.029   1_554 S
N139   H761    1.029   1_554 S
N139   N764    1.296   1_554 S
N140   N451    1.296   .     S
N140   H450    1.029   .     S
C149   O150    1.224   .     D
C149   O151    1.398   .     S
C149   C213    1.495   .     S
O151   H152    1.014   .     S
C153   O154    1.224   .     D
C153   O155    1.398   .     S
O155   H156    1.014   .     S
C157   O193    1.287   .     A
C157   C161    1.430   .     S
C157   O195    1.286   .     A
C158   O194    1.287   .     A
C158   C162    1.430   .     S
C158   O196    1.286   .     A
C159   C176    1.401   .     A
C159   H187    1.084   .     S
C160   H188    1.084   .     S
C160   C175    1.401   .     A
C160   C126    1.394   1_655 S
C162   C265    1.355   .     S
C162   C309    1.495   .     S
C163   O199    1.291   .     A
C163   C168    1.452   .     S
C163   O197    1.297   .     A
C164   O200    1.291   .     A
C164   C167    1.452   .     S
C164   O198    1.297   .     A
C165   C167    1.400   .     A
C165   H181    1.085   .     S
C165   C175    1.393   .     A
C166   H182    1.085   .     S
C166   C168    1.400   .     A
C166   C176    1.393   .     A
C167   C169    1.402   .     A
C168   C170    1.402   .     A
C169   C171    1.391   .     A
C169   H183    1.085   .     S
C170   H184    1.085   .     S
C170   C172    1.391   .     A
C171   C177    1.401   .     A
C171   C173    1.410   .     A
C172   C174    1.410   .     A
C172   C178    1.401   .     A
C173   C175    1.413   .     A
C173   C122    1.400   1_655 S
C174   C176    1.413   .     A
C177   H185    1.084   .     S
C177   C107    1.394   1_655 S
C178   H186    1.084   .     S
Cu179  Cu180   2.685   .     S
Cu179  O197    1.965   .     S
Cu179  N192    2.018   .     S
Cu179  O196    1.961   .     S
Cu179  O193    1.969   .     S
Cu179  O200    1.954   .     S
Cu180  O194    1.969   .     S
Cu180  N191    2.018   .     S
Cu180  O195    1.961   .     S
Cu180  O198    1.965   .     S
Cu180  O199    1.954   .     S
H189   N503    1.029   .     S
H190   N816    1.029   1_554 S
N191   H813    1.029   1_554 S
N191   N816    1.296   1_554 S
N192   N503    1.296   .     S
N192   H502    1.029   .     S
C201   O202    1.224   .     D
C201   O203    1.398   .     S
C201   C265    1.495   .     S
O203   H204    1.014   .     S
C205   O206    1.224   .     D
C205   O207    1.398   .     S
O207   H208    1.014   .     S
C209   O245    1.287   .     A
C209   C213    1.430   .     S
C209   O247    1.286   .     A
C210   O246    1.287   .     A
C210   C214    1.430   .     S
C210   O248    1.286   .     A
C211   C228    1.401   .     A
C211   H239    1.084   .     S
C211   C281    1.394   1_455 S
C212   H240    1.084   .     S
C212   C227    1.401   .     A
C212   C282    1.394   .     S
C214   C5      1.355   1_565 S
C214   C49     1.495   1_565 S
C215   O251    1.291   .     A
C215   C220    1.452   .     S
C215   O249    1.297   .     A
C216   O252    1.291   .     A
C216   C219    1.452   .     S
C216   O250    1.297   .     A
C217   C219    1.400   .     A
C217   H233    1.085   .     S
C217   C227    1.393   .     A
C218   H234    1.085   .     S
C218   C220    1.400   .     A
C218   C228    1.393   .     A
C219   C221    1.402   .     A
C220   C222    1.402   .     A
C221   C223    1.391   .     A
C221   H235    1.085   .     S
C222   H236    1.085   .     S
C222   C224    1.391   .     A
C223   C229    1.401   .     A
C223   C225    1.410   .     A
C224   C226    1.410   .     A
C224   C230    1.401   .     A
C225   C227    1.413   .     A
C225   C278    1.400   .     S
C226   C228    1.413   .     A
C226   C277    1.400   1_455 S
C229   H237    1.084   .     S
C229   C263    1.394   .     S
C230   H238    1.084   .     S
C230   C264    1.394   1_455 S
Cu231  Cu232   2.685   .     S
Cu231  O249    1.965   .     S
Cu231  N244    2.018   .     S
Cu231  O248    1.961   .     S
Cu231  O245    1.969   .     S
Cu231  O252    1.954   .     S
Cu232  O246    1.969   .     S
Cu232  N243    2.018   .     S
Cu232  O247    1.961   .     S
Cu232  O250    1.965   .     S
Cu232  O251    1.954   .     S
H241   N555    1.029   .     S
H242   N868    1.029   1_554 S
N243   H865    1.029   1_554 S
N243   N868    1.296   1_554 S
N244   N555    1.296   .     S
N244   H554    1.029   .     S
C253   O254    1.224   .     D
C253   O255    1.398   .     S
C253   C5      1.495   1_565 S
O255   H256    1.014   .     S
C257   O258    1.224   .     D
C257   O259    1.398   .     S
O259   H260    1.014   .     S
C261   O297    1.287   .     A
C261   C265    1.430   .     S
C261   O299    1.286   .     A
C262   O298    1.287   .     A
C262   C266    1.430   .     S
C262   O300    1.286   .     A
C263   C280    1.401   .     A
C263   H291    1.084   .     S
C264   H292    1.084   .     S
C264   C279    1.401   .     A
C264   C230    1.394   1_655 S
C266   C57     1.355   1_565 S
C266   C101    1.495   1_565 S
C267   O303    1.291   .     A
C267   C272    1.452   .     S
C267   O301    1.297   .     A
C268   O304    1.291   .     A
C268   C271    1.452   .     S
C268   O302    1.297   .     A
C269   C271    1.400   .     A
C269   H285    1.085   .     S
C269   C279    1.393   .     A
C270   H286    1.085   .     S
C270   C272    1.400   .     A
C270   C280    1.393   .     A
C271   C273    1.402   .     A
C272   C274    1.402   .     A
C273   C275    1.391   .     A
C273   H287    1.085   .     S
C274   H288    1.085   .     S
C274   C276    1.391   .     A
C275   C281    1.401   .     A
C275   C277    1.410   .     A
C276   C278    1.410   .     A
C276   C282    1.401   .     A
C277   C279    1.413   .     A
C277   C226    1.400   1_655 S
C278   C280    1.413   .     A
C281   H289    1.084   .     S
C281   C211    1.394   1_655 S
C282   H290    1.084   .     S
Cu283  Cu284   2.685   .     S
Cu283  O301    1.965   .     S
Cu283  N296    2.018   .     S
Cu283  O300    1.961   .     S
Cu283  O297    1.969   .     S
Cu283  O304    1.954   .     S
Cu284  O298    1.969   .     S
Cu284  N295    2.018   .     S
Cu284  O299    1.961   .     S
Cu284  O302    1.965   .     S
Cu284  O303    1.954   .     S
H293   N607    1.029   .     S
H294   N920    1.029   1_554 S
N295   H917    1.029   1_554 S
N295   N920    1.296   1_554 S
N296   N607    1.296   .     S
N296   H606    1.029   .     S
C305   O306    1.224   .     D
C305   O307    1.398   .     S
C305   C57     1.495   1_565 S
O307   H308    1.014   .     S
C309   O310    1.224   .     D
C309   O311    1.398   .     S
O311   H312    1.014   .     S
C313   O349    1.287   .     A
C313   C317    1.430   .     S
C313   O351    1.286   .     A
C314   O350    1.287   .     A
C314   C318    1.430   .     S
C314   O352    1.286   .     A
C315   C332    1.401   .     A
C315   H343    1.084   .     S
C315   C385    1.394   1_455 S
C316   H344    1.084   .     S
C316   C331    1.401   .     A
C316   C386    1.394   .     S
C317   C526    1.355   1_545 S
C317   C565    1.495   1_545 S
C318   C421    1.355   .     S
C318   C465    1.495   .     S
C319   O355    1.291   .     A
C319   C324    1.452   .     S
C319   O353    1.297   .     A
C320   O356    1.291   .     A
C320   C323    1.452   .     S
C320   O354    1.297   .     A
C321   C323    1.400   .     A
C321   H337    1.085   .     S
C321   C331    1.393   .     A
C322   H338    1.085   .     S
C322   C324    1.400   .     A
C322   C332    1.393   .     A
C323   C325    1.402   .     A
C324   C326    1.402   .     A
C325   C327    1.391   .     A
C325   H339    1.085   .     S
C326   H340    1.085   .     S
C326   C328    1.391   .     A
C327   C333    1.401   .     A
C327   C329    1.410   .     A
C328   C330    1.410   .     A
C328   C334    1.401   .     A
C329   C331    1.413   .     A
C329   C382    1.400   .     S
C330   C332    1.413   .     A
C330   C381    1.400   1_455 S
C333   H341    1.084   .     S
C333   C367    1.394   .     S
C334   H342    1.084   .     S
C334   C368    1.394   1_455 S
Cu335  Cu336   2.685   .     S
Cu335  O353    1.965   .     S
Cu335  N348    2.018   .     S
Cu335  O352    1.961   .     S
Cu335  O349    1.969   .     S
Cu335  O356    1.954   .     S
Cu336  O350    1.969   .     S
Cu336  N347    2.018   .     S
Cu336  O351    1.961   .     S
Cu336  O354    1.965   .     S
Cu336  O355    1.954   .     S
H345   N659    1.029   .     S
N348   N659    1.296   .     S
N348   H658    1.029   .     S
C357   O358    1.224   .     D
C357   O359    1.398   .     S
C357   C421    1.495   .     S
O359   H360    1.014   .     S
C361   O362    1.224   .     D
C361   O363    1.398   .     S
C361   C526    1.495   1_545 S
O363   H364    1.014   .     S
C365   O401    1.287   .     A
C365   C369    1.430   .     S
C365   O403    1.286   .     A
C366   O402    1.287   .     A
C366   C370    1.430   .     S
C366   O404    1.286   .     A
C367   C384    1.401   .     A
C367   H395    1.084   .     S
C368   H396    1.084   .     S
C368   C383    1.401   .     A
C368   C334    1.394   1_655 S
C369   C578    1.355   1_545 S
C369   C617    1.495   1_545 S
C370   C473    1.355   .     S
C370   C517    1.495   .     S
C371   O407    1.291   .     A
C371   C376    1.452   .     S
C371   O405    1.297   .     A
C372   O408    1.291   .     A
C372   C375    1.452   .     S
C372   O406    1.297   .     A
C373   C375    1.400   .     A
C373   H389    1.085   .     S
C373   C383    1.393   .     A
C374   H390    1.085   .     S
C374   C376    1.400   .     A
C374   C384    1.393   .     A
C375   C377    1.402   .     A
C376   C378    1.402   .     A
C377   C379    1.391   .     A
C377   H391    1.085   .     S
C378   H392    1.085   .     S
C378   C380    1.391   .     A
C379   C385    1.401   .     A
C379   C381    1.410   .     A
C380   C382    1.410   .     A
C380   C386    1.401   .     A
C381   C383    1.413   .     A
C381   C330    1.400   1_655 S
C382   C384    1.413   .     A
C385   H393    1.084   .     S
C385   C315    1.394   1_655 S
C386   H394    1.084   .     S
Cu387  Cu388   2.685   .     S
Cu387  O405    1.965   .     S
Cu387  N400    2.018   .     S
Cu387  O404    1.961   .     S
Cu387  O401    1.969   .     S
Cu387  O408    1.954   .     S
Cu388  O402    1.969   .     S
Cu388  N399    2.018   .     S
Cu388  O403    1.961   .     S
Cu388  O406    1.965   .     S
Cu388  O407    1.954   .     S
H397   N711    1.029   .     S
N400   N711    1.296   .     S
N400   H710    1.029   .     S
C409   O410    1.224   .     D
C409   O411    1.398   .     S
C409   C473    1.495   .     S
O411   H412    1.014   .     S
C413   O414    1.224   .     D
C413   O415    1.398   .     S
C413   C578    1.495   1_545 S
O415   H416    1.014   .     S
C417   O453    1.287   .     A
C417   C421    1.430   .     S
C417   O455    1.286   .     A
C418   O454    1.287   .     A
C418   C422    1.430   .     S
C418   O456    1.286   .     A
C419   C436    1.401   .     A
C419   H447    1.084   .     S
C419   C489    1.394   1_455 S
C420   H448    1.084   .     S
C420   C435    1.401   .     A
C420   C490    1.394   .     S
C422   C525    1.355   .     S
C422   C569    1.495   .     S
C423   O459    1.291   .     A
C423   C428    1.452   .     S
C423   O457    1.297   .     A
C424   O460    1.291   .     A
C424   C427    1.452   .     S
C424   O458    1.297   .     A
C425   C427    1.400   .     A
C425   H441    1.085   .     S
C425   C435    1.393   .     A
C426   H442    1.085   .     S
C426   C428    1.400   .     A
C426   C436    1.393   .     A
C427   C429    1.402   .     A
C428   C430    1.402   .     A
C429   C431    1.391   .     A
C429   H443    1.085   .     S
C430   H444    1.085   .     S
C430   C432    1.391   .     A
C431   C437    1.401   .     A
C431   C433    1.410   .     A
C432   C434    1.410   .     A
C432   C438    1.401   .     A
C433   C435    1.413   .     A
C433   C486    1.400   .     S
C434   C436    1.413   .     A
C434   C485    1.400   1_455 S
C437   H445    1.084   .     S
C437   C471    1.394   .     S
C438   H446    1.084   .     S
C438   C472    1.394   1_455 S
Cu439  Cu440   2.685   .     S
Cu439  O457    1.965   .     S
Cu439  N452    2.018   .     S
Cu439  O456    1.961   .     S
Cu439  O453    1.969   .     S
Cu439  O460    1.954   .     S
Cu440  O454    1.969   .     S
Cu440  N451    2.018   .     S
Cu440  O455    1.961   .     S
Cu440  O458    1.965   .     S
Cu440  O459    1.954   .     S
H449   N763    1.029   .     S
N452   N763    1.296   .     S
N452   H762    1.029   .     S
C461   O462    1.224   .     D
C461   O463    1.398   .     S
C461   C525    1.495   .     S
O463   H464    1.014   .     S
C465   O466    1.224   .     D
C465   O467    1.398   .     S
O467   H468    1.014   .     S
C469   O505    1.287   .     A
C469   C473    1.430   .     S
C469   O507    1.286   .     A
C470   O506    1.287   .     A
C470   C474    1.430   .     S
C470   O508    1.286   .     A
C471   C488    1.401   .     A
C471   H499    1.084   .     S
C472   H500    1.084   .     S
C472   C487    1.401   .     A
C472   C438    1.394   1_655 S
C474   C577    1.355   .     S
C474   C621    1.495   .     S
C475   O511    1.291   .     A
C475   C480    1.452   .     S
C475   O509    1.297   .     A
C476   O512    1.291   .     A
C476   C479    1.452   .     S
C476   O510    1.297   .     A
C477   C479    1.400   .     A
C477   H493    1.085   .     S
C477   C487    1.393   .     A
C478   H494    1.085   .     S
C478   C480    1.400   .     A
C478   C488    1.393   .     A
C479   C481    1.402   .     A
C480   C482    1.402   .     A
C481   C483    1.391   .     A
C481   H495    1.085   .     S
C482   H496    1.085   .     S
C482   C484    1.391   .     A
C483   C489    1.401   .     A
C483   C485    1.410   .     A
C484   C486    1.410   .     A
C484   C490    1.401   .     A
C485   C487    1.413   .     A
C485   C434    1.400   1_655 S
C486   C488    1.413   .     A
C489   H497    1.084   .     S
C489   C419    1.394   1_655 S
C490   H498    1.084   .     S
Cu491  Cu492   2.685   .     S
Cu491  O509    1.965   .     S
Cu491  N504    2.018   .     S
Cu491  O508    1.961   .     S
Cu491  O505    1.969   .     S
Cu491  O512    1.954   .     S
Cu492  O506    1.969   .     S
Cu492  N503    2.018   .     S
Cu492  O507    1.961   .     S
Cu492  O510    1.965   .     S
Cu492  O511    1.954   .     S
H501   N815    1.029   .     S
N504   N815    1.296   .     S
N504   H814    1.029   .     S
C513   O514    1.224   .     D
C513   O515    1.398   .     S
C513   C577    1.495   .     S
O515   H516    1.014   .     S
C517   O518    1.224   .     D
C517   O519    1.398   .     S
O519   H520    1.014   .     S
C521   O557    1.287   .     A
C521   C525    1.430   .     S
C521   O559    1.286   .     A
C522   O558    1.287   .     A
C522   C526    1.430   .     S
C522   O560    1.286   .     A
C523   C540    1.401   .     A
C523   H551    1.084   .     S
C523   C593    1.394   1_455 S
C524   H552    1.084   .     S
C524   C539    1.401   .     A
C524   C594    1.394   .     S
C526   C317    1.355   1_565 S
C526   C361    1.495   1_565 S
C527   O563    1.291   .     A
C527   C532    1.452   .     S
C527   O561    1.297   .     A
C528   O564    1.291   .     A
C528   C531    1.452   .     S
C528   O562    1.297   .     A
C529   C531    1.400   .     A
C529   H545    1.085   .     S
C529   C539    1.393   .     A
C530   H546    1.085   .     S
C530   C532    1.400   .     A
C530   C540    1.393   .     A
C531   C533    1.402   .     A
C532   C534    1.402   .     A
C533   C535    1.391   .     A
C533   H547    1.085   .     S
C534   H548    1.085   .     S
C534   C536    1.391   .     A
C535   C541    1.401   .     A
C535   C537    1.410   .     A
C536   C538    1.410   .     A
C536   C542    1.401   .     A
C537   C539    1.413   .     A
C537   C590    1.400   .     S
C538   C540    1.413   .     A
C538   C589    1.400   1_455 S
C541   H549    1.084   .     S
C541   C575    1.394   .     S
C542   H550    1.084   .     S
C542   C576    1.394   1_455 S
Cu543  Cu544   2.685   .     S
Cu543  O561    1.965   .     S
Cu543  N556    2.018   .     S
Cu543  O560    1.961   .     S
Cu543  O557    1.969   .     S
Cu543  O564    1.954   .     S
Cu544  O558    1.969   .     S
Cu544  N555    2.018   .     S
Cu544  O559    1.961   .     S
Cu544  O562    1.965   .     S
Cu544  O563    1.954   .     S
H553   N867    1.029   .     S
N556   N867    1.296   .     S
N556   H866    1.029   .     S
C565   O566    1.224   .     D
C565   O567    1.398   .     S
C565   C317    1.495   1_565 S
O567   H568    1.014   .     S
C569   O570    1.224   .     D
C569   O571    1.398   .     S
O571   H572    1.014   .     S
C573   O609    1.287   .     A
C573   C577    1.430   .     S
C573   O611    1.286   .     A
C574   O610    1.287   .     A
C574   C578    1.430   .     S
C574   O612    1.286   .     A
C575   C592    1.401   .     A
C575   H603    1.084   .     S
C576   H604    1.084   .     S
C576   C591    1.401   .     A
C576   C542    1.394   1_655 S
C578   C369    1.355   1_565 S
C578   C413    1.495   1_565 S
C579   O615    1.291   .     A
C579   C584    1.452   .     S
C579   O613    1.297   .     A
C580   O616    1.291   .     A
C580   C583    1.452   .     S
C580   O614    1.297   .     A
C581   C583    1.400   .     A
C581   H597    1.085   .     S
C581   C591    1.393   .     A
C582   H598    1.085   .     S
C582   C584    1.400   .     A
C582   C592    1.393   .     A
C583   C585    1.402   .     A
C584   C586    1.402   .     A
C585   C587    1.391   .     A
C585   H599    1.085   .     S
C586   H600    1.085   .     S
C586   C588    1.391   .     A
C587   C593    1.401   .     A
C587   C589    1.410   .     A
C588   C590    1.410   .     A
C588   C594    1.401   .     A
C589   C591    1.413   .     A
C589   C538    1.400   1_655 S
C590   C592    1.413   .     A
C593   H601    1.084   .     S
C593   C523    1.394   1_655 S
C594   H602    1.084   .     S
Cu595  Cu596   2.685   .     S
Cu595  O613    1.965   .     S
Cu595  N608    2.018   .     S
Cu595  O612    1.961   .     S
Cu595  O609    1.969   .     S
Cu595  O616    1.954   .     S
Cu596  O610    1.969   .     S
Cu596  N607    2.018   .     S
Cu596  O611    1.961   .     S
Cu596  O614    1.965   .     S
Cu596  O615    1.954   .     S
H605   N919    1.029   .     S
N608   N919    1.296   .     S
N608   H918    1.029   .     S
C617   O618    1.224   .     D
C617   O619    1.398   .     S
C617   C369    1.495   1_565 S
O619   H620    1.014   .     S
C621   O622    1.224   .     D
C621   O623    1.398   .     S
O623   H624    1.014   .     S
C625   O661    1.287   .     A
C625   C629    1.430   .     S
C625   O663    1.286   .     A
C626   O662    1.287   .     A
C626   C630    1.430   .     S
C626   O664    1.286   .     A
C627   C644    1.401   .     A
C627   H655    1.084   .     S
C627   C697    1.394   1_455 S
C628   H656    1.084   .     S
C628   C643    1.401   .     A
C628   C698    1.394   .     S
C629   C838    1.355   1_545 S
C629   C877    1.495   1_545 S
C630   C733    1.355   .     S
C630   C777    1.495   .     S
C631   O667    1.291   .     A
C631   C636    1.452   .     S
C631   O665    1.297   .     A
C632   O668    1.291   .     A
C632   C635    1.452   .     S
C632   O666    1.297   .     A
C633   C635    1.400   .     A
C633   H649    1.085   .     S
C633   C643    1.393   .     A
C634   H650    1.085   .     S
C634   C636    1.400   .     A
C634   C644    1.393   .     A
C635   C637    1.402   .     A
C636   C638    1.402   .     A
C637   C639    1.391   .     A
C637   H651    1.085   .     S
C638   H652    1.085   .     S
C638   C640    1.391   .     A
C639   C645    1.401   .     A
C639   C641    1.410   .     A
C640   C642    1.410   .     A
C640   C646    1.401   .     A
C641   C643    1.413   .     A
C641   C694    1.400   .     S
C642   C644    1.413   .     A
C642   C693    1.400   1_455 S
C645   H653    1.084   .     S
C645   C679    1.394   .     S
C646   H654    1.084   .     S
C646   C680    1.394   1_455 S
Cu647  Cu648   2.685   .     S
Cu647  O665    1.965   .     S
Cu647  N660    2.018   .     S
Cu647  O664    1.961   .     S
Cu647  O661    1.969   .     S
Cu647  O668    1.954   .     S
Cu648  O662    1.969   .     S
Cu648  N659    2.018   .     S
Cu648  O663    1.961   .     S
Cu648  O666    1.965   .     S
Cu648  O667    1.954   .     S
H657   N35     1.029   1_556 S
N660   N35     1.296   1_556 S
N660   H34     1.029   1_556 S
C669   O670    1.224   .     D
C669   O671    1.398   .     S
C669   C733    1.495   .     S
O671   H672    1.014   .     S
C673   O674    1.224   .     D
C673   O675    1.398   .     S
C673   C838    1.495   1_545 S
O675   H676    1.014   .     S
C677   O713    1.287   .     A
C677   C681    1.430   .     S
C677   O715    1.286   .     A
C678   O714    1.287   .     A
C678   C682    1.430   .     S
C678   O716    1.286   .     A
C679   C696    1.401   .     A
C679   H707    1.084   .     S
C680   H708    1.084   .     S
C680   C695    1.401   .     A
C680   C646    1.394   1_655 S
C681   C890    1.355   1_545 S
C681   C929    1.495   1_545 S
C682   C785    1.355   .     S
C682   C829    1.495   .     S
C683   O719    1.291   .     A
C683   C688    1.452   .     S
C683   O717    1.297   .     A
C684   O720    1.291   .     A
C684   C687    1.452   .     S
C684   O718    1.297   .     A
C685   C687    1.400   .     A
C685   H701    1.085   .     S
C685   C695    1.393   .     A
C686   H702    1.085   .     S
C686   C688    1.400   .     A
C686   C696    1.393   .     A
C687   C689    1.402   .     A
C688   C690    1.402   .     A
C689   C691    1.391   .     A
C689   H703    1.085   .     S
C690   H704    1.085   .     S
C690   C692    1.391   .     A
C691   C697    1.401   .     A
C691   C693    1.410   .     A
C692   C694    1.410   .     A
C692   C698    1.401   .     A
C693   C695    1.413   .     A
C693   C642    1.400   1_655 S
C694   C696    1.413   .     A
C697   H705    1.084   .     S
C697   C627    1.394   1_655 S
C698   H706    1.084   .     S
Cu699  Cu700   2.685   .     S
Cu699  O717    1.965   .     S
Cu699  N712    2.018   .     S
Cu699  O716    1.961   .     S
Cu699  O713    1.969   .     S
Cu699  O720    1.954   .     S
Cu700  O714    1.969   .     S
Cu700  N711    2.018   .     S
Cu700  O715    1.961   .     S
Cu700  O718    1.965   .     S
Cu700  O719    1.954   .     S
H709   N87     1.029   1_556 S
N712   N87     1.296   1_556 S
N712   H86     1.029   1_556 S
C721   O722    1.224   .     D
C721   O723    1.398   .     S
C721   C785    1.495   .     S
O723   H724    1.014   .     S
C725   O726    1.224   .     D
C725   O727    1.398   .     S
C725   C890    1.495   1_545 S
O727   H728    1.014   .     S
C729   O765    1.287   .     A
C729   C733    1.430   .     S
C729   O767    1.286   .     A
C730   O766    1.287   .     A
C730   C734    1.430   .     S
C730   O768    1.286   .     A
C731   C748    1.401   .     A
C731   H759    1.084   .     S
C731   C801    1.394   1_455 S
C732   H760    1.084   .     S
C732   C747    1.401   .     A
C732   C802    1.394   .     S
C734   C837    1.355   .     S
C734   C881    1.495   .     S
C735   O771    1.291   .     A
C735   C740    1.452   .     S
C735   O769    1.297   .     A
C736   O772    1.291   .     A
C736   C739    1.452   .     S
C736   O770    1.297   .     A
C737   C739    1.400   .     A
C737   H753    1.085   .     S
C737   C747    1.393   .     A
C738   H754    1.085   .     S
C738   C740    1.400   .     A
C738   C748    1.393   .     A
C739   C741    1.402   .     A
C740   C742    1.402   .     A
C741   C743    1.391   .     A
C741   H755    1.085   .     S
C742   H756    1.085   .     S
C742   C744    1.391   .     A
C743   C749    1.401   .     A
C743   C745    1.410   .     A
C744   C746    1.410   .     A
C744   C750    1.401   .     A
C745   C747    1.413   .     A
C745   C798    1.400   .     S
C746   C748    1.413   .     A
C746   C797    1.400   1_455 S
C749   H757    1.084   .     S
C749   C783    1.394   .     S
C750   H758    1.084   .     S
C750   C784    1.394   1_455 S
Cu751  Cu752   2.685   .     S
Cu751  O769    1.965   .     S
Cu751  N764    2.018   .     S
Cu751  O768    1.961   .     S
Cu751  O765    1.969   .     S
Cu751  O772    1.954   .     S
Cu752  O766    1.969   .     S
Cu752  N763    2.018   .     S
Cu752  O767    1.961   .     S
Cu752  O770    1.965   .     S
Cu752  O771    1.954   .     S
H761   N139    1.029   1_556 S
N764   N139    1.296   1_556 S
N764   H138    1.029   1_556 S
C773   O774    1.224   .     D
C773   O775    1.398   .     S
C773   C837    1.495   .     S
O775   H776    1.014   .     S
C777   O778    1.224   .     D
C777   O779    1.398   .     S
O779   H780    1.014   .     S
C781   O817    1.287   .     A
C781   C785    1.430   .     S
C781   O819    1.286   .     A
C782   O818    1.287   .     A
C782   C786    1.430   .     S
C782   O820    1.286   .     A
C783   C800    1.401   .     A
C783   H811    1.084   .     S
C784   H812    1.084   .     S
C784   C799    1.401   .     A
C784   C750    1.394   1_655 S
C786   C889    1.355   .     S
C786   C933    1.495   .     S
C787   O823    1.291   .     A
C787   C792    1.452   .     S
C787   O821    1.297   .     A
C788   O824    1.291   .     A
C788   C791    1.452   .     S
C788   O822    1.297   .     A
C789   C791    1.400   .     A
C789   H805    1.085   .     S
C789   C799    1.393   .     A
C790   H806    1.085   .     S
C790   C792    1.400   .     A
C790   C800    1.393   .     A
C791   C793    1.402   .     A
C792   C794    1.402   .     A
C793   C795    1.391   .     A
C793   H807    1.085   .     S
C794   H808    1.085   .     S
C794   C796    1.391   .     A
C795   C801    1.401   .     A
C795   C797    1.410   .     A
C796   C798    1.410   .     A
C796   C802    1.401   .     A
C797   C799    1.413   .     A
C797   C746    1.400   1_655 S
C798   C800    1.413   .     A
C801   H809    1.084   .     S
C801   C731    1.394   1_655 S
C802   H810    1.084   .     S
Cu803  Cu804   2.685   .     S
Cu803  O821    1.965   .     S
Cu803  N816    2.018   .     S
Cu803  O820    1.961   .     S
Cu803  O817    1.969   .     S
Cu803  O824    1.954   .     S
Cu804  O818    1.969   .     S
Cu804  N815    2.018   .     S
Cu804  O819    1.961   .     S
Cu804  O822    1.965   .     S
Cu804  O823    1.954   .     S
H813   N191    1.029   1_556 S
N816   N191    1.296   1_556 S
N816   H190    1.029   1_556 S
C825   O826    1.224   .     D
C825   O827    1.398   .     S
C825   C889    1.495   .     S
O827   H828    1.014   .     S
C829   O830    1.224   .     D
C829   O831    1.398   .     S
O831   H832    1.014   .     S
C833   O869    1.287   .     A
C833   C837    1.430   .     S
C833   O871    1.286   .     A
C834   O870    1.287   .     A
C834   C838    1.430   .     S
C834   O872    1.286   .     A
C835   C852    1.401   .     A
C835   H863    1.084   .     S
C835   C905    1.394   1_455 S
C836   H864    1.084   .     S
C836   C851    1.401   .     A
C836   C906    1.394   .     S
C838   C629    1.355   1_565 S
C838   C673    1.495   1_565 S
C839   O875    1.291   .     A
C839   C844    1.452   .     S
C839   O873    1.297   .     A
C840   O876    1.291   .     A
C840   C843    1.452   .     S
C840   O874    1.297   .     A
C841   C843    1.400   .     A
C841   H857    1.085   .     S
C841   C851    1.393   .     A
C842   H858    1.085   .     S
C842   C844    1.400   .     A
C842   C852    1.393   .     A
C843   C845    1.402   .     A
C844   C846    1.402   .     A
C845   C847    1.391   .     A
C845   H859    1.085   .     S
C846   H860    1.085   .     S
C846   C848    1.391   .     A
C847   C853    1.401   .     A
C847   C849    1.410   .     A
C848   C850    1.410   .     A
C848   C854    1.401   .     A
C849   C851    1.413   .     A
C849   C902    1.400   .     S
C850   C852    1.413   .     A
C850   C901    1.400   1_455 S
C853   H861    1.084   .     S
C853   C887    1.394   .     S
C854   H862    1.084   .     S
C854   C888    1.394   1_455 S
Cu855  Cu856   2.685   .     S
Cu855  O873    1.965   .     S
Cu855  N868    2.018   .     S
Cu855  O872    1.961   .     S
Cu855  O869    1.969   .     S
Cu855  O876    1.954   .     S
Cu856  O870    1.969   .     S
Cu856  N867    2.018   .     S
Cu856  O871    1.961   .     S
Cu856  O874    1.965   .     S
Cu856  O875    1.954   .     S
H865   N243    1.029   1_556 S
N868   N243    1.296   1_556 S
N868   H242    1.029   1_556 S
C877   O878    1.224   .     D
C877   O879    1.398   .     S
C877   C629    1.495   1_565 S
O879   H880    1.014   .     S
C881   O882    1.224   .     D
C881   O883    1.398   .     S
O883   H884    1.014   .     S
C885   O921    1.287   .     A
C885   C889    1.430   .     S
C885   O923    1.286   .     A
C886   O922    1.287   .     A
C886   C890    1.430   .     S
C886   O924    1.286   .     A
C887   C904    1.401   .     A
C887   H915    1.084   .     S
C888   H916    1.084   .     S
C888   C903    1.401   .     A
C888   C854    1.394   1_655 S
C890   C681    1.355   1_565 S
C890   C725    1.495   1_565 S
C891   O927    1.291   .     A
C891   C896    1.452   .     S
C891   O925    1.297   .     A
C892   O928    1.291   .     A
C892   C895    1.452   .     S
C892   O926    1.297   .     A
C893   C895    1.400   .     A
C893   H909    1.085   .     S
C893   C903    1.393   .     A
C894   H910    1.085   .     S
C894   C896    1.400   .     A
C894   C904    1.393   .     A
C895   C897    1.402   .     A
C896   C898    1.402   .     A
C897   C899    1.391   .     A
C897   H911    1.085   .     S
C898   H912    1.085   .     S
C898   C900    1.391   .     A
C899   C905    1.401   .     A
C899   C901    1.410   .     A
C900   C902    1.410   .     A
C900   C906    1.401   .     A
C901   C903    1.413   .     A
C901   C850    1.400   1_655 S
C902   C904    1.413   .     A
C905   H913    1.084   .     S
C905   C835    1.394   1_655 S
C906   H914    1.084   .     S
Cu907  Cu908   2.685   .     S
Cu907  O925    1.965   .     S
Cu907  N920    2.018   .     S
Cu907  O924    1.961   .     S
Cu907  O921    1.969   .     S
Cu907  O928    1.954   .     S
Cu908  O922    1.969   .     S
Cu908  N919    2.018   .     S
Cu908  O923    1.961   .     S
Cu908  O926    1.965   .     S
Cu908  O927    1.954   .     S
H917   N295    1.029   1_556 S
N920   N295    1.296   1_556 S
N920   H294    1.029   1_556 S
C929   O930    1.224   .     D
C929   O931    1.398   .     S
C929   C681    1.495   1_565 S
O931   H932    1.014   .     S
C933   O934    1.224   .     D
C933   O935    1.398   .     S
O935   H936    1.014   .     S
