data_str_m2_o1_o5_pcu_sym.89
_audit_creation_date              2020-01-03
_audit_creation_method            'Materials Studio'
_symmetry_space_group_name_H-M    'P1'
_symmetry_Int_Tables_number       1
_symmetry_cell_setting            triclinic
loop_
_symmetry_equiv_pos_as_xyz
  x,y,z
_cell_length_a                    32.5300
_cell_length_b                    28.8899
_cell_length_c                    27.1506
_cell_angle_alpha                 89.2511
_cell_angle_beta                  92.8169
_cell_angle_gamma                 87.8473
loop_
_atom_site_label
_atom_site_type_symbol
_atom_site_fract_x
_atom_site_fract_y
_atom_site_fract_z
_atom_site_U_iso_or_equiv
_atom_site_adp_type
_atom_site_occupancy
C1     C     0.08752   0.16744   0.16677   0.00000  Uiso   1.00
C2     C     0.01933   0.19882   0.13359   0.00000  Uiso   1.00
C3     C     0.29066   0.16305   0.15914   0.00000  Uiso   1.00
C4     C     0.04277   0.16851   0.16597   0.00000  Uiso   1.00
C5     C     0.14189   0.02657   0.13337   0.00000  Uiso   1.00
C6     C     0.18949   0.30697   0.20181   0.00000  Uiso   1.00
C7     C     0.18742   0.02336   0.20373   0.00000  Uiso   1.00
C8     C     0.14307   0.31021   0.13221   0.00000  Uiso   1.00
C9     C     0.04781   0.14072   0.27864   0.00000  Uiso   1.00
C10    C     0.27961   0.27572   0.11270   0.00000  Uiso   1.00
C11    C     0.32642   0.04182   0.20235   0.00000  Uiso   1.00
C12    C     0.24586   0.16562   0.16417   0.00000  Uiso   1.00
C13    C     0.04590   0.20634   0.05308   0.00000  Uiso   1.00
C14    C     0.11112   0.06302   0.05642   0.00000  Uiso   1.00
C15    C     0.20924   0.27734   0.28550   0.00000  Uiso   1.00
C16    C     0.23693   0.05513   0.26528   0.00000  Uiso   1.00
C17    C     0.13792   0.28521   0.04729   0.00000  Uiso   1.00
C18    C     0.16683   0.16681   0.07367   0.00000  Uiso   1.00
C19    C     0.16673   0.16644   0.25968   0.00000  Uiso   1.00
C20    C     0.16692   0.16671   0.02189   0.00000  Uiso   1.00
C21    C     0.16681   0.16622   0.31146   0.00000  Uiso   1.00
C22    C     0.02339   0.13498   0.19362   0.00000  Uiso   1.00
C23    C     0.30945   0.19817   0.13260   0.00000  Uiso   1.00
C24    C     0.31528   0.12661   0.18226   0.00000  Uiso   1.00
Cu25   Cu    0.16667   0.21355   0.16667   0.00000  Uiso   1.00
Cu26   Cu    0.16667   0.11978   0.16667   0.00000  Uiso   1.00
H27    H     0.07021   0.09275   0.22886   0.00000  Uiso   1.00
H28    H     0.01991   0.03924   0.17861   0.00000  Uiso   1.00
H29    H     0.30942   0.00947   0.19856   0.00000  Uiso   1.00
H30    H     0.00288   0.04392   0.24193   0.00000  Uiso   1.00
H31    H     0.02609   0.26062   0.09594   0.00000  Uiso   1.00
H32    H     0.01613   0.19632   0.03523   0.00000  Uiso   1.00
H33    H     0.06684   0.17526   0.05830   0.00000  Uiso   1.00
H34    H     0.06014   0.23118   0.02820   0.00000  Uiso   1.00
H35    H     0.07979   0.04317   0.11823   0.00000  Uiso   1.00
H36    H     0.10287   0.10021   0.05015   0.00000  Uiso   1.00
H37    H     0.08804   0.04355   0.03445   0.00000  Uiso   1.00
H38    H     0.01712   0.15554   0.28766   0.00000  Uiso   1.00
H39    H     0.14258   0.05577   0.04344   0.00000  Uiso   1.00
H40    H     0.24843   0.28596   0.22754   0.00000  Uiso   1.00
H41    H     0.22529   0.30405   0.30720   0.00000  Uiso   1.00
H42    H     0.22105   0.24317   0.30033   0.00000  Uiso   1.00
H43    H     0.17560   0.28053   0.29051   0.00000  Uiso   1.00
H44    H     0.17816   0.03202   0.27802   0.00000  Uiso   1.00
H45    H     0.24482   0.08846   0.24859   0.00000  Uiso   1.00
H46    H     0.25893   0.02696   0.25584   0.00000  Uiso   1.00
H47    H     0.23934   0.05959   0.30589   0.00000  Uiso   1.00
H48    H     0.08902   0.29883   0.09183   0.00000  Uiso   1.00
H49    H     0.06013   0.11905   0.31037   0.00000  Uiso   1.00
H50    H     0.12653   0.31375   0.02235   0.00000  Uiso   1.00
H51    H     0.12884   0.25310   0.02863   0.00000  Uiso   1.00
H52    H     0.17212   0.28548   0.05117   0.00000  Uiso   1.00
H53    H     0.06915   0.16916   0.27258   0.00000  Uiso   1.00
H54    H     0.26022   0.21376   0.08122   0.00000  Uiso   1.00
H55    H     0.28794   0.29861   0.08191   0.00000  Uiso   1.00
H56    H     0.29897   0.28371   0.14604   0.00000  Uiso   1.00
H57    H     0.24681   0.28322   0.12022   0.00000  Uiso   1.00
H58    H     0.28001   0.07246   0.15814   0.00000  Uiso   1.00
N59    N     0.16667   0.28402   0.16667   0.00000  Uiso   1.00
N60    N     0.11946   0.28765   0.09488   0.00000  Uiso   1.00
N61    N     0.16667   0.04931   0.16667   0.00000  Uiso   1.00
N62    N     0.04405   0.11241   0.23532   0.00000  Uiso   1.00
N63    N     0.28559   0.22783   0.09872   0.00000  Uiso   1.00
N64    N     0.29935   0.08112   0.18751   0.00000  Uiso   1.00
N65    N     0.03920   0.22772   0.10001   0.00000  Uiso   1.00
N66    N     0.10867   0.05212   0.10830   0.00000  Uiso   1.00
N67    N     0.21793   0.28087   0.23380   0.00000  Uiso   1.00
N68    N     0.19525   0.04450   0.25010   0.00000  Uiso   1.00
O69    O     0.10655   0.20625   0.16666   0.00000  Uiso   1.00
O70    O     0.22679   0.12709   0.16667   0.00000  Uiso   1.00
O71    O     0.22679   0.20625   0.16667   0.00000  Uiso   1.00
O72    O     0.10655   0.12709   0.16666   0.00000  Uiso   1.00
O73    O     0.16667   0.20625   0.09613   0.00000  Uiso   1.00
O74    O     0.16667   0.12708   0.23720   0.00000  Uiso   1.00
O75    O     0.16667   0.20625   0.23720   0.00000  Uiso   1.00
O76    O     0.16667   0.12708   0.09613   0.00000  Uiso   1.00
C77    C     0.42086   0.16744   0.16677   0.00000  Uiso   1.00
C78    C     0.35266   0.19882   0.13359   0.00000  Uiso   1.00
C79    C     0.62400   0.16305   0.15914   0.00000  Uiso   1.00
C80    C     0.37610   0.16851   0.16597   0.00000  Uiso   1.00
C81    C     0.47522   0.02657   0.13337   0.00000  Uiso   1.00
C82    C     0.52283   0.30697   0.20181   0.00000  Uiso   1.00
C83    C     0.52075   0.02336   0.20373   0.00000  Uiso   1.00
C84    C     0.47641   0.31021   0.13221   0.00000  Uiso   1.00
C85    C     0.38115   0.14072   0.27864   0.00000  Uiso   1.00
C86    C     0.61294   0.27572   0.11270   0.00000  Uiso   1.00
C87    C     0.65975   0.04182   0.20235   0.00000  Uiso   1.00
C88    C     0.57919   0.16562   0.16417   0.00000  Uiso   1.00
C89    C     0.37923   0.20634   0.05308   0.00000  Uiso   1.00
C90    C     0.44445   0.06302   0.05642   0.00000  Uiso   1.00
C91    C     0.54257   0.27734   0.28550   0.00000  Uiso   1.00
C92    C     0.57027   0.05513   0.26528   0.00000  Uiso   1.00
C93    C     0.47125   0.28521   0.04729   0.00000  Uiso   1.00
C94    C     0.50016   0.16681   0.07367   0.00000  Uiso   1.00
C95    C     0.50006   0.16644   0.25968   0.00000  Uiso   1.00
C96    C     0.50026   0.16671   0.02189   0.00000  Uiso   1.00
C97    C     0.50015   0.16622   0.31146   0.00000  Uiso   1.00
C98    C     0.35672   0.13498   0.19362   0.00000  Uiso   1.00
C99    C     0.64279   0.19817   0.13260   0.00000  Uiso   1.00
C100   C     0.64861   0.12661   0.18226   0.00000  Uiso   1.00
Cu101  Cu    0.50000   0.21355   0.16667   0.00000  Uiso   1.00
Cu102  Cu    0.50000   0.11978   0.16667   0.00000  Uiso   1.00
H103   H     0.40355   0.09275   0.22886   0.00000  Uiso   1.00
H104   H     0.35325   0.03924   0.17861   0.00000  Uiso   1.00
H105   H     0.64275   0.00947   0.19856   0.00000  Uiso   1.00
H106   H     0.33621   0.04392   0.24193   0.00000  Uiso   1.00
H107   H     0.35942   0.26062   0.09594   0.00000  Uiso   1.00
H108   H     0.34947   0.19632   0.03523   0.00000  Uiso   1.00
H109   H     0.40017   0.17526   0.05830   0.00000  Uiso   1.00
H110   H     0.39347   0.23118   0.02820   0.00000  Uiso   1.00
H111   H     0.41313   0.04317   0.11823   0.00000  Uiso   1.00
H112   H     0.43620   0.10021   0.05015   0.00000  Uiso   1.00
H113   H     0.42138   0.04355   0.03445   0.00000  Uiso   1.00
H114   H     0.35046   0.15554   0.28766   0.00000  Uiso   1.00
H115   H     0.47591   0.05577   0.04344   0.00000  Uiso   1.00
H116   H     0.58176   0.28596   0.22754   0.00000  Uiso   1.00
H117   H     0.55863   0.30405   0.30720   0.00000  Uiso   1.00
H118   H     0.55439   0.24317   0.30033   0.00000  Uiso   1.00
H119   H     0.50893   0.28053   0.29051   0.00000  Uiso   1.00
H120   H     0.51150   0.03202   0.27802   0.00000  Uiso   1.00
H121   H     0.57815   0.08846   0.24859   0.00000  Uiso   1.00
H122   H     0.59226   0.02696   0.25584   0.00000  Uiso   1.00
H123   H     0.57267   0.05959   0.30589   0.00000  Uiso   1.00
H124   H     0.42235   0.29883   0.09183   0.00000  Uiso   1.00
H125   H     0.39346   0.11905   0.31037   0.00000  Uiso   1.00
H126   H     0.45987   0.31375   0.02235   0.00000  Uiso   1.00
H127   H     0.46217   0.25310   0.02863   0.00000  Uiso   1.00
H128   H     0.50546   0.28548   0.05117   0.00000  Uiso   1.00
H129   H     0.40248   0.16916   0.27258   0.00000  Uiso   1.00
H130   H     0.59355   0.21376   0.08122   0.00000  Uiso   1.00
H131   H     0.62128   0.29861   0.08191   0.00000  Uiso   1.00
H132   H     0.63230   0.28371   0.14604   0.00000  Uiso   1.00
H133   H     0.58014   0.28322   0.12022   0.00000  Uiso   1.00
H134   H     0.61334   0.07246   0.15814   0.00000  Uiso   1.00
N135   N     0.50000   0.28402   0.16667   0.00000  Uiso   1.00
N136   N     0.45280   0.28765   0.09488   0.00000  Uiso   1.00
N137   N     0.50000   0.04931   0.16667   0.00000  Uiso   1.00
N138   N     0.37739   0.11241   0.23532   0.00000  Uiso   1.00
N139   N     0.61893   0.22783   0.09872   0.00000  Uiso   1.00
N140   N     0.63268   0.08112   0.18751   0.00000  Uiso   1.00
N141   N     0.37253   0.22772   0.10001   0.00000  Uiso   1.00
N142   N     0.44201   0.05212   0.10830   0.00000  Uiso   1.00
N143   N     0.55126   0.28087   0.23380   0.00000  Uiso   1.00
N144   N     0.52859   0.04450   0.25010   0.00000  Uiso   1.00
O145   O     0.43988   0.20625   0.16666   0.00000  Uiso   1.00
O146   O     0.56012   0.12709   0.16667   0.00000  Uiso   1.00
O147   O     0.56012   0.20625   0.16667   0.00000  Uiso   1.00
O148   O     0.43988   0.12709   0.16666   0.00000  Uiso   1.00
O149   O     0.50000   0.20625   0.09613   0.00000  Uiso   1.00
O150   O     0.50000   0.12708   0.23720   0.00000  Uiso   1.00
O151   O     0.50000   0.20625   0.23720   0.00000  Uiso   1.00
O152   O     0.50000   0.12708   0.09613   0.00000  Uiso   1.00
C153   C     0.75419   0.16744   0.16677   0.00000  Uiso   1.00
C154   C     0.68599   0.19882   0.13359   0.00000  Uiso   1.00
C155   C     0.95733   0.16305   0.15914   0.00000  Uiso   1.00
C156   C     0.70943   0.16851   0.16597   0.00000  Uiso   1.00
C157   C     0.80855   0.02657   0.13337   0.00000  Uiso   1.00
C158   C     0.85616   0.30697   0.20181   0.00000  Uiso   1.00
C159   C     0.85408   0.02336   0.20373   0.00000  Uiso   1.00
C160   C     0.80974   0.31021   0.13221   0.00000  Uiso   1.00
C161   C     0.71448   0.14072   0.27864   0.00000  Uiso   1.00
C162   C     0.94628   0.27572   0.11270   0.00000  Uiso   1.00
C163   C     0.99308   0.04182   0.20235   0.00000  Uiso   1.00
C164   C     0.91253   0.16562   0.16417   0.00000  Uiso   1.00
C165   C     0.71256   0.20634   0.05308   0.00000  Uiso   1.00
C166   C     0.77778   0.06302   0.05642   0.00000  Uiso   1.00
C167   C     0.87591   0.27734   0.28550   0.00000  Uiso   1.00
C168   C     0.90360   0.05513   0.26528   0.00000  Uiso   1.00
C169   C     0.80459   0.28521   0.04729   0.00000  Uiso   1.00
C170   C     0.83349   0.16681   0.07367   0.00000  Uiso   1.00
C171   C     0.83340   0.16644   0.25968   0.00000  Uiso   1.00
C172   C     0.83359   0.16671   0.02189   0.00000  Uiso   1.00
C173   C     0.83348   0.16622   0.31146   0.00000  Uiso   1.00
C174   C     0.69006   0.13498   0.19362   0.00000  Uiso   1.00
C175   C     0.97612   0.19817   0.13260   0.00000  Uiso   1.00
C176   C     0.98195   0.12661   0.18226   0.00000  Uiso   1.00
Cu177  Cu    0.83333   0.21355   0.16667   0.00000  Uiso   1.00
Cu178  Cu    0.83333   0.11978   0.16667   0.00000  Uiso   1.00
H179   H     0.73688   0.09275   0.22886   0.00000  Uiso   1.00
H180   H     0.68658   0.03924   0.17861   0.00000  Uiso   1.00
H181   H     0.97609   0.00947   0.19856   0.00000  Uiso   1.00
H182   H     0.66954   0.04392   0.24193   0.00000  Uiso   1.00
H183   H     0.69276   0.26062   0.09594   0.00000  Uiso   1.00
H184   H     0.68280   0.19632   0.03523   0.00000  Uiso   1.00
H185   H     0.73350   0.17526   0.05830   0.00000  Uiso   1.00
H186   H     0.72681   0.23118   0.02820   0.00000  Uiso   1.00
H187   H     0.74646   0.04317   0.11823   0.00000  Uiso   1.00
H188   H     0.76954   0.10021   0.05015   0.00000  Uiso   1.00
H189   H     0.75471   0.04355   0.03445   0.00000  Uiso   1.00
H190   H     0.68379   0.15554   0.28766   0.00000  Uiso   1.00
H191   H     0.80925   0.05577   0.04344   0.00000  Uiso   1.00
H192   H     0.91510   0.28596   0.22754   0.00000  Uiso   1.00
H193   H     0.89196   0.30405   0.30720   0.00000  Uiso   1.00
H194   H     0.88772   0.24317   0.30033   0.00000  Uiso   1.00
H195   H     0.84227   0.28053   0.29051   0.00000  Uiso   1.00
H196   H     0.84483   0.03202   0.27802   0.00000  Uiso   1.00
H197   H     0.91149   0.08846   0.24859   0.00000  Uiso   1.00
H198   H     0.92559   0.02696   0.25584   0.00000  Uiso   1.00
H199   H     0.90600   0.05959   0.30589   0.00000  Uiso   1.00
H200   H     0.75569   0.29883   0.09183   0.00000  Uiso   1.00
H201   H     0.72680   0.11905   0.31037   0.00000  Uiso   1.00
H202   H     0.79320   0.31375   0.02235   0.00000  Uiso   1.00
H203   H     0.79551   0.25310   0.02863   0.00000  Uiso   1.00
H204   H     0.83879   0.28548   0.05117   0.00000  Uiso   1.00
H205   H     0.73581   0.16916   0.27258   0.00000  Uiso   1.00
H206   H     0.92688   0.21376   0.08122   0.00000  Uiso   1.00
H207   H     0.95461   0.29861   0.08191   0.00000  Uiso   1.00
H208   H     0.96564   0.28371   0.14604   0.00000  Uiso   1.00
H209   H     0.91348   0.28322   0.12022   0.00000  Uiso   1.00
H210   H     0.94668   0.07246   0.15814   0.00000  Uiso   1.00
N211   N     0.83333   0.28402   0.16667   0.00000  Uiso   1.00
N212   N     0.78613   0.28765   0.09488   0.00000  Uiso   1.00
N213   N     0.83333   0.04931   0.16667   0.00000  Uiso   1.00
N214   N     0.71072   0.11241   0.23532   0.00000  Uiso   1.00
N215   N     0.95226   0.22783   0.09872   0.00000  Uiso   1.00
N216   N     0.96602   0.08112   0.18751   0.00000  Uiso   1.00
N217   N     0.70586   0.22772   0.10001   0.00000  Uiso   1.00
N218   N     0.77534   0.05212   0.10830   0.00000  Uiso   1.00
N219   N     0.88460   0.28087   0.23380   0.00000  Uiso   1.00
N220   N     0.86192   0.04450   0.25010   0.00000  Uiso   1.00
O221   O     0.77321   0.20625   0.16666   0.00000  Uiso   1.00
O222   O     0.89345   0.12709   0.16667   0.00000  Uiso   1.00
O223   O     0.89345   0.20625   0.16667   0.00000  Uiso   1.00
O224   O     0.77321   0.12709   0.16666   0.00000  Uiso   1.00
O225   O     0.83333   0.20625   0.09613   0.00000  Uiso   1.00
O226   O     0.83333   0.12708   0.23720   0.00000  Uiso   1.00
O227   O     0.83333   0.20625   0.23720   0.00000  Uiso   1.00
O228   O     0.83333   0.12708   0.09613   0.00000  Uiso   1.00
C229   C     0.08752   0.50077   0.16677   0.00000  Uiso   1.00
C230   C     0.01933   0.53215   0.13359   0.00000  Uiso   1.00
C231   C     0.29066   0.49638   0.15914   0.00000  Uiso   1.00
C232   C     0.04277   0.50184   0.16597   0.00000  Uiso   1.00
C233   C     0.14189   0.35991   0.13337   0.00000  Uiso   1.00
C234   C     0.18949   0.64030   0.20181   0.00000  Uiso   1.00
C235   C     0.18742   0.35669   0.20373   0.00000  Uiso   1.00
C236   C     0.14307   0.64354   0.13221   0.00000  Uiso   1.00
C237   C     0.04781   0.47405   0.27864   0.00000  Uiso   1.00
C238   C     0.27961   0.60905   0.11270   0.00000  Uiso   1.00
C239   C     0.32642   0.37515   0.20235   0.00000  Uiso   1.00
C240   C     0.24586   0.49896   0.16417   0.00000  Uiso   1.00
C241   C     0.04590   0.53968   0.05308   0.00000  Uiso   1.00
C242   C     0.11112   0.39635   0.05642   0.00000  Uiso   1.00
C243   C     0.20924   0.61067   0.28550   0.00000  Uiso   1.00
C244   C     0.23693   0.38846   0.26528   0.00000  Uiso   1.00
C245   C     0.13792   0.61855   0.04729   0.00000  Uiso   1.00
C246   C     0.16683   0.50014   0.07367   0.00000  Uiso   1.00
C247   C     0.16673   0.49978   0.25968   0.00000  Uiso   1.00
C248   C     0.16692   0.50004   0.02189   0.00000  Uiso   1.00
C249   C     0.16681   0.49955   0.31146   0.00000  Uiso   1.00
C250   C     0.02339   0.46831   0.19362   0.00000  Uiso   1.00
C251   C     0.30945   0.53150   0.13260   0.00000  Uiso   1.00
C252   C     0.31528   0.45995   0.18226   0.00000  Uiso   1.00
Cu253  Cu    0.16667   0.54689   0.16667   0.00000  Uiso   1.00
Cu254  Cu    0.16667   0.45311   0.16667   0.00000  Uiso   1.00
H255   H     0.07021   0.42608   0.22886   0.00000  Uiso   1.00
H256   H     0.01991   0.37258   0.17861   0.00000  Uiso   1.00
H257   H     0.30942   0.34280   0.19856   0.00000  Uiso   1.00
H258   H     0.00288   0.37726   0.24193   0.00000  Uiso   1.00
H259   H     0.02609   0.59396   0.09594   0.00000  Uiso   1.00
H260   H     0.01613   0.52965   0.03523   0.00000  Uiso   1.00
H261   H     0.06684   0.50860   0.05830   0.00000  Uiso   1.00
H262   H     0.06014   0.56451   0.02820   0.00000  Uiso   1.00
H263   H     0.07979   0.37651   0.11823   0.00000  Uiso   1.00
H264   H     0.10287   0.43354   0.05015   0.00000  Uiso   1.00
H265   H     0.08804   0.37688   0.03445   0.00000  Uiso   1.00
H266   H     0.01712   0.48887   0.28766   0.00000  Uiso   1.00
H267   H     0.14258   0.38910   0.04344   0.00000  Uiso   1.00
H268   H     0.24843   0.61929   0.22754   0.00000  Uiso   1.00
H269   H     0.22529   0.63738   0.30720   0.00000  Uiso   1.00
H270   H     0.22105   0.57650   0.30033   0.00000  Uiso   1.00
H271   H     0.17560   0.61386   0.29051   0.00000  Uiso   1.00
H272   H     0.17816   0.36536   0.27802   0.00000  Uiso   1.00
H273   H     0.24482   0.42180   0.24859   0.00000  Uiso   1.00
H274   H     0.25893   0.36030   0.25584   0.00000  Uiso   1.00
H275   H     0.23934   0.39292   0.30589   0.00000  Uiso   1.00
H276   H     0.08902   0.63216   0.09183   0.00000  Uiso   1.00
H277   H     0.06013   0.45238   0.31037   0.00000  Uiso   1.00
H278   H     0.12653   0.64708   0.02235   0.00000  Uiso   1.00
H279   H     0.12884   0.58644   0.02863   0.00000  Uiso   1.00
H280   H     0.17212   0.61881   0.05117   0.00000  Uiso   1.00
H281   H     0.06915   0.50250   0.27258   0.00000  Uiso   1.00
H282   H     0.26022   0.54710   0.08122   0.00000  Uiso   1.00
H283   H     0.28794   0.63194   0.08191   0.00000  Uiso   1.00
H284   H     0.29897   0.61704   0.14604   0.00000  Uiso   1.00
H285   H     0.24681   0.61655   0.12022   0.00000  Uiso   1.00
H286   H     0.28001   0.40580   0.15814   0.00000  Uiso   1.00
N287   N     0.16667   0.61736   0.16667   0.00000  Uiso   1.00
N288   N     0.11946   0.62098   0.09488   0.00000  Uiso   1.00
N289   N     0.16667   0.38264   0.16667   0.00000  Uiso   1.00
N290   N     0.04405   0.44574   0.23532   0.00000  Uiso   1.00
N291   N     0.28559   0.56116   0.09872   0.00000  Uiso   1.00
N292   N     0.29935   0.41446   0.18751   0.00000  Uiso   1.00
N293   N     0.03920   0.56105   0.10001   0.00000  Uiso   1.00
N294   N     0.10867   0.38546   0.10830   0.00000  Uiso   1.00
N295   N     0.21793   0.61420   0.23380   0.00000  Uiso   1.00
N296   N     0.19525   0.37783   0.25010   0.00000  Uiso   1.00
O297   O     0.10655   0.53958   0.16666   0.00000  Uiso   1.00
O298   O     0.22679   0.46042   0.16667   0.00000  Uiso   1.00
O299   O     0.22679   0.53958   0.16667   0.00000  Uiso   1.00
O300   O     0.10655   0.46042   0.16666   0.00000  Uiso   1.00
O301   O     0.16667   0.53959   0.09613   0.00000  Uiso   1.00
O302   O     0.16667   0.46041   0.23720   0.00000  Uiso   1.00
O303   O     0.16667   0.53959   0.23720   0.00000  Uiso   1.00
O304   O     0.16667   0.46041   0.09613   0.00000  Uiso   1.00
C305   C     0.42086   0.50077   0.16677   0.00000  Uiso   1.00
C306   C     0.35266   0.53215   0.13359   0.00000  Uiso   1.00
C307   C     0.62400   0.49638   0.15914   0.00000  Uiso   1.00
C308   C     0.37610   0.50184   0.16597   0.00000  Uiso   1.00
C309   C     0.47522   0.35991   0.13337   0.00000  Uiso   1.00
C310   C     0.52283   0.64030   0.20181   0.00000  Uiso   1.00
C311   C     0.52075   0.35669   0.20373   0.00000  Uiso   1.00
C312   C     0.47641   0.64354   0.13221   0.00000  Uiso   1.00
C313   C     0.38115   0.47405   0.27864   0.00000  Uiso   1.00
C314   C     0.61294   0.60905   0.11270   0.00000  Uiso   1.00
C315   C     0.65975   0.37515   0.20235   0.00000  Uiso   1.00
C316   C     0.57919   0.49896   0.16417   0.00000  Uiso   1.00
C317   C     0.37923   0.53968   0.05308   0.00000  Uiso   1.00
C318   C     0.44445   0.39635   0.05642   0.00000  Uiso   1.00
C319   C     0.54257   0.61067   0.28550   0.00000  Uiso   1.00
C320   C     0.57027   0.38846   0.26528   0.00000  Uiso   1.00
C321   C     0.47125   0.61855   0.04729   0.00000  Uiso   1.00
C322   C     0.50016   0.50014   0.07367   0.00000  Uiso   1.00
C323   C     0.50006   0.49978   0.25968   0.00000  Uiso   1.00
C324   C     0.50026   0.50004   0.02189   0.00000  Uiso   1.00
C325   C     0.50015   0.49955   0.31146   0.00000  Uiso   1.00
C326   C     0.35672   0.46831   0.19362   0.00000  Uiso   1.00
C327   C     0.64279   0.53150   0.13260   0.00000  Uiso   1.00
C328   C     0.64861   0.45995   0.18226   0.00000  Uiso   1.00
Cu329  Cu    0.50000   0.54689   0.16667   0.00000  Uiso   1.00
Cu330  Cu    0.50000   0.45311   0.16667   0.00000  Uiso   1.00
H331   H     0.40355   0.42608   0.22886   0.00000  Uiso   1.00
H332   H     0.35325   0.37258   0.17861   0.00000  Uiso   1.00
H333   H     0.64275   0.34280   0.19856   0.00000  Uiso   1.00
H334   H     0.33621   0.37726   0.24193   0.00000  Uiso   1.00
H335   H     0.35942   0.59396   0.09594   0.00000  Uiso   1.00
H336   H     0.34947   0.52965   0.03523   0.00000  Uiso   1.00
H337   H     0.40017   0.50860   0.05830   0.00000  Uiso   1.00
H338   H     0.39347   0.56451   0.02820   0.00000  Uiso   1.00
H339   H     0.41313   0.37651   0.11823   0.00000  Uiso   1.00
H340   H     0.43620   0.43354   0.05015   0.00000  Uiso   1.00
H341   H     0.42138   0.37688   0.03445   0.00000  Uiso   1.00
H342   H     0.35046   0.48887   0.28766   0.00000  Uiso   1.00
H343   H     0.47591   0.38910   0.04344   0.00000  Uiso   1.00
H344   H     0.58176   0.61929   0.22754   0.00000  Uiso   1.00
H345   H     0.55863   0.63738   0.30720   0.00000  Uiso   1.00
H346   H     0.55439   0.57650   0.30033   0.00000  Uiso   1.00
H347   H     0.50893   0.61386   0.29051   0.00000  Uiso   1.00
H348   H     0.51150   0.36536   0.27802   0.00000  Uiso   1.00
H349   H     0.57815   0.42180   0.24859   0.00000  Uiso   1.00
H350   H     0.59226   0.36030   0.25584   0.00000  Uiso   1.00
H351   H     0.57267   0.39292   0.30589   0.00000  Uiso   1.00
H352   H     0.42235   0.63216   0.09183   0.00000  Uiso   1.00
H353   H     0.39346   0.45238   0.31037   0.00000  Uiso   1.00
H354   H     0.45987   0.64708   0.02235   0.00000  Uiso   1.00
H355   H     0.46217   0.58644   0.02863   0.00000  Uiso   1.00
H356   H     0.50546   0.61881   0.05117   0.00000  Uiso   1.00
H357   H     0.40248   0.50250   0.27258   0.00000  Uiso   1.00
H358   H     0.59355   0.54710   0.08122   0.00000  Uiso   1.00
H359   H     0.62128   0.63194   0.08191   0.00000  Uiso   1.00
H360   H     0.63230   0.61704   0.14604   0.00000  Uiso   1.00
H361   H     0.58014   0.61655   0.12022   0.00000  Uiso   1.00
H362   H     0.61334   0.40580   0.15814   0.00000  Uiso   1.00
N363   N     0.50000   0.61736   0.16667   0.00000  Uiso   1.00
N364   N     0.45280   0.62098   0.09488   0.00000  Uiso   1.00
N365   N     0.50000   0.38264   0.16667   0.00000  Uiso   1.00
N366   N     0.37739   0.44574   0.23532   0.00000  Uiso   1.00
N367   N     0.61893   0.56116   0.09872   0.00000  Uiso   1.00
N368   N     0.63268   0.41446   0.18751   0.00000  Uiso   1.00
N369   N     0.37253   0.56105   0.10001   0.00000  Uiso   1.00
N370   N     0.44201   0.38546   0.10830   0.00000  Uiso   1.00
N371   N     0.55126   0.61420   0.23380   0.00000  Uiso   1.00
N372   N     0.52859   0.37783   0.25010   0.00000  Uiso   1.00
O373   O     0.43988   0.53958   0.16666   0.00000  Uiso   1.00
O374   O     0.56012   0.46042   0.16667   0.00000  Uiso   1.00
O375   O     0.56012   0.53958   0.16667   0.00000  Uiso   1.00
O376   O     0.43988   0.46042   0.16666   0.00000  Uiso   1.00
O377   O     0.50000   0.53959   0.09613   0.00000  Uiso   1.00
O378   O     0.50000   0.46041   0.23720   0.00000  Uiso   1.00
O379   O     0.50000   0.53959   0.23720   0.00000  Uiso   1.00
O380   O     0.50000   0.46041   0.09613   0.00000  Uiso   1.00
C381   C     0.75419   0.50077   0.16677   0.00000  Uiso   1.00
C382   C     0.68599   0.53215   0.13359   0.00000  Uiso   1.00
C383   C     0.95733   0.49638   0.15914   0.00000  Uiso   1.00
C384   C     0.70943   0.50184   0.16597   0.00000  Uiso   1.00
C385   C     0.80855   0.35991   0.13337   0.00000  Uiso   1.00
C386   C     0.85616   0.64030   0.20181   0.00000  Uiso   1.00
C387   C     0.85408   0.35669   0.20373   0.00000  Uiso   1.00
C388   C     0.80974   0.64354   0.13221   0.00000  Uiso   1.00
C389   C     0.71448   0.47405   0.27864   0.00000  Uiso   1.00
C390   C     0.94628   0.60905   0.11270   0.00000  Uiso   1.00
C391   C     0.99308   0.37515   0.20235   0.00000  Uiso   1.00
C392   C     0.91253   0.49896   0.16417   0.00000  Uiso   1.00
C393   C     0.71256   0.53968   0.05308   0.00000  Uiso   1.00
C394   C     0.77778   0.39635   0.05642   0.00000  Uiso   1.00
C395   C     0.87591   0.61067   0.28550   0.00000  Uiso   1.00
C396   C     0.90360   0.38846   0.26528   0.00000  Uiso   1.00
C397   C     0.80459   0.61855   0.04729   0.00000  Uiso   1.00
C398   C     0.83349   0.50014   0.07367   0.00000  Uiso   1.00
C399   C     0.83340   0.49978   0.25968   0.00000  Uiso   1.00
C400   C     0.83359   0.50004   0.02189   0.00000  Uiso   1.00
C401   C     0.83348   0.49955   0.31146   0.00000  Uiso   1.00
C402   C     0.69006   0.46831   0.19362   0.00000  Uiso   1.00
C403   C     0.97612   0.53150   0.13260   0.00000  Uiso   1.00
C404   C     0.98195   0.45995   0.18226   0.00000  Uiso   1.00
Cu405  Cu    0.83333   0.54689   0.16667   0.00000  Uiso   1.00
Cu406  Cu    0.83333   0.45311   0.16667   0.00000  Uiso   1.00
H407   H     0.73688   0.42608   0.22886   0.00000  Uiso   1.00
H408   H     0.68658   0.37258   0.17861   0.00000  Uiso   1.00
H409   H     0.97609   0.34280   0.19856   0.00000  Uiso   1.00
H410   H     0.66954   0.37726   0.24193   0.00000  Uiso   1.00
H411   H     0.69276   0.59396   0.09594   0.00000  Uiso   1.00
H412   H     0.68280   0.52965   0.03523   0.00000  Uiso   1.00
H413   H     0.73350   0.50860   0.05830   0.00000  Uiso   1.00
H414   H     0.72681   0.56451   0.02820   0.00000  Uiso   1.00
H415   H     0.74646   0.37651   0.11823   0.00000  Uiso   1.00
H416   H     0.76954   0.43354   0.05015   0.00000  Uiso   1.00
H417   H     0.75471   0.37688   0.03445   0.00000  Uiso   1.00
H418   H     0.68379   0.48887   0.28766   0.00000  Uiso   1.00
H419   H     0.80925   0.38910   0.04344   0.00000  Uiso   1.00
H420   H     0.91510   0.61929   0.22754   0.00000  Uiso   1.00
H421   H     0.89196   0.63738   0.30720   0.00000  Uiso   1.00
H422   H     0.88772   0.57650   0.30033   0.00000  Uiso   1.00
H423   H     0.84227   0.61386   0.29051   0.00000  Uiso   1.00
H424   H     0.84483   0.36536   0.27802   0.00000  Uiso   1.00
H425   H     0.91149   0.42180   0.24859   0.00000  Uiso   1.00
H426   H     0.92559   0.36030   0.25584   0.00000  Uiso   1.00
H427   H     0.90600   0.39292   0.30589   0.00000  Uiso   1.00
H428   H     0.75569   0.63216   0.09183   0.00000  Uiso   1.00
H429   H     0.72680   0.45238   0.31037   0.00000  Uiso   1.00
H430   H     0.79320   0.64708   0.02235   0.00000  Uiso   1.00
H431   H     0.79551   0.58644   0.02863   0.00000  Uiso   1.00
H432   H     0.83879   0.61881   0.05117   0.00000  Uiso   1.00
H433   H     0.73581   0.50250   0.27258   0.00000  Uiso   1.00
H434   H     0.92688   0.54710   0.08122   0.00000  Uiso   1.00
H435   H     0.95461   0.63194   0.08191   0.00000  Uiso   1.00
H436   H     0.96564   0.61704   0.14604   0.00000  Uiso   1.00
H437   H     0.91348   0.61655   0.12022   0.00000  Uiso   1.00
H438   H     0.94668   0.40580   0.15814   0.00000  Uiso   1.00
N439   N     0.83333   0.61736   0.16667   0.00000  Uiso   1.00
N440   N     0.78613   0.62098   0.09488   0.00000  Uiso   1.00
N441   N     0.83333   0.38264   0.16667   0.00000  Uiso   1.00
N442   N     0.71072   0.44574   0.23532   0.00000  Uiso   1.00
N443   N     0.95226   0.56116   0.09872   0.00000  Uiso   1.00
N444   N     0.96602   0.41446   0.18751   0.00000  Uiso   1.00
N445   N     0.70586   0.56105   0.10001   0.00000  Uiso   1.00
N446   N     0.77534   0.38546   0.10830   0.00000  Uiso   1.00
N447   N     0.88460   0.61420   0.23380   0.00000  Uiso   1.00
N448   N     0.86192   0.37783   0.25010   0.00000  Uiso   1.00
O449   O     0.77321   0.53958   0.16666   0.00000  Uiso   1.00
O450   O     0.89345   0.46042   0.16667   0.00000  Uiso   1.00
O451   O     0.89345   0.53958   0.16667   0.00000  Uiso   1.00
O452   O     0.77321   0.46042   0.16666   0.00000  Uiso   1.00
O453   O     0.83333   0.53959   0.09613   0.00000  Uiso   1.00
O454   O     0.83333   0.46041   0.23720   0.00000  Uiso   1.00
O455   O     0.83333   0.53959   0.23720   0.00000  Uiso   1.00
O456   O     0.83333   0.46041   0.09613   0.00000  Uiso   1.00
C457   C     0.08752   0.83410   0.16677   0.00000  Uiso   1.00
C458   C     0.01933   0.86548   0.13359   0.00000  Uiso   1.00
C459   C     0.29066   0.82971   0.15914   0.00000  Uiso   1.00
C460   C     0.04277   0.83517   0.16597   0.00000  Uiso   1.00
C461   C     0.14189   0.69324   0.13337   0.00000  Uiso   1.00
C462   C     0.18949   0.97364   0.20181   0.00000  Uiso   1.00
C463   C     0.18742   0.69003   0.20373   0.00000  Uiso   1.00
C464   C     0.14307   0.97688   0.13221   0.00000  Uiso   1.00
C465   C     0.04781   0.80738   0.27864   0.00000  Uiso   1.00
C466   C     0.27961   0.94238   0.11270   0.00000  Uiso   1.00
C467   C     0.32642   0.70849   0.20235   0.00000  Uiso   1.00
C468   C     0.24586   0.83229   0.16417   0.00000  Uiso   1.00
C469   C     0.04590   0.87301   0.05308   0.00000  Uiso   1.00
C470   C     0.11112   0.72968   0.05642   0.00000  Uiso   1.00
C471   C     0.20924   0.94400   0.28550   0.00000  Uiso   1.00
C472   C     0.23693   0.72180   0.26528   0.00000  Uiso   1.00
C473   C     0.13792   0.95188   0.04729   0.00000  Uiso   1.00
C474   C     0.16683   0.83348   0.07367   0.00000  Uiso   1.00
C475   C     0.16673   0.83311   0.25968   0.00000  Uiso   1.00
C476   C     0.16692   0.83338   0.02189   0.00000  Uiso   1.00
C477   C     0.16681   0.83288   0.31146   0.00000  Uiso   1.00
C478   C     0.02339   0.80164   0.19362   0.00000  Uiso   1.00
C479   C     0.30945   0.86484   0.13260   0.00000  Uiso   1.00
C480   C     0.31528   0.79328   0.18226   0.00000  Uiso   1.00
Cu481  Cu    0.16667   0.88022   0.16667   0.00000  Uiso   1.00
Cu482  Cu    0.16667   0.78645   0.16667   0.00000  Uiso   1.00
H483   H     0.07021   0.75941   0.22886   0.00000  Uiso   1.00
H484   H     0.01991   0.70591   0.17861   0.00000  Uiso   1.00
H485   H     0.30942   0.67614   0.19856   0.00000  Uiso   1.00
H486   H     0.00288   0.71059   0.24193   0.00000  Uiso   1.00
H487   H     0.02609   0.92729   0.09594   0.00000  Uiso   1.00
H488   H     0.01613   0.86298   0.03523   0.00000  Uiso   1.00
H489   H     0.06684   0.84193   0.05830   0.00000  Uiso   1.00
H490   H     0.06014   0.89784   0.02820   0.00000  Uiso   1.00
H491   H     0.07979   0.70984   0.11823   0.00000  Uiso   1.00
H492   H     0.10287   0.76688   0.05015   0.00000  Uiso   1.00
H493   H     0.08804   0.71021   0.03445   0.00000  Uiso   1.00
H494   H     0.01712   0.82220   0.28766   0.00000  Uiso   1.00
H495   H     0.14258   0.72243   0.04344   0.00000  Uiso   1.00
H496   H     0.24843   0.95263   0.22754   0.00000  Uiso   1.00
H497   H     0.22529   0.97071   0.30720   0.00000  Uiso   1.00
H498   H     0.22105   0.90983   0.30033   0.00000  Uiso   1.00
H499   H     0.17560   0.94720   0.29051   0.00000  Uiso   1.00
H500   H     0.17816   0.69869   0.27802   0.00000  Uiso   1.00
H501   H     0.24482   0.75513   0.24859   0.00000  Uiso   1.00
H502   H     0.25893   0.69363   0.25584   0.00000  Uiso   1.00
H503   H     0.23934   0.72625   0.30589   0.00000  Uiso   1.00
H504   H     0.08902   0.96549   0.09183   0.00000  Uiso   1.00
H505   H     0.06013   0.78571   0.31037   0.00000  Uiso   1.00
H506   H     0.12653   0.98041   0.02235   0.00000  Uiso   1.00
H507   H     0.12884   0.91977   0.02863   0.00000  Uiso   1.00
H508   H     0.17212   0.95214   0.05117   0.00000  Uiso   1.00
H509   H     0.06915   0.83583   0.27258   0.00000  Uiso   1.00
H510   H     0.26022   0.88043   0.08122   0.00000  Uiso   1.00
H511   H     0.28794   0.96528   0.08191   0.00000  Uiso   1.00
H512   H     0.29897   0.95038   0.14604   0.00000  Uiso   1.00
H513   H     0.24681   0.94989   0.12022   0.00000  Uiso   1.00
H514   H     0.28001   0.73913   0.15814   0.00000  Uiso   1.00
N515   N     0.16667   0.95069   0.16667   0.00000  Uiso   1.00
N516   N     0.11946   0.95432   0.09488   0.00000  Uiso   1.00
N517   N     0.16667   0.71598   0.16667   0.00000  Uiso   1.00
N518   N     0.04405   0.77907   0.23532   0.00000  Uiso   1.00
N519   N     0.28559   0.89450   0.09872   0.00000  Uiso   1.00
N520   N     0.29935   0.74779   0.18751   0.00000  Uiso   1.00
N521   N     0.03920   0.89439   0.10001   0.00000  Uiso   1.00
N522   N     0.10867   0.71879   0.10830   0.00000  Uiso   1.00
N523   N     0.21793   0.94753   0.23380   0.00000  Uiso   1.00
N524   N     0.19525   0.71116   0.25010   0.00000  Uiso   1.00
O525   O     0.10655   0.87291   0.16666   0.00000  Uiso   1.00
O526   O     0.22679   0.79375   0.16667   0.00000  Uiso   1.00
O527   O     0.22679   0.87291   0.16667   0.00000  Uiso   1.00
O528   O     0.10655   0.79375   0.16666   0.00000  Uiso   1.00
O529   O     0.16667   0.87292   0.09613   0.00000  Uiso   1.00
O530   O     0.16667   0.79375   0.23720   0.00000  Uiso   1.00
O531   O     0.16667   0.87292   0.23720   0.00000  Uiso   1.00
O532   O     0.16667   0.79375   0.09613   0.00000  Uiso   1.00
C533   C     0.42086   0.83410   0.16677   0.00000  Uiso   1.00
C534   C     0.35266   0.86548   0.13359   0.00000  Uiso   1.00
C535   C     0.62400   0.82971   0.15914   0.00000  Uiso   1.00
C536   C     0.37610   0.83517   0.16597   0.00000  Uiso   1.00
C537   C     0.47522   0.69324   0.13337   0.00000  Uiso   1.00
C538   C     0.52283   0.97364   0.20181   0.00000  Uiso   1.00
C539   C     0.52075   0.69003   0.20373   0.00000  Uiso   1.00
C540   C     0.47641   0.97688   0.13221   0.00000  Uiso   1.00
C541   C     0.38115   0.80738   0.27864   0.00000  Uiso   1.00
C542   C     0.61294   0.94238   0.11270   0.00000  Uiso   1.00
C543   C     0.65975   0.70849   0.20235   0.00000  Uiso   1.00
C544   C     0.57919   0.83229   0.16417   0.00000  Uiso   1.00
C545   C     0.37923   0.87301   0.05308   0.00000  Uiso   1.00
C546   C     0.44445   0.72968   0.05642   0.00000  Uiso   1.00
C547   C     0.54257   0.94400   0.28550   0.00000  Uiso   1.00
C548   C     0.57027   0.72180   0.26528   0.00000  Uiso   1.00
C549   C     0.47125   0.95188   0.04729   0.00000  Uiso   1.00
C550   C     0.50016   0.83348   0.07367   0.00000  Uiso   1.00
C551   C     0.50006   0.83311   0.25968   0.00000  Uiso   1.00
C552   C     0.50026   0.83338   0.02189   0.00000  Uiso   1.00
C553   C     0.50015   0.83288   0.31146   0.00000  Uiso   1.00
C554   C     0.35672   0.80164   0.19362   0.00000  Uiso   1.00
C555   C     0.64279   0.86484   0.13260   0.00000  Uiso   1.00
C556   C     0.64861   0.79328   0.18226   0.00000  Uiso   1.00
Cu557  Cu    0.50000   0.88022   0.16667   0.00000  Uiso   1.00
Cu558  Cu    0.50000   0.78645   0.16667   0.00000  Uiso   1.00
H559   H     0.40355   0.75941   0.22886   0.00000  Uiso   1.00
H560   H     0.35325   0.70591   0.17861   0.00000  Uiso   1.00
H561   H     0.64275   0.67614   0.19856   0.00000  Uiso   1.00
H562   H     0.33621   0.71059   0.24193   0.00000  Uiso   1.00
H563   H     0.35942   0.92729   0.09594   0.00000  Uiso   1.00
H564   H     0.34947   0.86298   0.03523   0.00000  Uiso   1.00
H565   H     0.40017   0.84193   0.05830   0.00000  Uiso   1.00
H566   H     0.39347   0.89784   0.02820   0.00000  Uiso   1.00
H567   H     0.41313   0.70984   0.11823   0.00000  Uiso   1.00
H568   H     0.43620   0.76688   0.05015   0.00000  Uiso   1.00
H569   H     0.42138   0.71021   0.03445   0.00000  Uiso   1.00
H570   H     0.35046   0.82220   0.28766   0.00000  Uiso   1.00
H571   H     0.47591   0.72243   0.04344   0.00000  Uiso   1.00
H572   H     0.58176   0.95263   0.22754   0.00000  Uiso   1.00
H573   H     0.55863   0.97071   0.30720   0.00000  Uiso   1.00
H574   H     0.55439   0.90983   0.30033   0.00000  Uiso   1.00
H575   H     0.50893   0.94720   0.29051   0.00000  Uiso   1.00
H576   H     0.51150   0.69869   0.27802   0.00000  Uiso   1.00
H577   H     0.57815   0.75513   0.24859   0.00000  Uiso   1.00
H578   H     0.59226   0.69363   0.25584   0.00000  Uiso   1.00
H579   H     0.57267   0.72625   0.30589   0.00000  Uiso   1.00
H580   H     0.42235   0.96549   0.09183   0.00000  Uiso   1.00
H581   H     0.39346   0.78571   0.31037   0.00000  Uiso   1.00
H582   H     0.45987   0.98041   0.02235   0.00000  Uiso   1.00
H583   H     0.46217   0.91977   0.02863   0.00000  Uiso   1.00
H584   H     0.50546   0.95214   0.05117   0.00000  Uiso   1.00
H585   H     0.40248   0.83583   0.27258   0.00000  Uiso   1.00
H586   H     0.59355   0.88043   0.08122   0.00000  Uiso   1.00
H587   H     0.62128   0.96528   0.08191   0.00000  Uiso   1.00
H588   H     0.63230   0.95038   0.14604   0.00000  Uiso   1.00
H589   H     0.58014   0.94989   0.12022   0.00000  Uiso   1.00
H590   H     0.61334   0.73913   0.15814   0.00000  Uiso   1.00
N591   N     0.50000   0.95069   0.16667   0.00000  Uiso   1.00
N592   N     0.45280   0.95432   0.09488   0.00000  Uiso   1.00
N593   N     0.50000   0.71598   0.16667   0.00000  Uiso   1.00
N594   N     0.37739   0.77907   0.23532   0.00000  Uiso   1.00
N595   N     0.61893   0.89450   0.09872   0.00000  Uiso   1.00
N596   N     0.63268   0.74779   0.18751   0.00000  Uiso   1.00
N597   N     0.37253   0.89439   0.10001   0.00000  Uiso   1.00
N598   N     0.44201   0.71879   0.10830   0.00000  Uiso   1.00
N599   N     0.55126   0.94753   0.23380   0.00000  Uiso   1.00
N600   N     0.52859   0.71116   0.25010   0.00000  Uiso   1.00
O601   O     0.43988   0.87291   0.16666   0.00000  Uiso   1.00
O602   O     0.56012   0.79375   0.16667   0.00000  Uiso   1.00
O603   O     0.56012   0.87291   0.16667   0.00000  Uiso   1.00
O604   O     0.43988   0.79375   0.16666   0.00000  Uiso   1.00
O605   O     0.50000   0.87292   0.09613   0.00000  Uiso   1.00
O606   O     0.50000   0.79375   0.23720   0.00000  Uiso   1.00
O607   O     0.50000   0.87292   0.23720   0.00000  Uiso   1.00
O608   O     0.50000   0.79375   0.09613   0.00000  Uiso   1.00
C609   C     0.75419   0.83410   0.16677   0.00000  Uiso   1.00
C610   C     0.68599   0.86548   0.13359   0.00000  Uiso   1.00
C611   C     0.95733   0.82971   0.15914   0.00000  Uiso   1.00
C612   C     0.70943   0.83517   0.16597   0.00000  Uiso   1.00
C613   C     0.80855   0.69324   0.13337   0.00000  Uiso   1.00
C614   C     0.85616   0.97364   0.20181   0.00000  Uiso   1.00
C615   C     0.85408   0.69003   0.20373   0.00000  Uiso   1.00
C616   C     0.80974   0.97688   0.13221   0.00000  Uiso   1.00
C617   C     0.71448   0.80738   0.27864   0.00000  Uiso   1.00
C618   C     0.94628   0.94238   0.11270   0.00000  Uiso   1.00
C619   C     0.99308   0.70849   0.20235   0.00000  Uiso   1.00
C620   C     0.91253   0.83229   0.16417   0.00000  Uiso   1.00
C621   C     0.71256   0.87301   0.05308   0.00000  Uiso   1.00
C622   C     0.77778   0.72968   0.05642   0.00000  Uiso   1.00
C623   C     0.87591   0.94400   0.28550   0.00000  Uiso   1.00
C624   C     0.90360   0.72180   0.26528   0.00000  Uiso   1.00
C625   C     0.80459   0.95188   0.04729   0.00000  Uiso   1.00
C626   C     0.83349   0.83348   0.07367   0.00000  Uiso   1.00
C627   C     0.83340   0.83311   0.25968   0.00000  Uiso   1.00
C628   C     0.83359   0.83338   0.02189   0.00000  Uiso   1.00
C629   C     0.83348   0.83288   0.31146   0.00000  Uiso   1.00
C630   C     0.69006   0.80164   0.19362   0.00000  Uiso   1.00
C631   C     0.97612   0.86484   0.13260   0.00000  Uiso   1.00
C632   C     0.98195   0.79328   0.18226   0.00000  Uiso   1.00
Cu633  Cu    0.83333   0.88022   0.16667   0.00000  Uiso   1.00
Cu634  Cu    0.83333   0.78645   0.16667   0.00000  Uiso   1.00
H635   H     0.73688   0.75941   0.22886   0.00000  Uiso   1.00
H636   H     0.68658   0.70591   0.17861   0.00000  Uiso   1.00
H637   H     0.97609   0.67614   0.19856   0.00000  Uiso   1.00
H638   H     0.66954   0.71059   0.24193   0.00000  Uiso   1.00
H639   H     0.69276   0.92729   0.09594   0.00000  Uiso   1.00
H640   H     0.68280   0.86298   0.03523   0.00000  Uiso   1.00
H641   H     0.73350   0.84193   0.05830   0.00000  Uiso   1.00
H642   H     0.72681   0.89784   0.02820   0.00000  Uiso   1.00
H643   H     0.74646   0.70984   0.11823   0.00000  Uiso   1.00
H644   H     0.76954   0.76688   0.05015   0.00000  Uiso   1.00
H645   H     0.75471   0.71021   0.03445   0.00000  Uiso   1.00
H646   H     0.68379   0.82220   0.28766   0.00000  Uiso   1.00
H647   H     0.80925   0.72243   0.04344   0.00000  Uiso   1.00
H648   H     0.91510   0.95263   0.22754   0.00000  Uiso   1.00
H649   H     0.89196   0.97071   0.30720   0.00000  Uiso   1.00
H650   H     0.88772   0.90983   0.30033   0.00000  Uiso   1.00
H651   H     0.84227   0.94720   0.29051   0.00000  Uiso   1.00
H652   H     0.84483   0.69869   0.27802   0.00000  Uiso   1.00
H653   H     0.91149   0.75513   0.24859   0.00000  Uiso   1.00
H654   H     0.92559   0.69363   0.25584   0.00000  Uiso   1.00
H655   H     0.90600   0.72625   0.30589   0.00000  Uiso   1.00
H656   H     0.75569   0.96549   0.09183   0.00000  Uiso   1.00
H657   H     0.72680   0.78571   0.31037   0.00000  Uiso   1.00
H658   H     0.79320   0.98041   0.02235   0.00000  Uiso   1.00
H659   H     0.79551   0.91977   0.02863   0.00000  Uiso   1.00
H660   H     0.83879   0.95214   0.05117   0.00000  Uiso   1.00
H661   H     0.73581   0.83583   0.27258   0.00000  Uiso   1.00
H662   H     0.92688   0.88043   0.08122   0.00000  Uiso   1.00
H663   H     0.95461   0.96528   0.08191   0.00000  Uiso   1.00
H664   H     0.96564   0.95038   0.14604   0.00000  Uiso   1.00
H665   H     0.91348   0.94989   0.12022   0.00000  Uiso   1.00
H666   H     0.94668   0.73913   0.15814   0.00000  Uiso   1.00
N667   N     0.83333   0.95069   0.16667   0.00000  Uiso   1.00
N668   N     0.78613   0.95432   0.09488   0.00000  Uiso   1.00
N669   N     0.83333   0.71598   0.16667   0.00000  Uiso   1.00
N670   N     0.71072   0.77907   0.23532   0.00000  Uiso   1.00
N671   N     0.95226   0.89450   0.09872   0.00000  Uiso   1.00
N672   N     0.96602   0.74779   0.18751   0.00000  Uiso   1.00
N673   N     0.70586   0.89439   0.10001   0.00000  Uiso   1.00
N674   N     0.77534   0.71879   0.10830   0.00000  Uiso   1.00
N675   N     0.88460   0.94753   0.23380   0.00000  Uiso   1.00
N676   N     0.86192   0.71116   0.25010   0.00000  Uiso   1.00
O677   O     0.77321   0.87291   0.16666   0.00000  Uiso   1.00
O678   O     0.89345   0.79375   0.16667   0.00000  Uiso   1.00
O679   O     0.89345   0.87291   0.16667   0.00000  Uiso   1.00
O680   O     0.77321   0.79375   0.16666   0.00000  Uiso   1.00
O681   O     0.83333   0.87292   0.09613   0.00000  Uiso   1.00
O682   O     0.83333   0.79375   0.23720   0.00000  Uiso   1.00
O683   O     0.83333   0.87292   0.23720   0.00000  Uiso   1.00
O684   O     0.83333   0.79375   0.09613   0.00000  Uiso   1.00
C685   C     0.08752   0.16744   0.50011   0.00000  Uiso   1.00
C686   C     0.01933   0.19882   0.46692   0.00000  Uiso   1.00
C687   C     0.29066   0.16305   0.49248   0.00000  Uiso   1.00
C688   C     0.04277   0.16851   0.49930   0.00000  Uiso   1.00
C689   C     0.14189   0.02657   0.46671   0.00000  Uiso   1.00
C690   C     0.18949   0.30697   0.53514   0.00000  Uiso   1.00
C691   C     0.18742   0.02336   0.53706   0.00000  Uiso   1.00
C692   C     0.14307   0.31021   0.46554   0.00000  Uiso   1.00
C693   C     0.04781   0.14072   0.61197   0.00000  Uiso   1.00
C694   C     0.27961   0.27572   0.44604   0.00000  Uiso   1.00
C695   C     0.32642   0.04182   0.53569   0.00000  Uiso   1.00
C696   C     0.24586   0.16562   0.49750   0.00000  Uiso   1.00
C697   C     0.04590   0.20634   0.38641   0.00000  Uiso   1.00
C698   C     0.11112   0.06302   0.38975   0.00000  Uiso   1.00
C699   C     0.20924   0.27734   0.61884   0.00000  Uiso   1.00
C700   C     0.23693   0.05513   0.59861   0.00000  Uiso   1.00
C701   C     0.13792   0.28521   0.38062   0.00000  Uiso   1.00
C702   C     0.16683   0.16681   0.40700   0.00000  Uiso   1.00
C703   C     0.16673   0.16644   0.59301   0.00000  Uiso   1.00
C704   C     0.16692   0.16671   0.35523   0.00000  Uiso   1.00
C705   C     0.16681   0.16622   0.64479   0.00000  Uiso   1.00
C706   C     0.02339   0.13498   0.52695   0.00000  Uiso   1.00
C707   C     0.30945   0.19817   0.46593   0.00000  Uiso   1.00
C708   C     0.31528   0.12661   0.51560   0.00000  Uiso   1.00
Cu709  Cu    0.16667   0.21355   0.50000   0.00000  Uiso   1.00
Cu710  Cu    0.16667   0.11978   0.50000   0.00000  Uiso   1.00
H711   H     0.07021   0.09275   0.56219   0.00000  Uiso   1.00
H712   H     0.01991   0.03924   0.51194   0.00000  Uiso   1.00
H713   H     0.30942   0.00947   0.53189   0.00000  Uiso   1.00
H714   H     0.00288   0.04392   0.57527   0.00000  Uiso   1.00
H715   H     0.02609   0.26062   0.42928   0.00000  Uiso   1.00
H716   H     0.01613   0.19632   0.36857   0.00000  Uiso   1.00
H717   H     0.06684   0.17526   0.39164   0.00000  Uiso   1.00
H718   H     0.06014   0.23118   0.36154   0.00000  Uiso   1.00
H719   H     0.07979   0.04317   0.45156   0.00000  Uiso   1.00
H720   H     0.10287   0.10021   0.38348   0.00000  Uiso   1.00
H721   H     0.08804   0.04355   0.36778   0.00000  Uiso   1.00
H722   H     0.01712   0.15554   0.62099   0.00000  Uiso   1.00
H723   H     0.14258   0.05577   0.37678   0.00000  Uiso   1.00
H724   H     0.24843   0.28596   0.56088   0.00000  Uiso   1.00
H725   H     0.22529   0.30405   0.64053   0.00000  Uiso   1.00
H726   H     0.22105   0.24317   0.63366   0.00000  Uiso   1.00
H727   H     0.17560   0.28053   0.62385   0.00000  Uiso   1.00
H728   H     0.17816   0.03202   0.61136   0.00000  Uiso   1.00
H729   H     0.24482   0.08846   0.58192   0.00000  Uiso   1.00
H730   H     0.25893   0.02696   0.58917   0.00000  Uiso   1.00
H731   H     0.23934   0.05959   0.63922   0.00000  Uiso   1.00
H732   H     0.08902   0.29883   0.42516   0.00000  Uiso   1.00
H733   H     0.06013   0.11905   0.64371   0.00000  Uiso   1.00
H734   H     0.12653   0.31375   0.35568   0.00000  Uiso   1.00
H735   H     0.12884   0.25310   0.36196   0.00000  Uiso   1.00
H736   H     0.17212   0.28548   0.38450   0.00000  Uiso   1.00
H737   H     0.06915   0.16916   0.60592   0.00000  Uiso   1.00
H738   H     0.26022   0.21376   0.41455   0.00000  Uiso   1.00
H739   H     0.28794   0.29861   0.41524   0.00000  Uiso   1.00
H740   H     0.29897   0.28371   0.47937   0.00000  Uiso   1.00
H741   H     0.24681   0.28322   0.45355   0.00000  Uiso   1.00
H742   H     0.28001   0.07246   0.49147   0.00000  Uiso   1.00
N743   N     0.16667   0.28402   0.50000   0.00000  Uiso   1.00
N744   N     0.11946   0.28765   0.42821   0.00000  Uiso   1.00
N745   N     0.16667   0.04931   0.50000   0.00000  Uiso   1.00
N746   N     0.04405   0.11241   0.56865   0.00000  Uiso   1.00
N747   N     0.28559   0.22783   0.43205   0.00000  Uiso   1.00
N748   N     0.29935   0.08112   0.52084   0.00000  Uiso   1.00
N749   N     0.03920   0.22772   0.43335   0.00000  Uiso   1.00
N750   N     0.10867   0.05212   0.44163   0.00000  Uiso   1.00
N751   N     0.21793   0.28087   0.56713   0.00000  Uiso   1.00
N752   N     0.19525   0.04450   0.58343   0.00000  Uiso   1.00
O753   O     0.10655   0.20625   0.50000   0.00000  Uiso   1.00
O754   O     0.22679   0.12709   0.50000   0.00000  Uiso   1.00
O755   O     0.22679   0.20625   0.50000   0.00000  Uiso   1.00
O756   O     0.10655   0.12709   0.50000   0.00000  Uiso   1.00
O757   O     0.16667   0.20625   0.42946   0.00000  Uiso   1.00
O758   O     0.16667   0.12708   0.57054   0.00000  Uiso   1.00
O759   O     0.16667   0.20625   0.57054   0.00000  Uiso   1.00
O760   O     0.16667   0.12708   0.42946   0.00000  Uiso   1.00
C761   C     0.42086   0.16744   0.50011   0.00000  Uiso   1.00
C762   C     0.35266   0.19882   0.46692   0.00000  Uiso   1.00
C763   C     0.62400   0.16305   0.49248   0.00000  Uiso   1.00
C764   C     0.37610   0.16851   0.49930   0.00000  Uiso   1.00
C765   C     0.47522   0.02657   0.46671   0.00000  Uiso   1.00
C766   C     0.52283   0.30697   0.53514   0.00000  Uiso   1.00
C767   C     0.52075   0.02336   0.53706   0.00000  Uiso   1.00
C768   C     0.47641   0.31021   0.46554   0.00000  Uiso   1.00
C769   C     0.38115   0.14072   0.61197   0.00000  Uiso   1.00
C770   C     0.61294   0.27572   0.44604   0.00000  Uiso   1.00
C771   C     0.65975   0.04182   0.53569   0.00000  Uiso   1.00
C772   C     0.57919   0.16562   0.49750   0.00000  Uiso   1.00
C773   C     0.37923   0.20634   0.38641   0.00000  Uiso   1.00
C774   C     0.44445   0.06302   0.38975   0.00000  Uiso   1.00
C775   C     0.54257   0.27734   0.61884   0.00000  Uiso   1.00
C776   C     0.57027   0.05513   0.59861   0.00000  Uiso   1.00
C777   C     0.47125   0.28521   0.38062   0.00000  Uiso   1.00
C778   C     0.50016   0.16681   0.40700   0.00000  Uiso   1.00
C779   C     0.50006   0.16644   0.59301   0.00000  Uiso   1.00
C780   C     0.50026   0.16671   0.35523   0.00000  Uiso   1.00
C781   C     0.50015   0.16622   0.64479   0.00000  Uiso   1.00
C782   C     0.35672   0.13498   0.52695   0.00000  Uiso   1.00
C783   C     0.64279   0.19817   0.46593   0.00000  Uiso   1.00
C784   C     0.64861   0.12661   0.51560   0.00000  Uiso   1.00
Cu785  Cu    0.50000   0.21355   0.50000   0.00000  Uiso   1.00
Cu786  Cu    0.50000   0.11978   0.50000   0.00000  Uiso   1.00
H787   H     0.40355   0.09275   0.56219   0.00000  Uiso   1.00
H788   H     0.35325   0.03924   0.51194   0.00000  Uiso   1.00
H789   H     0.64275   0.00947   0.53189   0.00000  Uiso   1.00
H790   H     0.33621   0.04392   0.57527   0.00000  Uiso   1.00
H791   H     0.35942   0.26062   0.42928   0.00000  Uiso   1.00
H792   H     0.34947   0.19632   0.36857   0.00000  Uiso   1.00
H793   H     0.40017   0.17526   0.39164   0.00000  Uiso   1.00
H794   H     0.39347   0.23118   0.36154   0.00000  Uiso   1.00
H795   H     0.41313   0.04317   0.45156   0.00000  Uiso   1.00
H796   H     0.43620   0.10021   0.38348   0.00000  Uiso   1.00
H797   H     0.42138   0.04355   0.36778   0.00000  Uiso   1.00
H798   H     0.35046   0.15554   0.62099   0.00000  Uiso   1.00
H799   H     0.47591   0.05577   0.37678   0.00000  Uiso   1.00
H800   H     0.58176   0.28596   0.56088   0.00000  Uiso   1.00
H801   H     0.55863   0.30405   0.64053   0.00000  Uiso   1.00
H802   H     0.55439   0.24317   0.63366   0.00000  Uiso   1.00
H803   H     0.50893   0.28053   0.62385   0.00000  Uiso   1.00
H804   H     0.51150   0.03202   0.61136   0.00000  Uiso   1.00
H805   H     0.57815   0.08846   0.58192   0.00000  Uiso   1.00
H806   H     0.59226   0.02696   0.58917   0.00000  Uiso   1.00
H807   H     0.57267   0.05959   0.63922   0.00000  Uiso   1.00
H808   H     0.42235   0.29883   0.42516   0.00000  Uiso   1.00
H809   H     0.39346   0.11905   0.64371   0.00000  Uiso   1.00
H810   H     0.45987   0.31375   0.35568   0.00000  Uiso   1.00
H811   H     0.46217   0.25310   0.36196   0.00000  Uiso   1.00
H812   H     0.50546   0.28548   0.38450   0.00000  Uiso   1.00
H813   H     0.40248   0.16916   0.60592   0.00000  Uiso   1.00
H814   H     0.59355   0.21376   0.41455   0.00000  Uiso   1.00
H815   H     0.62128   0.29861   0.41524   0.00000  Uiso   1.00
H816   H     0.63230   0.28371   0.47937   0.00000  Uiso   1.00
H817   H     0.58014   0.28322   0.45355   0.00000  Uiso   1.00
H818   H     0.61334   0.07246   0.49147   0.00000  Uiso   1.00
N819   N     0.50000   0.28402   0.50000   0.00000  Uiso   1.00
N820   N     0.45280   0.28765   0.42821   0.00000  Uiso   1.00
N821   N     0.50000   0.04931   0.50000   0.00000  Uiso   1.00
N822   N     0.37739   0.11241   0.56865   0.00000  Uiso   1.00
N823   N     0.61893   0.22783   0.43205   0.00000  Uiso   1.00
N824   N     0.63268   0.08112   0.52084   0.00000  Uiso   1.00
N825   N     0.37253   0.22772   0.43335   0.00000  Uiso   1.00
N826   N     0.44201   0.05212   0.44163   0.00000  Uiso   1.00
N827   N     0.55126   0.28087   0.56713   0.00000  Uiso   1.00
N828   N     0.52859   0.04450   0.58343   0.00000  Uiso   1.00
O829   O     0.43988   0.20625   0.50000   0.00000  Uiso   1.00
O830   O     0.56012   0.12709   0.50000   0.00000  Uiso   1.00
O831   O     0.56012   0.20625   0.50000   0.00000  Uiso   1.00
O832   O     0.43988   0.12709   0.50000   0.00000  Uiso   1.00
O833   O     0.50000   0.20625   0.42946   0.00000  Uiso   1.00
O834   O     0.50000   0.12708   0.57054   0.00000  Uiso   1.00
O835   O     0.50000   0.20625   0.57054   0.00000  Uiso   1.00
O836   O     0.50000   0.12708   0.42946   0.00000  Uiso   1.00
C837   C     0.75419   0.16744   0.50011   0.00000  Uiso   1.00
C838   C     0.68599   0.19882   0.46692   0.00000  Uiso   1.00
C839   C     0.95733   0.16305   0.49248   0.00000  Uiso   1.00
C840   C     0.70943   0.16851   0.49930   0.00000  Uiso   1.00
C841   C     0.80855   0.02657   0.46671   0.00000  Uiso   1.00
C842   C     0.85616   0.30697   0.53514   0.00000  Uiso   1.00
C843   C     0.85408   0.02336   0.53706   0.00000  Uiso   1.00
C844   C     0.80974   0.31021   0.46554   0.00000  Uiso   1.00
C845   C     0.71448   0.14072   0.61197   0.00000  Uiso   1.00
C846   C     0.94628   0.27572   0.44604   0.00000  Uiso   1.00
C847   C     0.99308   0.04182   0.53569   0.00000  Uiso   1.00
C848   C     0.91253   0.16562   0.49750   0.00000  Uiso   1.00
C849   C     0.71256   0.20634   0.38641   0.00000  Uiso   1.00
C850   C     0.77778   0.06302   0.38975   0.00000  Uiso   1.00
C851   C     0.87591   0.27734   0.61884   0.00000  Uiso   1.00
C852   C     0.90360   0.05513   0.59861   0.00000  Uiso   1.00
C853   C     0.80459   0.28521   0.38062   0.00000  Uiso   1.00
C854   C     0.83349   0.16681   0.40700   0.00000  Uiso   1.00
C855   C     0.83340   0.16644   0.59301   0.00000  Uiso   1.00
C856   C     0.83359   0.16671   0.35523   0.00000  Uiso   1.00
C857   C     0.83348   0.16622   0.64479   0.00000  Uiso   1.00
C858   C     0.69006   0.13498   0.52695   0.00000  Uiso   1.00
C859   C     0.97612   0.19817   0.46593   0.00000  Uiso   1.00
C860   C     0.98195   0.12661   0.51560   0.00000  Uiso   1.00
Cu861  Cu    0.83333   0.21355   0.50000   0.00000  Uiso   1.00
Cu862  Cu    0.83333   0.11978   0.50000   0.00000  Uiso   1.00
H863   H     0.73688   0.09275   0.56219   0.00000  Uiso   1.00
H864   H     0.68658   0.03924   0.51194   0.00000  Uiso   1.00
H865   H     0.97609   0.00947   0.53189   0.00000  Uiso   1.00
H866   H     0.66954   0.04392   0.57527   0.00000  Uiso   1.00
H867   H     0.69276   0.26062   0.42928   0.00000  Uiso   1.00
H868   H     0.68280   0.19632   0.36857   0.00000  Uiso   1.00
H869   H     0.73350   0.17526   0.39164   0.00000  Uiso   1.00
H870   H     0.72681   0.23118   0.36154   0.00000  Uiso   1.00
H871   H     0.74646   0.04317   0.45156   0.00000  Uiso   1.00
H872   H     0.76954   0.10021   0.38348   0.00000  Uiso   1.00
H873   H     0.75471   0.04355   0.36778   0.00000  Uiso   1.00
H874   H     0.68379   0.15554   0.62099   0.00000  Uiso   1.00
H875   H     0.80925   0.05577   0.37678   0.00000  Uiso   1.00
H876   H     0.91510   0.28596   0.56088   0.00000  Uiso   1.00
H877   H     0.89196   0.30405   0.64053   0.00000  Uiso   1.00
H878   H     0.88772   0.24317   0.63366   0.00000  Uiso   1.00
H879   H     0.84227   0.28053   0.62385   0.00000  Uiso   1.00
H880   H     0.84483   0.03202   0.61136   0.00000  Uiso   1.00
H881   H     0.91149   0.08846   0.58192   0.00000  Uiso   1.00
H882   H     0.92559   0.02696   0.58917   0.00000  Uiso   1.00
H883   H     0.90600   0.05959   0.63922   0.00000  Uiso   1.00
H884   H     0.75569   0.29883   0.42516   0.00000  Uiso   1.00
H885   H     0.72680   0.11905   0.64371   0.00000  Uiso   1.00
H886   H     0.79320   0.31375   0.35568   0.00000  Uiso   1.00
H887   H     0.79551   0.25310   0.36196   0.00000  Uiso   1.00
H888   H     0.83879   0.28548   0.38450   0.00000  Uiso   1.00
H889   H     0.73581   0.16916   0.60592   0.00000  Uiso   1.00
H890   H     0.92688   0.21376   0.41455   0.00000  Uiso   1.00
H891   H     0.95461   0.29861   0.41524   0.00000  Uiso   1.00
H892   H     0.96564   0.28371   0.47937   0.00000  Uiso   1.00
H893   H     0.91348   0.28322   0.45355   0.00000  Uiso   1.00
H894   H     0.94668   0.07246   0.49147   0.00000  Uiso   1.00
N895   N     0.83333   0.28402   0.50000   0.00000  Uiso   1.00
N896   N     0.78613   0.28765   0.42821   0.00000  Uiso   1.00
N897   N     0.83333   0.04931   0.50000   0.00000  Uiso   1.00
N898   N     0.71072   0.11241   0.56865   0.00000  Uiso   1.00
N899   N     0.95226   0.22783   0.43205   0.00000  Uiso   1.00
N900   N     0.96602   0.08112   0.52084   0.00000  Uiso   1.00
N901   N     0.70586   0.22772   0.43335   0.00000  Uiso   1.00
N902   N     0.77534   0.05212   0.44163   0.00000  Uiso   1.00
N903   N     0.88460   0.28087   0.56713   0.00000  Uiso   1.00
N904   N     0.86192   0.04450   0.58343   0.00000  Uiso   1.00
O905   O     0.77321   0.20625   0.50000   0.00000  Uiso   1.00
O906   O     0.89345   0.12709   0.50000   0.00000  Uiso   1.00
O907   O     0.89345   0.20625   0.50000   0.00000  Uiso   1.00
O908   O     0.77321   0.12709   0.50000   0.00000  Uiso   1.00
O909   O     0.83333   0.20625   0.42946   0.00000  Uiso   1.00
O910   O     0.83333   0.12708   0.57054   0.00000  Uiso   1.00
O911   O     0.83333   0.20625   0.57054   0.00000  Uiso   1.00
O912   O     0.83333   0.12708   0.42946   0.00000  Uiso   1.00
C913   C     0.08752   0.50077   0.50011   0.00000  Uiso   1.00
C914   C     0.01933   0.53215   0.46692   0.00000  Uiso   1.00
C915   C     0.29066   0.49638   0.49248   0.00000  Uiso   1.00
C916   C     0.04277   0.50184   0.49930   0.00000  Uiso   1.00
C917   C     0.14189   0.35991   0.46671   0.00000  Uiso   1.00
C918   C     0.18949   0.64030   0.53514   0.00000  Uiso   1.00
C919   C     0.18742   0.35669   0.53706   0.00000  Uiso   1.00
C920   C     0.14307   0.64354   0.46554   0.00000  Uiso   1.00
C921   C     0.04781   0.47405   0.61197   0.00000  Uiso   1.00
C922   C     0.27961   0.60905   0.44604   0.00000  Uiso   1.00
C923   C     0.32642   0.37515   0.53569   0.00000  Uiso   1.00
C924   C     0.24586   0.49896   0.49750   0.00000  Uiso   1.00
C925   C     0.04590   0.53968   0.38641   0.00000  Uiso   1.00
C926   C     0.11112   0.39635   0.38975   0.00000  Uiso   1.00
C927   C     0.20924   0.61067   0.61884   0.00000  Uiso   1.00
C928   C     0.23693   0.38846   0.59861   0.00000  Uiso   1.00
C929   C     0.13792   0.61855   0.38062   0.00000  Uiso   1.00
C930   C     0.16683   0.50014   0.40700   0.00000  Uiso   1.00
C931   C     0.16673   0.49978   0.59301   0.00000  Uiso   1.00
C932   C     0.16692   0.50004   0.35523   0.00000  Uiso   1.00
C933   C     0.16681   0.49955   0.64479   0.00000  Uiso   1.00
C934   C     0.02339   0.46831   0.52695   0.00000  Uiso   1.00
C935   C     0.30945   0.53150   0.46593   0.00000  Uiso   1.00
C936   C     0.31528   0.45995   0.51560   0.00000  Uiso   1.00
Cu937  Cu    0.16667   0.54689   0.50000   0.00000  Uiso   1.00
Cu938  Cu    0.16667   0.45311   0.50000   0.00000  Uiso   1.00
H939   H     0.07021   0.42608   0.56219   0.00000  Uiso   1.00
H940   H     0.01991   0.37258   0.51194   0.00000  Uiso   1.00
H941   H     0.30942   0.34280   0.53189   0.00000  Uiso   1.00
H942   H     0.00288   0.37726   0.57527   0.00000  Uiso   1.00
H943   H     0.02609   0.59396   0.42928   0.00000  Uiso   1.00
H944   H     0.01613   0.52965   0.36857   0.00000  Uiso   1.00
H945   H     0.06684   0.50860   0.39164   0.00000  Uiso   1.00
H946   H     0.06014   0.56451   0.36154   0.00000  Uiso   1.00
H947   H     0.07979   0.37651   0.45156   0.00000  Uiso   1.00
H948   H     0.10287   0.43354   0.38348   0.00000  Uiso   1.00
H949   H     0.08804   0.37688   0.36778   0.00000  Uiso   1.00
H950   H     0.01712   0.48887   0.62099   0.00000  Uiso   1.00
H951   H     0.14258   0.38910   0.37678   0.00000  Uiso   1.00
H952   H     0.24843   0.61929   0.56088   0.00000  Uiso   1.00
H953   H     0.22529   0.63738   0.64053   0.00000  Uiso   1.00
H954   H     0.22105   0.57650   0.63366   0.00000  Uiso   1.00
H955   H     0.17560   0.61386   0.62385   0.00000  Uiso   1.00
H956   H     0.17816   0.36536   0.61136   0.00000  Uiso   1.00
H957   H     0.24482   0.42180   0.58192   0.00000  Uiso   1.00
H958   H     0.25893   0.36030   0.58917   0.00000  Uiso   1.00
H959   H     0.23934   0.39292   0.63922   0.00000  Uiso   1.00
H960   H     0.08902   0.63216   0.42516   0.00000  Uiso   1.00
H961   H     0.06013   0.45238   0.64371   0.00000  Uiso   1.00
H962   H     0.12653   0.64708   0.35568   0.00000  Uiso   1.00
H963   H     0.12884   0.58644   0.36196   0.00000  Uiso   1.00
H964   H     0.17212   0.61881   0.38450   0.00000  Uiso   1.00
H965   H     0.06915   0.50250   0.60592   0.00000  Uiso   1.00
H966   H     0.26022   0.54710   0.41455   0.00000  Uiso   1.00
H967   H     0.28794   0.63194   0.41524   0.00000  Uiso   1.00
H968   H     0.29897   0.61704   0.47937   0.00000  Uiso   1.00
H969   H     0.24681   0.61655   0.45355   0.00000  Uiso   1.00
H970   H     0.28001   0.40580   0.49147   0.00000  Uiso   1.00
N971   N     0.16667   0.61736   0.50000   0.00000  Uiso   1.00
N972   N     0.11946   0.62098   0.42821   0.00000  Uiso   1.00
N973   N     0.16667   0.38264   0.50000   0.00000  Uiso   1.00
N974   N     0.04405   0.44574   0.56865   0.00000  Uiso   1.00
N975   N     0.28559   0.56116   0.43205   0.00000  Uiso   1.00
N976   N     0.29935   0.41446   0.52084   0.00000  Uiso   1.00
N977   N     0.03920   0.56105   0.43335   0.00000  Uiso   1.00
N978   N     0.10867   0.38546   0.44163   0.00000  Uiso   1.00
N979   N     0.21793   0.61420   0.56713   0.00000  Uiso   1.00
N980   N     0.19525   0.37783   0.58343   0.00000  Uiso   1.00
O981   O     0.10655   0.53958   0.50000   0.00000  Uiso   1.00
O982   O     0.22679   0.46042   0.50000   0.00000  Uiso   1.00
O983   O     0.22679   0.53958   0.50000   0.00000  Uiso   1.00
O984   O     0.10655   0.46042   0.50000   0.00000  Uiso   1.00
O985   O     0.16667   0.53959   0.42946   0.00000  Uiso   1.00
O986   O     0.16667   0.46041   0.57054   0.00000  Uiso   1.00
O987   O     0.16667   0.53959   0.57054   0.00000  Uiso   1.00
O988   O     0.16667   0.46041   0.42946   0.00000  Uiso   1.00
C989   C     0.42086   0.50077   0.50011   0.00000  Uiso   1.00
C990   C     0.35266   0.53215   0.46692   0.00000  Uiso   1.00
C991   C     0.62400   0.49638   0.49248   0.00000  Uiso   1.00
C992   C     0.37610   0.50184   0.49930   0.00000  Uiso   1.00
C993   C     0.47522   0.35991   0.46671   0.00000  Uiso   1.00
C994   C     0.52283   0.64030   0.53514   0.00000  Uiso   1.00
C995   C     0.52075   0.35669   0.53706   0.00000  Uiso   1.00
C996   C     0.47641   0.64354   0.46554   0.00000  Uiso   1.00
C997   C     0.38115   0.47405   0.61197   0.00000  Uiso   1.00
C998   C     0.61294   0.60905   0.44604   0.00000  Uiso   1.00
C999   C     0.65975   0.37515   0.53569   0.00000  Uiso   1.00
C1000  C     0.57919   0.49896   0.49750   0.00000  Uiso   1.00
C1001  C     0.37923   0.53968   0.38641   0.00000  Uiso   1.00
C1002  C     0.44445   0.39635   0.38975   0.00000  Uiso   1.00
C1003  C     0.54257   0.61067   0.61884   0.00000  Uiso   1.00
C1004  C     0.57027   0.38846   0.59861   0.00000  Uiso   1.00
C1005  C     0.47125   0.61855   0.38062   0.00000  Uiso   1.00
C1006  C     0.50016   0.50014   0.40700   0.00000  Uiso   1.00
C1007  C     0.50006   0.49978   0.59301   0.00000  Uiso   1.00
C1008  C     0.50026   0.50004   0.35523   0.00000  Uiso   1.00
C1009  C     0.50015   0.49955   0.64479   0.00000  Uiso   1.00
C1010  C     0.35672   0.46831   0.52695   0.00000  Uiso   1.00
C1011  C     0.64279   0.53150   0.46593   0.00000  Uiso   1.00
C1012  C     0.64861   0.45995   0.51560   0.00000  Uiso   1.00
Cu1013 Cu    0.50000   0.54689   0.50000   0.00000  Uiso   1.00
Cu1014 Cu    0.50000   0.45311   0.50000   0.00000  Uiso   1.00
H1015  H     0.40355   0.42608   0.56219   0.00000  Uiso   1.00
H1016  H     0.35325   0.37258   0.51194   0.00000  Uiso   1.00
H1017  H     0.64275   0.34280   0.53189   0.00000  Uiso   1.00
H1018  H     0.33621   0.37726   0.57527   0.00000  Uiso   1.00
H1019  H     0.35942   0.59396   0.42928   0.00000  Uiso   1.00
H1020  H     0.34947   0.52965   0.36857   0.00000  Uiso   1.00
H1021  H     0.40017   0.50860   0.39164   0.00000  Uiso   1.00
H1022  H     0.39347   0.56451   0.36154   0.00000  Uiso   1.00
H1023  H     0.41313   0.37651   0.45156   0.00000  Uiso   1.00
H1024  H     0.43620   0.43354   0.38348   0.00000  Uiso   1.00
H1025  H     0.42138   0.37688   0.36778   0.00000  Uiso   1.00
H1026  H     0.35046   0.48887   0.62099   0.00000  Uiso   1.00
H1027  H     0.47591   0.38910   0.37678   0.00000  Uiso   1.00
H1028  H     0.58176   0.61929   0.56088   0.00000  Uiso   1.00
H1029  H     0.55863   0.63738   0.64053   0.00000  Uiso   1.00
H1030  H     0.55439   0.57650   0.63366   0.00000  Uiso   1.00
H1031  H     0.50893   0.61386   0.62385   0.00000  Uiso   1.00
H1032  H     0.51150   0.36536   0.61136   0.00000  Uiso   1.00
H1033  H     0.57815   0.42180   0.58192   0.00000  Uiso   1.00
H1034  H     0.59226   0.36030   0.58917   0.00000  Uiso   1.00
H1035  H     0.57267   0.39292   0.63922   0.00000  Uiso   1.00
H1036  H     0.42235   0.63216   0.42516   0.00000  Uiso   1.00
H1037  H     0.39346   0.45238   0.64371   0.00000  Uiso   1.00
H1038  H     0.45987   0.64708   0.35568   0.00000  Uiso   1.00
H1039  H     0.46217   0.58644   0.36196   0.00000  Uiso   1.00
H1040  H     0.50546   0.61881   0.38450   0.00000  Uiso   1.00
H1041  H     0.40248   0.50250   0.60592   0.00000  Uiso   1.00
H1042  H     0.59355   0.54710   0.41455   0.00000  Uiso   1.00
H1043  H     0.62128   0.63194   0.41524   0.00000  Uiso   1.00
H1044  H     0.63230   0.61704   0.47937   0.00000  Uiso   1.00
H1045  H     0.58014   0.61655   0.45355   0.00000  Uiso   1.00
H1046  H     0.61334   0.40580   0.49147   0.00000  Uiso   1.00
N1047  N     0.50000   0.61736   0.50000   0.00000  Uiso   1.00
N1048  N     0.45280   0.62098   0.42821   0.00000  Uiso   1.00
N1049  N     0.50000   0.38264   0.50000   0.00000  Uiso   1.00
N1050  N     0.37739   0.44574   0.56865   0.00000  Uiso   1.00
N1051  N     0.61893   0.56116   0.43205   0.00000  Uiso   1.00
N1052  N     0.63268   0.41446   0.52084   0.00000  Uiso   1.00
N1053  N     0.37253   0.56105   0.43335   0.00000  Uiso   1.00
N1054  N     0.44201   0.38546   0.44163   0.00000  Uiso   1.00
N1055  N     0.55126   0.61420   0.56713   0.00000  Uiso   1.00
N1056  N     0.52859   0.37783   0.58343   0.00000  Uiso   1.00
O1057  O     0.43988   0.53958   0.50000   0.00000  Uiso   1.00
O1058  O     0.56012   0.46042   0.50000   0.00000  Uiso   1.00
O1059  O     0.56012   0.53958   0.50000   0.00000  Uiso   1.00
O1060  O     0.43988   0.46042   0.50000   0.00000  Uiso   1.00
O1061  O     0.50000   0.53959   0.42946   0.00000  Uiso   1.00
O1062  O     0.50000   0.46041   0.57054   0.00000  Uiso   1.00
O1063  O     0.50000   0.53959   0.57054   0.00000  Uiso   1.00
O1064  O     0.50000   0.46041   0.42946   0.00000  Uiso   1.00
C1065  C     0.75419   0.50077   0.50011   0.00000  Uiso   1.00
C1066  C     0.68599   0.53215   0.46692   0.00000  Uiso   1.00
C1067  C     0.95733   0.49638   0.49248   0.00000  Uiso   1.00
C1068  C     0.70943   0.50184   0.49930   0.00000  Uiso   1.00
C1069  C     0.80855   0.35991   0.46671   0.00000  Uiso   1.00
C1070  C     0.85616   0.64030   0.53514   0.00000  Uiso   1.00
C1071  C     0.85408   0.35669   0.53706   0.00000  Uiso   1.00
C1072  C     0.80974   0.64354   0.46554   0.00000  Uiso   1.00
C1073  C     0.71448   0.47405   0.61197   0.00000  Uiso   1.00
C1074  C     0.94628   0.60905   0.44604   0.00000  Uiso   1.00
C1075  C     0.99308   0.37515   0.53569   0.00000  Uiso   1.00
C1076  C     0.91253   0.49896   0.49750   0.00000  Uiso   1.00
C1077  C     0.71256   0.53968   0.38641   0.00000  Uiso   1.00
C1078  C     0.77778   0.39635   0.38975   0.00000  Uiso   1.00
C1079  C     0.87591   0.61067   0.61884   0.00000  Uiso   1.00
C1080  C     0.90360   0.38846   0.59861   0.00000  Uiso   1.00
C1081  C     0.80459   0.61855   0.38062   0.00000  Uiso   1.00
C1082  C     0.83349   0.50014   0.40700   0.00000  Uiso   1.00
C1083  C     0.83340   0.49978   0.59301   0.00000  Uiso   1.00
C1084  C     0.83359   0.50004   0.35523   0.00000  Uiso   1.00
C1085  C     0.83348   0.49955   0.64479   0.00000  Uiso   1.00
C1086  C     0.69006   0.46831   0.52695   0.00000  Uiso   1.00
C1087  C     0.97612   0.53150   0.46593   0.00000  Uiso   1.00
C1088  C     0.98195   0.45995   0.51560   0.00000  Uiso   1.00
Cu1089 Cu    0.83333   0.54689   0.50000   0.00000  Uiso   1.00
Cu1090 Cu    0.83333   0.45311   0.50000   0.00000  Uiso   1.00
H1091  H     0.73688   0.42608   0.56219   0.00000  Uiso   1.00
H1092  H     0.68658   0.37258   0.51194   0.00000  Uiso   1.00
H1093  H     0.97609   0.34280   0.53189   0.00000  Uiso   1.00
H1094  H     0.66954   0.37726   0.57527   0.00000  Uiso   1.00
H1095  H     0.69276   0.59396   0.42928   0.00000  Uiso   1.00
H1096  H     0.68280   0.52965   0.36857   0.00000  Uiso   1.00
H1097  H     0.73350   0.50860   0.39164   0.00000  Uiso   1.00
H1098  H     0.72681   0.56451   0.36154   0.00000  Uiso   1.00
H1099  H     0.74646   0.37651   0.45156   0.00000  Uiso   1.00
H1100  H     0.76954   0.43354   0.38348   0.00000  Uiso   1.00
H1101  H     0.75471   0.37688   0.36778   0.00000  Uiso   1.00
H1102  H     0.68379   0.48887   0.62099   0.00000  Uiso   1.00
H1103  H     0.80925   0.38910   0.37678   0.00000  Uiso   1.00
H1104  H     0.91510   0.61929   0.56088   0.00000  Uiso   1.00
H1105  H     0.89196   0.63738   0.64053   0.00000  Uiso   1.00
H1106  H     0.88772   0.57650   0.63366   0.00000  Uiso   1.00
H1107  H     0.84227   0.61386   0.62385   0.00000  Uiso   1.00
H1108  H     0.84483   0.36536   0.61136   0.00000  Uiso   1.00
H1109  H     0.91149   0.42180   0.58192   0.00000  Uiso   1.00
H1110  H     0.92559   0.36030   0.58917   0.00000  Uiso   1.00
H1111  H     0.90600   0.39292   0.63922   0.00000  Uiso   1.00
H1112  H     0.75569   0.63216   0.42516   0.00000  Uiso   1.00
H1113  H     0.72680   0.45238   0.64371   0.00000  Uiso   1.00
H1114  H     0.79320   0.64708   0.35568   0.00000  Uiso   1.00
H1115  H     0.79551   0.58644   0.36196   0.00000  Uiso   1.00
H1116  H     0.83879   0.61881   0.38450   0.00000  Uiso   1.00
H1117  H     0.73581   0.50250   0.60592   0.00000  Uiso   1.00
H1118  H     0.92688   0.54710   0.41455   0.00000  Uiso   1.00
H1119  H     0.95461   0.63194   0.41524   0.00000  Uiso   1.00
H1120  H     0.96564   0.61704   0.47937   0.00000  Uiso   1.00
H1121  H     0.91348   0.61655   0.45355   0.00000  Uiso   1.00
H1122  H     0.94668   0.40580   0.49147   0.00000  Uiso   1.00
N1123  N     0.83333   0.61736   0.50000   0.00000  Uiso   1.00
N1124  N     0.78613   0.62098   0.42821   0.00000  Uiso   1.00
N1125  N     0.83333   0.38264   0.50000   0.00000  Uiso   1.00
N1126  N     0.71072   0.44574   0.56865   0.00000  Uiso   1.00
N1127  N     0.95226   0.56116   0.43205   0.00000  Uiso   1.00
N1128  N     0.96602   0.41446   0.52084   0.00000  Uiso   1.00
N1129  N     0.70586   0.56105   0.43335   0.00000  Uiso   1.00
N1130  N     0.77534   0.38546   0.44163   0.00000  Uiso   1.00
N1131  N     0.88460   0.61420   0.56713   0.00000  Uiso   1.00
N1132  N     0.86192   0.37783   0.58343   0.00000  Uiso   1.00
O1133  O     0.77321   0.53958   0.50000   0.00000  Uiso   1.00
O1134  O     0.89345   0.46042   0.50000   0.00000  Uiso   1.00
O1135  O     0.89345   0.53958   0.50000   0.00000  Uiso   1.00
O1136  O     0.77321   0.46042   0.50000   0.00000  Uiso   1.00
O1137  O     0.83333   0.53959   0.42946   0.00000  Uiso   1.00
O1138  O     0.83333   0.46041   0.57054   0.00000  Uiso   1.00
O1139  O     0.83333   0.53959   0.57054   0.00000  Uiso   1.00
O1140  O     0.83333   0.46041   0.42946   0.00000  Uiso   1.00
C1141  C     0.08752   0.83410   0.50011   0.00000  Uiso   1.00
C1142  C     0.01933   0.86548   0.46692   0.00000  Uiso   1.00
C1143  C     0.29066   0.82971   0.49248   0.00000  Uiso   1.00
C1144  C     0.04277   0.83517   0.49930   0.00000  Uiso   1.00
C1145  C     0.14189   0.69324   0.46671   0.00000  Uiso   1.00
C1146  C     0.18949   0.97364   0.53514   0.00000  Uiso   1.00
C1147  C     0.18742   0.69003   0.53706   0.00000  Uiso   1.00
C1148  C     0.14307   0.97688   0.46554   0.00000  Uiso   1.00
C1149  C     0.04781   0.80738   0.61197   0.00000  Uiso   1.00
C1150  C     0.27961   0.94238   0.44604   0.00000  Uiso   1.00
C1151  C     0.32642   0.70849   0.53569   0.00000  Uiso   1.00
C1152  C     0.24586   0.83229   0.49750   0.00000  Uiso   1.00
C1153  C     0.04590   0.87301   0.38641   0.00000  Uiso   1.00
C1154  C     0.11112   0.72968   0.38975   0.00000  Uiso   1.00
C1155  C     0.20924   0.94400   0.61884   0.00000  Uiso   1.00
C1156  C     0.23693   0.72180   0.59861   0.00000  Uiso   1.00
C1157  C     0.13792   0.95188   0.38062   0.00000  Uiso   1.00
C1158  C     0.16683   0.83348   0.40700   0.00000  Uiso   1.00
C1159  C     0.16673   0.83311   0.59301   0.00000  Uiso   1.00
C1160  C     0.16692   0.83338   0.35523   0.00000  Uiso   1.00
C1161  C     0.16681   0.83288   0.64479   0.00000  Uiso   1.00
C1162  C     0.02339   0.80164   0.52695   0.00000  Uiso   1.00
C1163  C     0.30945   0.86484   0.46593   0.00000  Uiso   1.00
C1164  C     0.31528   0.79328   0.51560   0.00000  Uiso   1.00
Cu1165 Cu    0.16667   0.88022   0.50000   0.00000  Uiso   1.00
Cu1166 Cu    0.16667   0.78645   0.50000   0.00000  Uiso   1.00
H1167  H     0.07021   0.75941   0.56219   0.00000  Uiso   1.00
H1168  H     0.01991   0.70591   0.51194   0.00000  Uiso   1.00
H1169  H     0.30942   0.67614   0.53189   0.00000  Uiso   1.00
H1170  H     0.00288   0.71059   0.57527   0.00000  Uiso   1.00
H1171  H     0.02609   0.92729   0.42928   0.00000  Uiso   1.00
H1172  H     0.01613   0.86298   0.36857   0.00000  Uiso   1.00
H1173  H     0.06684   0.84193   0.39164   0.00000  Uiso   1.00
H1174  H     0.06014   0.89784   0.36154   0.00000  Uiso   1.00
H1175  H     0.07979   0.70984   0.45156   0.00000  Uiso   1.00
H1176  H     0.10287   0.76688   0.38348   0.00000  Uiso   1.00
H1177  H     0.08804   0.71021   0.36778   0.00000  Uiso   1.00
H1178  H     0.01712   0.82220   0.62099   0.00000  Uiso   1.00
H1179  H     0.14258   0.72243   0.37678   0.00000  Uiso   1.00
H1180  H     0.24843   0.95263   0.56088   0.00000  Uiso   1.00
H1181  H     0.22529   0.97071   0.64053   0.00000  Uiso   1.00
H1182  H     0.22105   0.90983   0.63366   0.00000  Uiso   1.00
H1183  H     0.17560   0.94720   0.62385   0.00000  Uiso   1.00
H1184  H     0.17816   0.69869   0.61136   0.00000  Uiso   1.00
H1185  H     0.24482   0.75513   0.58192   0.00000  Uiso   1.00
H1186  H     0.25893   0.69363   0.58917   0.00000  Uiso   1.00
H1187  H     0.23934   0.72625   0.63922   0.00000  Uiso   1.00
H1188  H     0.08902   0.96549   0.42516   0.00000  Uiso   1.00
H1189  H     0.06013   0.78571   0.64371   0.00000  Uiso   1.00
H1190  H     0.12653   0.98041   0.35568   0.00000  Uiso   1.00
H1191  H     0.12884   0.91977   0.36196   0.00000  Uiso   1.00
H1192  H     0.17212   0.95214   0.38450   0.00000  Uiso   1.00
H1193  H     0.06915   0.83583   0.60592   0.00000  Uiso   1.00
H1194  H     0.26022   0.88043   0.41455   0.00000  Uiso   1.00
H1195  H     0.28794   0.96528   0.41524   0.00000  Uiso   1.00
H1196  H     0.29897   0.95038   0.47937   0.00000  Uiso   1.00
H1197  H     0.24681   0.94989   0.45355   0.00000  Uiso   1.00
H1198  H     0.28001   0.73913   0.49147   0.00000  Uiso   1.00
N1199  N     0.16667   0.95069   0.50000   0.00000  Uiso   1.00
N1200  N     0.11946   0.95432   0.42821   0.00000  Uiso   1.00
N1201  N     0.16667   0.71598   0.50000   0.00000  Uiso   1.00
N1202  N     0.04405   0.77907   0.56865   0.00000  Uiso   1.00
N1203  N     0.28559   0.89450   0.43205   0.00000  Uiso   1.00
N1204  N     0.29935   0.74779   0.52084   0.00000  Uiso   1.00
N1205  N     0.03920   0.89439   0.43335   0.00000  Uiso   1.00
N1206  N     0.10867   0.71879   0.44163   0.00000  Uiso   1.00
N1207  N     0.21793   0.94753   0.56713   0.00000  Uiso   1.00
N1208  N     0.19525   0.71116   0.58343   0.00000  Uiso   1.00
O1209  O     0.10655   0.87291   0.50000   0.00000  Uiso   1.00
O1210  O     0.22679   0.79375   0.50000   0.00000  Uiso   1.00
O1211  O     0.22679   0.87291   0.50000   0.00000  Uiso   1.00
O1212  O     0.10655   0.79375   0.50000   0.00000  Uiso   1.00
O1213  O     0.16667   0.87292   0.42946   0.00000  Uiso   1.00
O1214  O     0.16667   0.79375   0.57054   0.00000  Uiso   1.00
O1215  O     0.16667   0.87292   0.57054   0.00000  Uiso   1.00
O1216  O     0.16667   0.79375   0.42946   0.00000  Uiso   1.00
C1217  C     0.42086   0.83410   0.50011   0.00000  Uiso   1.00
C1218  C     0.35266   0.86548   0.46692   0.00000  Uiso   1.00
C1219  C     0.62400   0.82971   0.49248   0.00000  Uiso   1.00
C1220  C     0.37610   0.83517   0.49930   0.00000  Uiso   1.00
C1221  C     0.47522   0.69324   0.46671   0.00000  Uiso   1.00
C1222  C     0.52283   0.97364   0.53514   0.00000  Uiso   1.00
C1223  C     0.52075   0.69003   0.53706   0.00000  Uiso   1.00
C1224  C     0.47641   0.97688   0.46554   0.00000  Uiso   1.00
C1225  C     0.38115   0.80738   0.61197   0.00000  Uiso   1.00
C1226  C     0.61294   0.94238   0.44604   0.00000  Uiso   1.00
C1227  C     0.65975   0.70849   0.53569   0.00000  Uiso   1.00
C1228  C     0.57919   0.83229   0.49750   0.00000  Uiso   1.00
C1229  C     0.37923   0.87301   0.38641   0.00000  Uiso   1.00
C1230  C     0.44445   0.72968   0.38975   0.00000  Uiso   1.00
C1231  C     0.54257   0.94400   0.61884   0.00000  Uiso   1.00
C1232  C     0.57027   0.72180   0.59861   0.00000  Uiso   1.00
C1233  C     0.47125   0.95188   0.38062   0.00000  Uiso   1.00
C1234  C     0.50016   0.83348   0.40700   0.00000  Uiso   1.00
C1235  C     0.50006   0.83311   0.59301   0.00000  Uiso   1.00
C1236  C     0.50026   0.83338   0.35523   0.00000  Uiso   1.00
C1237  C     0.50015   0.83288   0.64479   0.00000  Uiso   1.00
C1238  C     0.35672   0.80164   0.52695   0.00000  Uiso   1.00
C1239  C     0.64279   0.86484   0.46593   0.00000  Uiso   1.00
C1240  C     0.64861   0.79328   0.51560   0.00000  Uiso   1.00
Cu1241 Cu    0.50000   0.88022   0.50000   0.00000  Uiso   1.00
Cu1242 Cu    0.50000   0.78645   0.50000   0.00000  Uiso   1.00
H1243  H     0.40355   0.75941   0.56219   0.00000  Uiso   1.00
H1244  H     0.35325   0.70591   0.51194   0.00000  Uiso   1.00
H1245  H     0.64275   0.67614   0.53189   0.00000  Uiso   1.00
H1246  H     0.33621   0.71059   0.57527   0.00000  Uiso   1.00
H1247  H     0.35942   0.92729   0.42928   0.00000  Uiso   1.00
H1248  H     0.34947   0.86298   0.36857   0.00000  Uiso   1.00
H1249  H     0.40017   0.84193   0.39164   0.00000  Uiso   1.00
H1250  H     0.39347   0.89784   0.36154   0.00000  Uiso   1.00
H1251  H     0.41313   0.70984   0.45156   0.00000  Uiso   1.00
H1252  H     0.43620   0.76688   0.38348   0.00000  Uiso   1.00
H1253  H     0.42138   0.71021   0.36778   0.00000  Uiso   1.00
H1254  H     0.35046   0.82220   0.62099   0.00000  Uiso   1.00
H1255  H     0.47591   0.72243   0.37678   0.00000  Uiso   1.00
H1256  H     0.58176   0.95263   0.56088   0.00000  Uiso   1.00
H1257  H     0.55863   0.97071   0.64053   0.00000  Uiso   1.00
H1258  H     0.55439   0.90983   0.63366   0.00000  Uiso   1.00
H1259  H     0.50893   0.94720   0.62385   0.00000  Uiso   1.00
H1260  H     0.51150   0.69869   0.61136   0.00000  Uiso   1.00
H1261  H     0.57815   0.75513   0.58192   0.00000  Uiso   1.00
H1262  H     0.59226   0.69363   0.58917   0.00000  Uiso   1.00
H1263  H     0.57267   0.72625   0.63922   0.00000  Uiso   1.00
H1264  H     0.42235   0.96549   0.42516   0.00000  Uiso   1.00
H1265  H     0.39346   0.78571   0.64371   0.00000  Uiso   1.00
H1266  H     0.45987   0.98041   0.35568   0.00000  Uiso   1.00
H1267  H     0.46217   0.91977   0.36196   0.00000  Uiso   1.00
H1268  H     0.50546   0.95214   0.38450   0.00000  Uiso   1.00
H1269  H     0.40248   0.83583   0.60592   0.00000  Uiso   1.00
H1270  H     0.59355   0.88043   0.41455   0.00000  Uiso   1.00
H1271  H     0.62128   0.96528   0.41524   0.00000  Uiso   1.00
H1272  H     0.63230   0.95038   0.47937   0.00000  Uiso   1.00
H1273  H     0.58014   0.94989   0.45355   0.00000  Uiso   1.00
H1274  H     0.61334   0.73913   0.49147   0.00000  Uiso   1.00
N1275  N     0.50000   0.95069   0.50000   0.00000  Uiso   1.00
N1276  N     0.45280   0.95432   0.42821   0.00000  Uiso   1.00
N1277  N     0.50000   0.71598   0.50000   0.00000  Uiso   1.00
N1278  N     0.37739   0.77907   0.56865   0.00000  Uiso   1.00
N1279  N     0.61893   0.89450   0.43205   0.00000  Uiso   1.00
N1280  N     0.63268   0.74779   0.52084   0.00000  Uiso   1.00
N1281  N     0.37253   0.89439   0.43335   0.00000  Uiso   1.00
N1282  N     0.44201   0.71879   0.44163   0.00000  Uiso   1.00
N1283  N     0.55126   0.94753   0.56713   0.00000  Uiso   1.00
N1284  N     0.52859   0.71116   0.58343   0.00000  Uiso   1.00
O1285  O     0.43988   0.87291   0.50000   0.00000  Uiso   1.00
O1286  O     0.56012   0.79375   0.50000   0.00000  Uiso   1.00
O1287  O     0.56012   0.87291   0.50000   0.00000  Uiso   1.00
O1288  O     0.43988   0.79375   0.50000   0.00000  Uiso   1.00
O1289  O     0.50000   0.87292   0.42946   0.00000  Uiso   1.00
O1290  O     0.50000   0.79375   0.57054   0.00000  Uiso   1.00
O1291  O     0.50000   0.87292   0.57054   0.00000  Uiso   1.00
O1292  O     0.50000   0.79375   0.42946   0.00000  Uiso   1.00
C1293  C     0.75419   0.83410   0.50011   0.00000  Uiso   1.00
C1294  C     0.68599   0.86548   0.46692   0.00000  Uiso   1.00
C1295  C     0.95733   0.82971   0.49248   0.00000  Uiso   1.00
C1296  C     0.70943   0.83517   0.49930   0.00000  Uiso   1.00
C1297  C     0.80855   0.69324   0.46671   0.00000  Uiso   1.00
C1298  C     0.85616   0.97364   0.53514   0.00000  Uiso   1.00
C1299  C     0.85408   0.69003   0.53706   0.00000  Uiso   1.00
C1300  C     0.80974   0.97688   0.46554   0.00000  Uiso   1.00
C1301  C     0.71448   0.80738   0.61197   0.00000  Uiso   1.00
C1302  C     0.94628   0.94238   0.44604   0.00000  Uiso   1.00
C1303  C     0.99308   0.70849   0.53569   0.00000  Uiso   1.00
C1304  C     0.91253   0.83229   0.49750   0.00000  Uiso   1.00
C1305  C     0.71256   0.87301   0.38641   0.00000  Uiso   1.00
C1306  C     0.77778   0.72968   0.38975   0.00000  Uiso   1.00
C1307  C     0.87591   0.94400   0.61884   0.00000  Uiso   1.00
C1308  C     0.90360   0.72180   0.59861   0.00000  Uiso   1.00
C1309  C     0.80459   0.95188   0.38062   0.00000  Uiso   1.00
C1310  C     0.83349   0.83348   0.40700   0.00000  Uiso   1.00
C1311  C     0.83340   0.83311   0.59301   0.00000  Uiso   1.00
C1312  C     0.83359   0.83338   0.35523   0.00000  Uiso   1.00
C1313  C     0.83348   0.83288   0.64479   0.00000  Uiso   1.00
C1314  C     0.69006   0.80164   0.52695   0.00000  Uiso   1.00
C1315  C     0.97612   0.86484   0.46593   0.00000  Uiso   1.00
C1316  C     0.98195   0.79328   0.51560   0.00000  Uiso   1.00
Cu1317 Cu    0.83333   0.88022   0.50000   0.00000  Uiso   1.00
Cu1318 Cu    0.83333   0.78645   0.50000   0.00000  Uiso   1.00
H1319  H     0.73688   0.75941   0.56219   0.00000  Uiso   1.00
H1320  H     0.68658   0.70591   0.51194   0.00000  Uiso   1.00
H1321  H     0.97609   0.67614   0.53189   0.00000  Uiso   1.00
H1322  H     0.66954   0.71059   0.57527   0.00000  Uiso   1.00
H1323  H     0.69276   0.92729   0.42928   0.00000  Uiso   1.00
H1324  H     0.68280   0.86298   0.36857   0.00000  Uiso   1.00
H1325  H     0.73350   0.84193   0.39164   0.00000  Uiso   1.00
H1326  H     0.72681   0.89784   0.36154   0.00000  Uiso   1.00
H1327  H     0.74646   0.70984   0.45156   0.00000  Uiso   1.00
H1328  H     0.76954   0.76688   0.38348   0.00000  Uiso   1.00
H1329  H     0.75471   0.71021   0.36778   0.00000  Uiso   1.00
H1330  H     0.68379   0.82220   0.62099   0.00000  Uiso   1.00
H1331  H     0.80925   0.72243   0.37678   0.00000  Uiso   1.00
H1332  H     0.91510   0.95263   0.56088   0.00000  Uiso   1.00
H1333  H     0.89196   0.97071   0.64053   0.00000  Uiso   1.00
H1334  H     0.88772   0.90983   0.63366   0.00000  Uiso   1.00
H1335  H     0.84227   0.94720   0.62385   0.00000  Uiso   1.00
H1336  H     0.84483   0.69869   0.61136   0.00000  Uiso   1.00
H1337  H     0.91149   0.75513   0.58192   0.00000  Uiso   1.00
H1338  H     0.92559   0.69363   0.58917   0.00000  Uiso   1.00
H1339  H     0.90600   0.72625   0.63922   0.00000  Uiso   1.00
H1340  H     0.75569   0.96549   0.42516   0.00000  Uiso   1.00
H1341  H     0.72680   0.78571   0.64371   0.00000  Uiso   1.00
H1342  H     0.79320   0.98041   0.35568   0.00000  Uiso   1.00
H1343  H     0.79551   0.91977   0.36196   0.00000  Uiso   1.00
H1344  H     0.83879   0.95214   0.38450   0.00000  Uiso   1.00
H1345  H     0.73581   0.83583   0.60592   0.00000  Uiso   1.00
H1346  H     0.92688   0.88043   0.41455   0.00000  Uiso   1.00
H1347  H     0.95461   0.96528   0.41524   0.00000  Uiso   1.00
H1348  H     0.96564   0.95038   0.47937   0.00000  Uiso   1.00
H1349  H     0.91348   0.94989   0.45355   0.00000  Uiso   1.00
H1350  H     0.94668   0.73913   0.49147   0.00000  Uiso   1.00
N1351  N     0.83333   0.95069   0.50000   0.00000  Uiso   1.00
N1352  N     0.78613   0.95432   0.42821   0.00000  Uiso   1.00
N1353  N     0.83333   0.71598   0.50000   0.00000  Uiso   1.00
N1354  N     0.71072   0.77907   0.56865   0.00000  Uiso   1.00
N1355  N     0.95226   0.89450   0.43205   0.00000  Uiso   1.00
N1356  N     0.96602   0.74779   0.52084   0.00000  Uiso   1.00
N1357  N     0.70586   0.89439   0.43335   0.00000  Uiso   1.00
N1358  N     0.77534   0.71879   0.44163   0.00000  Uiso   1.00
N1359  N     0.88460   0.94753   0.56713   0.00000  Uiso   1.00
N1360  N     0.86192   0.71116   0.58343   0.00000  Uiso   1.00
O1361  O     0.77321   0.87291   0.50000   0.00000  Uiso   1.00
O1362  O     0.89345   0.79375   0.50000   0.00000  Uiso   1.00
O1363  O     0.89345   0.87291   0.50000   0.00000  Uiso   1.00
O1364  O     0.77321   0.79375   0.50000   0.00000  Uiso   1.00
O1365  O     0.83333   0.87292   0.42946   0.00000  Uiso   1.00
O1366  O     0.83333   0.79375   0.57054   0.00000  Uiso   1.00
O1367  O     0.83333   0.87292   0.57054   0.00000  Uiso   1.00
O1368  O     0.83333   0.79375   0.42946   0.00000  Uiso   1.00
C1369  C     0.08752   0.16744   0.83344   0.00000  Uiso   1.00
C1370  C     0.01933   0.19882   0.80026   0.00000  Uiso   1.00
C1371  C     0.29066   0.16305   0.82581   0.00000  Uiso   1.00
C1372  C     0.04277   0.16851   0.83264   0.00000  Uiso   1.00
C1373  C     0.14189   0.02657   0.80004   0.00000  Uiso   1.00
C1374  C     0.18949   0.30697   0.86847   0.00000  Uiso   1.00
C1375  C     0.18742   0.02336   0.87040   0.00000  Uiso   1.00
C1376  C     0.14307   0.31021   0.79887   0.00000  Uiso   1.00
C1377  C     0.04781   0.14072   0.94531   0.00000  Uiso   1.00
C1378  C     0.27961   0.27572   0.77937   0.00000  Uiso   1.00
C1379  C     0.32642   0.04182   0.86902   0.00000  Uiso   1.00
C1380  C     0.24586   0.16562   0.83083   0.00000  Uiso   1.00
C1381  C     0.04590   0.20634   0.71975   0.00000  Uiso   1.00
C1382  C     0.11112   0.06302   0.72308   0.00000  Uiso   1.00
C1383  C     0.20924   0.27734   0.95217   0.00000  Uiso   1.00
C1384  C     0.23693   0.05513   0.93195   0.00000  Uiso   1.00
C1385  C     0.13792   0.28521   0.71396   0.00000  Uiso   1.00
C1386  C     0.16683   0.16681   0.74034   0.00000  Uiso   1.00
C1387  C     0.16673   0.16644   0.92634   0.00000  Uiso   1.00
C1388  C     0.16692   0.16671   0.68856   0.00000  Uiso   1.00
C1389  C     0.16681   0.16622   0.97812   0.00000  Uiso   1.00
C1390  C     0.02339   0.13498   0.86029   0.00000  Uiso   1.00
C1391  C     0.30945   0.19817   0.79927   0.00000  Uiso   1.00
C1392  C     0.31528   0.12661   0.84893   0.00000  Uiso   1.00
Cu1393 Cu    0.16667   0.21355   0.83333   0.00000  Uiso   1.00
Cu1394 Cu    0.16667   0.11978   0.83333   0.00000  Uiso   1.00
H1395  H     0.07021   0.09275   0.89552   0.00000  Uiso   1.00
H1396  H     0.01991   0.03924   0.84528   0.00000  Uiso   1.00
H1397  H     0.30942   0.00947   0.86522   0.00000  Uiso   1.00
H1398  H     0.00288   0.04392   0.90860   0.00000  Uiso   1.00
H1399  H     0.02609   0.26062   0.76261   0.00000  Uiso   1.00
H1400  H     0.01613   0.19632   0.70190   0.00000  Uiso   1.00
H1401  H     0.06684   0.17526   0.72497   0.00000  Uiso   1.00
H1402  H     0.06014   0.23118   0.69487   0.00000  Uiso   1.00
H1403  H     0.07979   0.04317   0.78490   0.00000  Uiso   1.00
H1404  H     0.10287   0.10021   0.71681   0.00000  Uiso   1.00
H1405  H     0.08804   0.04355   0.70112   0.00000  Uiso   1.00
H1406  H     0.01712   0.15554   0.95432   0.00000  Uiso   1.00
H1407  H     0.14258   0.05577   0.71011   0.00000  Uiso   1.00
H1408  H     0.24843   0.28596   0.89421   0.00000  Uiso   1.00
H1409  H     0.22529   0.30405   0.97387   0.00000  Uiso   1.00
H1410  H     0.22105   0.24317   0.96699   0.00000  Uiso   1.00
H1411  H     0.17560   0.28053   0.95718   0.00000  Uiso   1.00
H1412  H     0.17816   0.03202   0.94469   0.00000  Uiso   1.00
H1413  H     0.24482   0.08846   0.91525   0.00000  Uiso   1.00
H1414  H     0.25893   0.02696   0.92251   0.00000  Uiso   1.00
H1415  H     0.23934   0.05959   0.97256   0.00000  Uiso   1.00
H1416  H     0.08902   0.29883   0.75850   0.00000  Uiso   1.00
H1417  H     0.06013   0.11905   0.97704   0.00000  Uiso   1.00
H1418  H     0.12653   0.31375   0.68902   0.00000  Uiso   1.00
H1419  H     0.12884   0.25310   0.69530   0.00000  Uiso   1.00
H1420  H     0.17212   0.28548   0.71784   0.00000  Uiso   1.00
H1421  H     0.06915   0.16916   0.93925   0.00000  Uiso   1.00
H1422  H     0.26022   0.21376   0.74788   0.00000  Uiso   1.00
H1423  H     0.28794   0.29861   0.74858   0.00000  Uiso   1.00
H1424  H     0.29897   0.28371   0.81271   0.00000  Uiso   1.00
H1425  H     0.24681   0.28322   0.78689   0.00000  Uiso   1.00
H1426  H     0.28001   0.07246   0.82480   0.00000  Uiso   1.00
N1427  N     0.16667   0.28402   0.83333   0.00000  Uiso   1.00
N1428  N     0.11946   0.28765   0.76155   0.00000  Uiso   1.00
N1429  N     0.16667   0.04931   0.83333   0.00000  Uiso   1.00
N1430  N     0.04405   0.11241   0.90198   0.00000  Uiso   1.00
N1431  N     0.28559   0.22783   0.76539   0.00000  Uiso   1.00
N1432  N     0.29935   0.08112   0.85417   0.00000  Uiso   1.00
N1433  N     0.03920   0.22772   0.76668   0.00000  Uiso   1.00
N1434  N     0.10867   0.05212   0.77496   0.00000  Uiso   1.00
N1435  N     0.21793   0.28087   0.90047   0.00000  Uiso   1.00
N1436  N     0.19525   0.04450   0.91677   0.00000  Uiso   1.00
O1437  O     0.10655   0.20625   0.83333   0.00000  Uiso   1.00
O1438  O     0.22679   0.12709   0.83334   0.00000  Uiso   1.00
O1439  O     0.22679   0.20625   0.83334   0.00000  Uiso   1.00
O1440  O     0.10655   0.12709   0.83333   0.00000  Uiso   1.00
O1441  O     0.16667   0.20625   0.76280   0.00000  Uiso   1.00
O1442  O     0.16667   0.12708   0.90387   0.00000  Uiso   1.00
O1443  O     0.16667   0.20625   0.90387   0.00000  Uiso   1.00
O1444  O     0.16667   0.12708   0.76280   0.00000  Uiso   1.00
C1445  C     0.42086   0.16744   0.83344   0.00000  Uiso   1.00
C1446  C     0.35266   0.19882   0.80026   0.00000  Uiso   1.00
C1447  C     0.62400   0.16305   0.82581   0.00000  Uiso   1.00
C1448  C     0.37610   0.16851   0.83264   0.00000  Uiso   1.00
C1449  C     0.47522   0.02657   0.80004   0.00000  Uiso   1.00
C1450  C     0.52283   0.30697   0.86847   0.00000  Uiso   1.00
C1451  C     0.52075   0.02336   0.87040   0.00000  Uiso   1.00
C1452  C     0.47641   0.31021   0.79887   0.00000  Uiso   1.00
C1453  C     0.38115   0.14072   0.94531   0.00000  Uiso   1.00
C1454  C     0.61294   0.27572   0.77937   0.00000  Uiso   1.00
C1455  C     0.65975   0.04182   0.86902   0.00000  Uiso   1.00
C1456  C     0.57919   0.16562   0.83083   0.00000  Uiso   1.00
C1457  C     0.37923   0.20634   0.71975   0.00000  Uiso   1.00
C1458  C     0.44445   0.06302   0.72308   0.00000  Uiso   1.00
C1459  C     0.54257   0.27734   0.95217   0.00000  Uiso   1.00
C1460  C     0.57027   0.05513   0.93195   0.00000  Uiso   1.00
C1461  C     0.47125   0.28521   0.71396   0.00000  Uiso   1.00
C1462  C     0.50016   0.16681   0.74034   0.00000  Uiso   1.00
C1463  C     0.50006   0.16644   0.92634   0.00000  Uiso   1.00
C1464  C     0.50026   0.16671   0.68856   0.00000  Uiso   1.00
C1465  C     0.50015   0.16622   0.97812   0.00000  Uiso   1.00
C1466  C     0.35672   0.13498   0.86029   0.00000  Uiso   1.00
C1467  C     0.64279   0.19817   0.79927   0.00000  Uiso   1.00
C1468  C     0.64861   0.12661   0.84893   0.00000  Uiso   1.00
Cu1469 Cu    0.50000   0.21355   0.83333   0.00000  Uiso   1.00
Cu1470 Cu    0.50000   0.11978   0.83333   0.00000  Uiso   1.00
H1471  H     0.40355   0.09275   0.89552   0.00000  Uiso   1.00
H1472  H     0.35325   0.03924   0.84528   0.00000  Uiso   1.00
H1473  H     0.64275   0.00947   0.86522   0.00000  Uiso   1.00
H1474  H     0.33621   0.04392   0.90860   0.00000  Uiso   1.00
H1475  H     0.35942   0.26062   0.76261   0.00000  Uiso   1.00
H1476  H     0.34947   0.19632   0.70190   0.00000  Uiso   1.00
H1477  H     0.40017   0.17526   0.72497   0.00000  Uiso   1.00
H1478  H     0.39347   0.23118   0.69487   0.00000  Uiso   1.00
H1479  H     0.41313   0.04317   0.78490   0.00000  Uiso   1.00
H1480  H     0.43620   0.10021   0.71681   0.00000  Uiso   1.00
H1481  H     0.42138   0.04355   0.70112   0.00000  Uiso   1.00
H1482  H     0.35046   0.15554   0.95432   0.00000  Uiso   1.00
H1483  H     0.47591   0.05577   0.71011   0.00000  Uiso   1.00
H1484  H     0.58176   0.28596   0.89421   0.00000  Uiso   1.00
H1485  H     0.55863   0.30405   0.97387   0.00000  Uiso   1.00
H1486  H     0.55439   0.24317   0.96699   0.00000  Uiso   1.00
H1487  H     0.50893   0.28053   0.95718   0.00000  Uiso   1.00
H1488  H     0.51150   0.03202   0.94469   0.00000  Uiso   1.00
H1489  H     0.57815   0.08846   0.91525   0.00000  Uiso   1.00
H1490  H     0.59226   0.02696   0.92251   0.00000  Uiso   1.00
H1491  H     0.57267   0.05959   0.97256   0.00000  Uiso   1.00
H1492  H     0.42235   0.29883   0.75850   0.00000  Uiso   1.00
H1493  H     0.39346   0.11905   0.97704   0.00000  Uiso   1.00
H1494  H     0.45987   0.31375   0.68902   0.00000  Uiso   1.00
H1495  H     0.46217   0.25310   0.69530   0.00000  Uiso   1.00
H1496  H     0.50546   0.28548   0.71784   0.00000  Uiso   1.00
H1497  H     0.40248   0.16916   0.93925   0.00000  Uiso   1.00
H1498  H     0.59355   0.21376   0.74788   0.00000  Uiso   1.00
H1499  H     0.62128   0.29861   0.74858   0.00000  Uiso   1.00
H1500  H     0.63230   0.28371   0.81271   0.00000  Uiso   1.00
H1501  H     0.58014   0.28322   0.78689   0.00000  Uiso   1.00
H1502  H     0.61334   0.07246   0.82480   0.00000  Uiso   1.00
N1503  N     0.50000   0.28402   0.83333   0.00000  Uiso   1.00
N1504  N     0.45280   0.28765   0.76155   0.00000  Uiso   1.00
N1505  N     0.50000   0.04931   0.83333   0.00000  Uiso   1.00
N1506  N     0.37739   0.11241   0.90198   0.00000  Uiso   1.00
N1507  N     0.61893   0.22783   0.76539   0.00000  Uiso   1.00
N1508  N     0.63268   0.08112   0.85417   0.00000  Uiso   1.00
N1509  N     0.37253   0.22772   0.76668   0.00000  Uiso   1.00
N1510  N     0.44201   0.05212   0.77496   0.00000  Uiso   1.00
N1511  N     0.55126   0.28087   0.90047   0.00000  Uiso   1.00
N1512  N     0.52859   0.04450   0.91677   0.00000  Uiso   1.00
O1513  O     0.43988   0.20625   0.83333   0.00000  Uiso   1.00
O1514  O     0.56012   0.12709   0.83334   0.00000  Uiso   1.00
O1515  O     0.56012   0.20625   0.83334   0.00000  Uiso   1.00
O1516  O     0.43988   0.12709   0.83333   0.00000  Uiso   1.00
O1517  O     0.50000   0.20625   0.76280   0.00000  Uiso   1.00
O1518  O     0.50000   0.12708   0.90387   0.00000  Uiso   1.00
O1519  O     0.50000   0.20625   0.90387   0.00000  Uiso   1.00
O1520  O     0.50000   0.12708   0.76280   0.00000  Uiso   1.00
C1521  C     0.75419   0.16744   0.83344   0.00000  Uiso   1.00
C1522  C     0.68599   0.19882   0.80026   0.00000  Uiso   1.00
C1523  C     0.95733   0.16305   0.82581   0.00000  Uiso   1.00
C1524  C     0.70943   0.16851   0.83264   0.00000  Uiso   1.00
C1525  C     0.80855   0.02657   0.80004   0.00000  Uiso   1.00
C1526  C     0.85616   0.30697   0.86847   0.00000  Uiso   1.00
C1527  C     0.85408   0.02336   0.87040   0.00000  Uiso   1.00
C1528  C     0.80974   0.31021   0.79887   0.00000  Uiso   1.00
C1529  C     0.71448   0.14072   0.94531   0.00000  Uiso   1.00
C1530  C     0.94628   0.27572   0.77937   0.00000  Uiso   1.00
C1531  C     0.99308   0.04182   0.86902   0.00000  Uiso   1.00
C1532  C     0.91253   0.16562   0.83083   0.00000  Uiso   1.00
C1533  C     0.71256   0.20634   0.71975   0.00000  Uiso   1.00
C1534  C     0.77778   0.06302   0.72308   0.00000  Uiso   1.00
C1535  C     0.87591   0.27734   0.95217   0.00000  Uiso   1.00
C1536  C     0.90360   0.05513   0.93195   0.00000  Uiso   1.00
C1537  C     0.80459   0.28521   0.71396   0.00000  Uiso   1.00
C1538  C     0.83349   0.16681   0.74034   0.00000  Uiso   1.00
C1539  C     0.83340   0.16644   0.92634   0.00000  Uiso   1.00
C1540  C     0.83359   0.16671   0.68856   0.00000  Uiso   1.00
C1541  C     0.83348   0.16622   0.97812   0.00000  Uiso   1.00
C1542  C     0.69006   0.13498   0.86029   0.00000  Uiso   1.00
C1543  C     0.97612   0.19817   0.79927   0.00000  Uiso   1.00
C1544  C     0.98195   0.12661   0.84893   0.00000  Uiso   1.00
Cu1545 Cu    0.83333   0.21355   0.83333   0.00000  Uiso   1.00
Cu1546 Cu    0.83333   0.11978   0.83333   0.00000  Uiso   1.00
H1547  H     0.73688   0.09275   0.89552   0.00000  Uiso   1.00
H1548  H     0.68658   0.03924   0.84528   0.00000  Uiso   1.00
H1549  H     0.97609   0.00947   0.86522   0.00000  Uiso   1.00
H1550  H     0.66954   0.04392   0.90860   0.00000  Uiso   1.00
H1551  H     0.69276   0.26062   0.76261   0.00000  Uiso   1.00
H1552  H     0.68280   0.19632   0.70190   0.00000  Uiso   1.00
H1553  H     0.73350   0.17526   0.72497   0.00000  Uiso   1.00
H1554  H     0.72681   0.23118   0.69487   0.00000  Uiso   1.00
H1555  H     0.74646   0.04317   0.78490   0.00000  Uiso   1.00
H1556  H     0.76954   0.10021   0.71681   0.00000  Uiso   1.00
H1557  H     0.75471   0.04355   0.70112   0.00000  Uiso   1.00
H1558  H     0.68379   0.15554   0.95432   0.00000  Uiso   1.00
H1559  H     0.80925   0.05577   0.71011   0.00000  Uiso   1.00
H1560  H     0.91510   0.28596   0.89421   0.00000  Uiso   1.00
H1561  H     0.89196   0.30405   0.97387   0.00000  Uiso   1.00
H1562  H     0.88772   0.24317   0.96699   0.00000  Uiso   1.00
H1563  H     0.84227   0.28053   0.95718   0.00000  Uiso   1.00
H1564  H     0.84483   0.03202   0.94469   0.00000  Uiso   1.00
H1565  H     0.91149   0.08846   0.91525   0.00000  Uiso   1.00
H1566  H     0.92559   0.02696   0.92251   0.00000  Uiso   1.00
H1567  H     0.90600   0.05959   0.97256   0.00000  Uiso   1.00
H1568  H     0.75569   0.29883   0.75850   0.00000  Uiso   1.00
H1569  H     0.72680   0.11905   0.97704   0.00000  Uiso   1.00
H1570  H     0.79320   0.31375   0.68902   0.00000  Uiso   1.00
H1571  H     0.79551   0.25310   0.69530   0.00000  Uiso   1.00
H1572  H     0.83879   0.28548   0.71784   0.00000  Uiso   1.00
H1573  H     0.73581   0.16916   0.93925   0.00000  Uiso   1.00
H1574  H     0.92688   0.21376   0.74788   0.00000  Uiso   1.00
H1575  H     0.95461   0.29861   0.74858   0.00000  Uiso   1.00
H1576  H     0.96564   0.28371   0.81271   0.00000  Uiso   1.00
H1577  H     0.91348   0.28322   0.78689   0.00000  Uiso   1.00
H1578  H     0.94668   0.07246   0.82480   0.00000  Uiso   1.00
N1579  N     0.83333   0.28402   0.83333   0.00000  Uiso   1.00
N1580  N     0.78613   0.28765   0.76155   0.00000  Uiso   1.00
N1581  N     0.83333   0.04931   0.83333   0.00000  Uiso   1.00
N1582  N     0.71072   0.11241   0.90198   0.00000  Uiso   1.00
N1583  N     0.95226   0.22783   0.76539   0.00000  Uiso   1.00
N1584  N     0.96602   0.08112   0.85417   0.00000  Uiso   1.00
N1585  N     0.70586   0.22772   0.76668   0.00000  Uiso   1.00
N1586  N     0.77534   0.05212   0.77496   0.00000  Uiso   1.00
N1587  N     0.88460   0.28087   0.90047   0.00000  Uiso   1.00
N1588  N     0.86192   0.04450   0.91677   0.00000  Uiso   1.00
O1589  O     0.77321   0.20625   0.83333   0.00000  Uiso   1.00
O1590  O     0.89345   0.12709   0.83334   0.00000  Uiso   1.00
O1591  O     0.89345   0.20625   0.83334   0.00000  Uiso   1.00
O1592  O     0.77321   0.12709   0.83333   0.00000  Uiso   1.00
O1593  O     0.83333   0.20625   0.76280   0.00000  Uiso   1.00
O1594  O     0.83333   0.12708   0.90387   0.00000  Uiso   1.00
O1595  O     0.83333   0.20625   0.90387   0.00000  Uiso   1.00
O1596  O     0.83333   0.12708   0.76280   0.00000  Uiso   1.00
C1597  C     0.08752   0.50077   0.83344   0.00000  Uiso   1.00
C1598  C     0.01933   0.53215   0.80026   0.00000  Uiso   1.00
C1599  C     0.29066   0.49638   0.82581   0.00000  Uiso   1.00
C1600  C     0.04277   0.50184   0.83264   0.00000  Uiso   1.00
C1601  C     0.14189   0.35991   0.80004   0.00000  Uiso   1.00
C1602  C     0.18949   0.64030   0.86847   0.00000  Uiso   1.00
C1603  C     0.18742   0.35669   0.87040   0.00000  Uiso   1.00
C1604  C     0.14307   0.64354   0.79887   0.00000  Uiso   1.00
C1605  C     0.04781   0.47405   0.94531   0.00000  Uiso   1.00
C1606  C     0.27961   0.60905   0.77937   0.00000  Uiso   1.00
C1607  C     0.32642   0.37515   0.86902   0.00000  Uiso   1.00
C1608  C     0.24586   0.49896   0.83083   0.00000  Uiso   1.00
C1609  C     0.04590   0.53968   0.71975   0.00000  Uiso   1.00
C1610  C     0.11112   0.39635   0.72308   0.00000  Uiso   1.00
C1611  C     0.20924   0.61067   0.95217   0.00000  Uiso   1.00
C1612  C     0.23693   0.38846   0.93195   0.00000  Uiso   1.00
C1613  C     0.13792   0.61855   0.71396   0.00000  Uiso   1.00
C1614  C     0.16683   0.50014   0.74034   0.00000  Uiso   1.00
C1615  C     0.16673   0.49978   0.92634   0.00000  Uiso   1.00
C1616  C     0.16692   0.50004   0.68856   0.00000  Uiso   1.00
C1617  C     0.16681   0.49955   0.97812   0.00000  Uiso   1.00
C1618  C     0.02339   0.46831   0.86029   0.00000  Uiso   1.00
C1619  C     0.30945   0.53150   0.79927   0.00000  Uiso   1.00
C1620  C     0.31528   0.45995   0.84893   0.00000  Uiso   1.00
Cu1621 Cu    0.16667   0.54689   0.83333   0.00000  Uiso   1.00
Cu1622 Cu    0.16667   0.45311   0.83333   0.00000  Uiso   1.00
H1623  H     0.07021   0.42608   0.89552   0.00000  Uiso   1.00
H1624  H     0.01991   0.37258   0.84528   0.00000  Uiso   1.00
H1625  H     0.30942   0.34280   0.86522   0.00000  Uiso   1.00
H1626  H     0.00288   0.37726   0.90860   0.00000  Uiso   1.00
H1627  H     0.02609   0.59396   0.76261   0.00000  Uiso   1.00
H1628  H     0.01613   0.52965   0.70190   0.00000  Uiso   1.00
H1629  H     0.06684   0.50860   0.72497   0.00000  Uiso   1.00
H1630  H     0.06014   0.56451   0.69487   0.00000  Uiso   1.00
H1631  H     0.07979   0.37651   0.78490   0.00000  Uiso   1.00
H1632  H     0.10287   0.43354   0.71681   0.00000  Uiso   1.00
H1633  H     0.08804   0.37688   0.70112   0.00000  Uiso   1.00
H1634  H     0.01712   0.48887   0.95432   0.00000  Uiso   1.00
H1635  H     0.14258   0.38910   0.71011   0.00000  Uiso   1.00
H1636  H     0.24843   0.61929   0.89421   0.00000  Uiso   1.00
H1637  H     0.22529   0.63738   0.97387   0.00000  Uiso   1.00
H1638  H     0.22105   0.57650   0.96699   0.00000  Uiso   1.00
H1639  H     0.17560   0.61386   0.95718   0.00000  Uiso   1.00
H1640  H     0.17816   0.36536   0.94469   0.00000  Uiso   1.00
H1641  H     0.24482   0.42180   0.91525   0.00000  Uiso   1.00
H1642  H     0.25893   0.36030   0.92251   0.00000  Uiso   1.00
H1643  H     0.23934   0.39292   0.97256   0.00000  Uiso   1.00
H1644  H     0.08902   0.63216   0.75850   0.00000  Uiso   1.00
H1645  H     0.06013   0.45238   0.97704   0.00000  Uiso   1.00
H1646  H     0.12653   0.64708   0.68902   0.00000  Uiso   1.00
H1647  H     0.12884   0.58644   0.69530   0.00000  Uiso   1.00
H1648  H     0.17212   0.61881   0.71784   0.00000  Uiso   1.00
H1649  H     0.06915   0.50250   0.93925   0.00000  Uiso   1.00
H1650  H     0.26022   0.54710   0.74788   0.00000  Uiso   1.00
H1651  H     0.28794   0.63194   0.74858   0.00000  Uiso   1.00
H1652  H     0.29897   0.61704   0.81271   0.00000  Uiso   1.00
H1653  H     0.24681   0.61655   0.78689   0.00000  Uiso   1.00
H1654  H     0.28001   0.40580   0.82480   0.00000  Uiso   1.00
N1655  N     0.16667   0.61736   0.83333   0.00000  Uiso   1.00
N1656  N     0.11946   0.62098   0.76155   0.00000  Uiso   1.00
N1657  N     0.16667   0.38264   0.83333   0.00000  Uiso   1.00
N1658  N     0.04405   0.44574   0.90198   0.00000  Uiso   1.00
N1659  N     0.28559   0.56116   0.76539   0.00000  Uiso   1.00
N1660  N     0.29935   0.41446   0.85417   0.00000  Uiso   1.00
N1661  N     0.03920   0.56105   0.76668   0.00000  Uiso   1.00
N1662  N     0.10867   0.38546   0.77496   0.00000  Uiso   1.00
N1663  N     0.21793   0.61420   0.90047   0.00000  Uiso   1.00
N1664  N     0.19525   0.37783   0.91677   0.00000  Uiso   1.00
O1665  O     0.10655   0.53958   0.83333   0.00000  Uiso   1.00
O1666  O     0.22679   0.46042   0.83334   0.00000  Uiso   1.00
O1667  O     0.22679   0.53958   0.83334   0.00000  Uiso   1.00
O1668  O     0.10655   0.46042   0.83333   0.00000  Uiso   1.00
O1669  O     0.16667   0.53959   0.76280   0.00000  Uiso   1.00
O1670  O     0.16667   0.46041   0.90387   0.00000  Uiso   1.00
O1671  O     0.16667   0.53959   0.90387   0.00000  Uiso   1.00
O1672  O     0.16667   0.46041   0.76280   0.00000  Uiso   1.00
C1673  C     0.42086   0.50077   0.83344   0.00000  Uiso   1.00
C1674  C     0.35266   0.53215   0.80026   0.00000  Uiso   1.00
C1675  C     0.62400   0.49638   0.82581   0.00000  Uiso   1.00
C1676  C     0.37610   0.50184   0.83264   0.00000  Uiso   1.00
C1677  C     0.47522   0.35991   0.80004   0.00000  Uiso   1.00
C1678  C     0.52283   0.64030   0.86847   0.00000  Uiso   1.00
C1679  C     0.52075   0.35669   0.87040   0.00000  Uiso   1.00
C1680  C     0.47641   0.64354   0.79887   0.00000  Uiso   1.00
C1681  C     0.38115   0.47405   0.94531   0.00000  Uiso   1.00
C1682  C     0.61294   0.60905   0.77937   0.00000  Uiso   1.00
C1683  C     0.65975   0.37515   0.86902   0.00000  Uiso   1.00
C1684  C     0.57919   0.49896   0.83083   0.00000  Uiso   1.00
C1685  C     0.37923   0.53968   0.71975   0.00000  Uiso   1.00
C1686  C     0.44445   0.39635   0.72308   0.00000  Uiso   1.00
C1687  C     0.54257   0.61067   0.95217   0.00000  Uiso   1.00
C1688  C     0.57027   0.38846   0.93195   0.00000  Uiso   1.00
C1689  C     0.47125   0.61855   0.71396   0.00000  Uiso   1.00
C1690  C     0.50016   0.50014   0.74034   0.00000  Uiso   1.00
C1691  C     0.50006   0.49978   0.92634   0.00000  Uiso   1.00
C1692  C     0.50026   0.50004   0.68856   0.00000  Uiso   1.00
C1693  C     0.50015   0.49955   0.97812   0.00000  Uiso   1.00
C1694  C     0.35672   0.46831   0.86029   0.00000  Uiso   1.00
C1695  C     0.64279   0.53150   0.79927   0.00000  Uiso   1.00
C1696  C     0.64861   0.45995   0.84893   0.00000  Uiso   1.00
Cu1697 Cu    0.50000   0.54689   0.83333   0.00000  Uiso   1.00
Cu1698 Cu    0.50000   0.45311   0.83333   0.00000  Uiso   1.00
H1699  H     0.40355   0.42608   0.89552   0.00000  Uiso   1.00
H1700  H     0.35325   0.37258   0.84528   0.00000  Uiso   1.00
H1701  H     0.64275   0.34280   0.86522   0.00000  Uiso   1.00
H1702  H     0.33621   0.37726   0.90860   0.00000  Uiso   1.00
H1703  H     0.35942   0.59396   0.76261   0.00000  Uiso   1.00
H1704  H     0.34947   0.52965   0.70190   0.00000  Uiso   1.00
H1705  H     0.40017   0.50860   0.72497   0.00000  Uiso   1.00
H1706  H     0.39347   0.56451   0.69487   0.00000  Uiso   1.00
H1707  H     0.41313   0.37651   0.78490   0.00000  Uiso   1.00
H1708  H     0.43620   0.43354   0.71681   0.00000  Uiso   1.00
H1709  H     0.42138   0.37688   0.70112   0.00000  Uiso   1.00
H1710  H     0.35046   0.48887   0.95432   0.00000  Uiso   1.00
H1711  H     0.47591   0.38910   0.71011   0.00000  Uiso   1.00
H1712  H     0.58176   0.61929   0.89421   0.00000  Uiso   1.00
H1713  H     0.55863   0.63738   0.97387   0.00000  Uiso   1.00
H1714  H     0.55439   0.57650   0.96699   0.00000  Uiso   1.00
H1715  H     0.50893   0.61386   0.95718   0.00000  Uiso   1.00
H1716  H     0.51150   0.36536   0.94469   0.00000  Uiso   1.00
H1717  H     0.57815   0.42180   0.91525   0.00000  Uiso   1.00
H1718  H     0.59226   0.36030   0.92251   0.00000  Uiso   1.00
H1719  H     0.57267   0.39292   0.97256   0.00000  Uiso   1.00
H1720  H     0.42235   0.63216   0.75850   0.00000  Uiso   1.00
H1721  H     0.39346   0.45238   0.97704   0.00000  Uiso   1.00
H1722  H     0.45987   0.64708   0.68902   0.00000  Uiso   1.00
H1723  H     0.46217   0.58644   0.69530   0.00000  Uiso   1.00
H1724  H     0.50546   0.61881   0.71784   0.00000  Uiso   1.00
H1725  H     0.40248   0.50250   0.93925   0.00000  Uiso   1.00
H1726  H     0.59355   0.54710   0.74788   0.00000  Uiso   1.00
H1727  H     0.62128   0.63194   0.74858   0.00000  Uiso   1.00
H1728  H     0.63230   0.61704   0.81271   0.00000  Uiso   1.00
H1729  H     0.58014   0.61655   0.78689   0.00000  Uiso   1.00
H1730  H     0.61334   0.40580   0.82480   0.00000  Uiso   1.00
N1731  N     0.50000   0.61736   0.83333   0.00000  Uiso   1.00
N1732  N     0.45280   0.62098   0.76155   0.00000  Uiso   1.00
N1733  N     0.50000   0.38264   0.83333   0.00000  Uiso   1.00
N1734  N     0.37739   0.44574   0.90198   0.00000  Uiso   1.00
N1735  N     0.61893   0.56116   0.76539   0.00000  Uiso   1.00
N1736  N     0.63268   0.41446   0.85417   0.00000  Uiso   1.00
N1737  N     0.37253   0.56105   0.76668   0.00000  Uiso   1.00
N1738  N     0.44201   0.38546   0.77496   0.00000  Uiso   1.00
N1739  N     0.55126   0.61420   0.90047   0.00000  Uiso   1.00
N1740  N     0.52859   0.37783   0.91677   0.00000  Uiso   1.00
O1741  O     0.43988   0.53958   0.83333   0.00000  Uiso   1.00
O1742  O     0.56012   0.46042   0.83334   0.00000  Uiso   1.00
O1743  O     0.56012   0.53958   0.83334   0.00000  Uiso   1.00
O1744  O     0.43988   0.46042   0.83333   0.00000  Uiso   1.00
O1745  O     0.50000   0.53959   0.76280   0.00000  Uiso   1.00
O1746  O     0.50000   0.46041   0.90387   0.00000  Uiso   1.00
O1747  O     0.50000   0.53959   0.90387   0.00000  Uiso   1.00
O1748  O     0.50000   0.46041   0.76280   0.00000  Uiso   1.00
C1749  C     0.75419   0.50077   0.83344   0.00000  Uiso   1.00
C1750  C     0.68599   0.53215   0.80026   0.00000  Uiso   1.00
C1751  C     0.95733   0.49638   0.82581   0.00000  Uiso   1.00
C1752  C     0.70943   0.50184   0.83264   0.00000  Uiso   1.00
C1753  C     0.80855   0.35991   0.80004   0.00000  Uiso   1.00
C1754  C     0.85616   0.64030   0.86847   0.00000  Uiso   1.00
C1755  C     0.85408   0.35669   0.87040   0.00000  Uiso   1.00
C1756  C     0.80974   0.64354   0.79887   0.00000  Uiso   1.00
C1757  C     0.71448   0.47405   0.94531   0.00000  Uiso   1.00
C1758  C     0.94628   0.60905   0.77937   0.00000  Uiso   1.00
C1759  C     0.99308   0.37515   0.86902   0.00000  Uiso   1.00
C1760  C     0.91253   0.49896   0.83083   0.00000  Uiso   1.00
C1761  C     0.71256   0.53968   0.71975   0.00000  Uiso   1.00
C1762  C     0.77778   0.39635   0.72308   0.00000  Uiso   1.00
C1763  C     0.87591   0.61067   0.95217   0.00000  Uiso   1.00
C1764  C     0.90360   0.38846   0.93195   0.00000  Uiso   1.00
C1765  C     0.80459   0.61855   0.71396   0.00000  Uiso   1.00
C1766  C     0.83349   0.50014   0.74034   0.00000  Uiso   1.00
C1767  C     0.83340   0.49978   0.92634   0.00000  Uiso   1.00
C1768  C     0.83359   0.50004   0.68856   0.00000  Uiso   1.00
C1769  C     0.83348   0.49955   0.97812   0.00000  Uiso   1.00
C1770  C     0.69006   0.46831   0.86029   0.00000  Uiso   1.00
C1771  C     0.97612   0.53150   0.79927   0.00000  Uiso   1.00
C1772  C     0.98195   0.45995   0.84893   0.00000  Uiso   1.00
Cu1773 Cu    0.83333   0.54689   0.83333   0.00000  Uiso   1.00
Cu1774 Cu    0.83333   0.45311   0.83333   0.00000  Uiso   1.00
H1775  H     0.73688   0.42608   0.89552   0.00000  Uiso   1.00
H1776  H     0.68658   0.37258   0.84528   0.00000  Uiso   1.00
H1777  H     0.97609   0.34280   0.86522   0.00000  Uiso   1.00
H1778  H     0.66954   0.37726   0.90860   0.00000  Uiso   1.00
H1779  H     0.69276   0.59396   0.76261   0.00000  Uiso   1.00
H1780  H     0.68280   0.52965   0.70190   0.00000  Uiso   1.00
H1781  H     0.73350   0.50860   0.72497   0.00000  Uiso   1.00
H1782  H     0.72681   0.56451   0.69487   0.00000  Uiso   1.00
H1783  H     0.74646   0.37651   0.78490   0.00000  Uiso   1.00
H1784  H     0.76954   0.43354   0.71681   0.00000  Uiso   1.00
H1785  H     0.75471   0.37688   0.70112   0.00000  Uiso   1.00
H1786  H     0.68379   0.48887   0.95432   0.00000  Uiso   1.00
H1787  H     0.80925   0.38910   0.71011   0.00000  Uiso   1.00
H1788  H     0.91510   0.61929   0.89421   0.00000  Uiso   1.00
H1789  H     0.89196   0.63738   0.97387   0.00000  Uiso   1.00
H1790  H     0.88772   0.57650   0.96699   0.00000  Uiso   1.00
H1791  H     0.84227   0.61386   0.95718   0.00000  Uiso   1.00
H1792  H     0.84483   0.36536   0.94469   0.00000  Uiso   1.00
H1793  H     0.91149   0.42180   0.91525   0.00000  Uiso   1.00
H1794  H     0.92559   0.36030   0.92251   0.00000  Uiso   1.00
H1795  H     0.90600   0.39292   0.97256   0.00000  Uiso   1.00
H1796  H     0.75569   0.63216   0.75850   0.00000  Uiso   1.00
H1797  H     0.72680   0.45238   0.97704   0.00000  Uiso   1.00
H1798  H     0.79320   0.64708   0.68902   0.00000  Uiso   1.00
H1799  H     0.79551   0.58644   0.69530   0.00000  Uiso   1.00
H1800  H     0.83879   0.61881   0.71784   0.00000  Uiso   1.00
H1801  H     0.73581   0.50250   0.93925   0.00000  Uiso   1.00
H1802  H     0.92688   0.54710   0.74788   0.00000  Uiso   1.00
H1803  H     0.95461   0.63194   0.74858   0.00000  Uiso   1.00
H1804  H     0.96564   0.61704   0.81271   0.00000  Uiso   1.00
H1805  H     0.91348   0.61655   0.78689   0.00000  Uiso   1.00
H1806  H     0.94668   0.40580   0.82480   0.00000  Uiso   1.00
N1807  N     0.83333   0.61736   0.83333   0.00000  Uiso   1.00
N1808  N     0.78613   0.62098   0.76155   0.00000  Uiso   1.00
N1809  N     0.83333   0.38264   0.83333   0.00000  Uiso   1.00
N1810  N     0.71072   0.44574   0.90198   0.00000  Uiso   1.00
N1811  N     0.95226   0.56116   0.76539   0.00000  Uiso   1.00
N1812  N     0.96602   0.41446   0.85417   0.00000  Uiso   1.00
N1813  N     0.70586   0.56105   0.76668   0.00000  Uiso   1.00
N1814  N     0.77534   0.38546   0.77496   0.00000  Uiso   1.00
N1815  N     0.88460   0.61420   0.90047   0.00000  Uiso   1.00
N1816  N     0.86192   0.37783   0.91677   0.00000  Uiso   1.00
O1817  O     0.77321   0.53958   0.83333   0.00000  Uiso   1.00
O1818  O     0.89345   0.46042   0.83334   0.00000  Uiso   1.00
O1819  O     0.89345   0.53958   0.83334   0.00000  Uiso   1.00
O1820  O     0.77321   0.46042   0.83333   0.00000  Uiso   1.00
O1821  O     0.83333   0.53959   0.76280   0.00000  Uiso   1.00
O1822  O     0.83333   0.46041   0.90387   0.00000  Uiso   1.00
O1823  O     0.83333   0.53959   0.90387   0.00000  Uiso   1.00
O1824  O     0.83333   0.46041   0.76280   0.00000  Uiso   1.00
C1825  C     0.08752   0.83410   0.83344   0.00000  Uiso   1.00
C1826  C     0.01933   0.86548   0.80026   0.00000  Uiso   1.00
C1827  C     0.29066   0.82971   0.82581   0.00000  Uiso   1.00
C1828  C     0.04277   0.83517   0.83264   0.00000  Uiso   1.00
C1829  C     0.14189   0.69324   0.80004   0.00000  Uiso   1.00
C1830  C     0.18949   0.97364   0.86847   0.00000  Uiso   1.00
C1831  C     0.18742   0.69003   0.87040   0.00000  Uiso   1.00
C1832  C     0.14307   0.97688   0.79887   0.00000  Uiso   1.00
C1833  C     0.04781   0.80738   0.94531   0.00000  Uiso   1.00
C1834  C     0.27961   0.94238   0.77937   0.00000  Uiso   1.00
C1835  C     0.32642   0.70849   0.86902   0.00000  Uiso   1.00
C1836  C     0.24586   0.83229   0.83083   0.00000  Uiso   1.00
C1837  C     0.04590   0.87301   0.71975   0.00000  Uiso   1.00
C1838  C     0.11112   0.72968   0.72308   0.00000  Uiso   1.00
C1839  C     0.20924   0.94400   0.95217   0.00000  Uiso   1.00
C1840  C     0.23693   0.72180   0.93195   0.00000  Uiso   1.00
C1841  C     0.13792   0.95188   0.71396   0.00000  Uiso   1.00
C1842  C     0.16683   0.83348   0.74034   0.00000  Uiso   1.00
C1843  C     0.16673   0.83311   0.92634   0.00000  Uiso   1.00
C1844  C     0.16692   0.83338   0.68856   0.00000  Uiso   1.00
C1845  C     0.16681   0.83288   0.97812   0.00000  Uiso   1.00
C1846  C     0.02339   0.80164   0.86029   0.00000  Uiso   1.00
C1847  C     0.30945   0.86484   0.79927   0.00000  Uiso   1.00
C1848  C     0.31528   0.79328   0.84893   0.00000  Uiso   1.00
Cu1849 Cu    0.16667   0.88022   0.83333   0.00000  Uiso   1.00
Cu1850 Cu    0.16667   0.78645   0.83333   0.00000  Uiso   1.00
H1851  H     0.07021   0.75941   0.89552   0.00000  Uiso   1.00
H1852  H     0.01991   0.70591   0.84528   0.00000  Uiso   1.00
H1853  H     0.30942   0.67614   0.86522   0.00000  Uiso   1.00
H1854  H     0.00288   0.71059   0.90860   0.00000  Uiso   1.00
H1855  H     0.02609   0.92729   0.76261   0.00000  Uiso   1.00
H1856  H     0.01613   0.86298   0.70190   0.00000  Uiso   1.00
H1857  H     0.06684   0.84193   0.72497   0.00000  Uiso   1.00
H1858  H     0.06014   0.89784   0.69487   0.00000  Uiso   1.00
H1859  H     0.07979   0.70984   0.78490   0.00000  Uiso   1.00
H1860  H     0.10287   0.76688   0.71681   0.00000  Uiso   1.00
H1861  H     0.08804   0.71021   0.70112   0.00000  Uiso   1.00
H1862  H     0.01712   0.82220   0.95432   0.00000  Uiso   1.00
H1863  H     0.14258   0.72243   0.71011   0.00000  Uiso   1.00
H1864  H     0.24843   0.95263   0.89421   0.00000  Uiso   1.00
H1865  H     0.22529   0.97071   0.97387   0.00000  Uiso   1.00
H1866  H     0.22105   0.90983   0.96699   0.00000  Uiso   1.00
H1867  H     0.17560   0.94720   0.95718   0.00000  Uiso   1.00
H1868  H     0.17816   0.69869   0.94469   0.00000  Uiso   1.00
H1869  H     0.24482   0.75513   0.91525   0.00000  Uiso   1.00
H1870  H     0.25893   0.69363   0.92251   0.00000  Uiso   1.00
H1871  H     0.23934   0.72625   0.97256   0.00000  Uiso   1.00
H1872  H     0.08902   0.96549   0.75850   0.00000  Uiso   1.00
H1873  H     0.06013   0.78571   0.97704   0.00000  Uiso   1.00
H1874  H     0.12653   0.98041   0.68902   0.00000  Uiso   1.00
H1875  H     0.12884   0.91977   0.69530   0.00000  Uiso   1.00
H1876  H     0.17212   0.95214   0.71784   0.00000  Uiso   1.00
H1877  H     0.06915   0.83583   0.93925   0.00000  Uiso   1.00
H1878  H     0.26022   0.88043   0.74788   0.00000  Uiso   1.00
H1879  H     0.28794   0.96528   0.74858   0.00000  Uiso   1.00
H1880  H     0.29897   0.95038   0.81271   0.00000  Uiso   1.00
H1881  H     0.24681   0.94989   0.78689   0.00000  Uiso   1.00
H1882  H     0.28001   0.73913   0.82480   0.00000  Uiso   1.00
N1883  N     0.16667   0.95069   0.83333   0.00000  Uiso   1.00
N1884  N     0.11946   0.95432   0.76155   0.00000  Uiso   1.00
N1885  N     0.16667   0.71598   0.83333   0.00000  Uiso   1.00
N1886  N     0.04405   0.77907   0.90198   0.00000  Uiso   1.00
N1887  N     0.28559   0.89450   0.76539   0.00000  Uiso   1.00
N1888  N     0.29935   0.74779   0.85417   0.00000  Uiso   1.00
N1889  N     0.03920   0.89439   0.76668   0.00000  Uiso   1.00
N1890  N     0.10867   0.71879   0.77496   0.00000  Uiso   1.00
N1891  N     0.21793   0.94753   0.90047   0.00000  Uiso   1.00
N1892  N     0.19525   0.71116   0.91677   0.00000  Uiso   1.00
O1893  O     0.10655   0.87291   0.83333   0.00000  Uiso   1.00
O1894  O     0.22679   0.79375   0.83334   0.00000  Uiso   1.00
O1895  O     0.22679   0.87291   0.83334   0.00000  Uiso   1.00
O1896  O     0.10655   0.79375   0.83333   0.00000  Uiso   1.00
O1897  O     0.16667   0.87292   0.76280   0.00000  Uiso   1.00
O1898  O     0.16667   0.79375   0.90387   0.00000  Uiso   1.00
O1899  O     0.16667   0.87292   0.90387   0.00000  Uiso   1.00
O1900  O     0.16667   0.79375   0.76280   0.00000  Uiso   1.00
C1901  C     0.42086   0.83410   0.83344   0.00000  Uiso   1.00
C1902  C     0.35266   0.86548   0.80026   0.00000  Uiso   1.00
C1903  C     0.62400   0.82971   0.82581   0.00000  Uiso   1.00
C1904  C     0.37610   0.83517   0.83264   0.00000  Uiso   1.00
C1905  C     0.47522   0.69324   0.80004   0.00000  Uiso   1.00
C1906  C     0.52283   0.97364   0.86847   0.00000  Uiso   1.00
C1907  C     0.52075   0.69003   0.87040   0.00000  Uiso   1.00
C1908  C     0.47641   0.97688   0.79887   0.00000  Uiso   1.00
C1909  C     0.38115   0.80738   0.94531   0.00000  Uiso   1.00
C1910  C     0.61294   0.94238   0.77937   0.00000  Uiso   1.00
C1911  C     0.65975   0.70849   0.86902   0.00000  Uiso   1.00
C1912  C     0.57919   0.83229   0.83083   0.00000  Uiso   1.00
C1913  C     0.37923   0.87301   0.71975   0.00000  Uiso   1.00
C1914  C     0.44445   0.72968   0.72308   0.00000  Uiso   1.00
C1915  C     0.54257   0.94400   0.95217   0.00000  Uiso   1.00
C1916  C     0.57027   0.72180   0.93195   0.00000  Uiso   1.00
C1917  C     0.47125   0.95188   0.71396   0.00000  Uiso   1.00
C1918  C     0.50016   0.83348   0.74034   0.00000  Uiso   1.00
C1919  C     0.50006   0.83311   0.92634   0.00000  Uiso   1.00
C1920  C     0.50026   0.83338   0.68856   0.00000  Uiso   1.00
C1921  C     0.50015   0.83288   0.97812   0.00000  Uiso   1.00
C1922  C     0.35672   0.80164   0.86029   0.00000  Uiso   1.00
C1923  C     0.64279   0.86484   0.79927   0.00000  Uiso   1.00
C1924  C     0.64861   0.79328   0.84893   0.00000  Uiso   1.00
Cu1925 Cu    0.50000   0.88022   0.83333   0.00000  Uiso   1.00
Cu1926 Cu    0.50000   0.78645   0.83333   0.00000  Uiso   1.00
H1927  H     0.40355   0.75941   0.89552   0.00000  Uiso   1.00
H1928  H     0.35325   0.70591   0.84528   0.00000  Uiso   1.00
H1929  H     0.64275   0.67614   0.86522   0.00000  Uiso   1.00
H1930  H     0.33621   0.71059   0.90860   0.00000  Uiso   1.00
H1931  H     0.35942   0.92729   0.76261   0.00000  Uiso   1.00
H1932  H     0.34947   0.86298   0.70190   0.00000  Uiso   1.00
H1933  H     0.40017   0.84193   0.72497   0.00000  Uiso   1.00
H1934  H     0.39347   0.89784   0.69487   0.00000  Uiso   1.00
H1935  H     0.41313   0.70984   0.78490   0.00000  Uiso   1.00
H1936  H     0.43620   0.76688   0.71681   0.00000  Uiso   1.00
H1937  H     0.42138   0.71021   0.70112   0.00000  Uiso   1.00
H1938  H     0.35046   0.82220   0.95432   0.00000  Uiso   1.00
H1939  H     0.47591   0.72243   0.71011   0.00000  Uiso   1.00
H1940  H     0.58176   0.95263   0.89421   0.00000  Uiso   1.00
H1941  H     0.55863   0.97071   0.97387   0.00000  Uiso   1.00
H1942  H     0.55439   0.90983   0.96699   0.00000  Uiso   1.00
H1943  H     0.50893   0.94720   0.95718   0.00000  Uiso   1.00
H1944  H     0.51150   0.69869   0.94469   0.00000  Uiso   1.00
H1945  H     0.57815   0.75513   0.91525   0.00000  Uiso   1.00
H1946  H     0.59226   0.69363   0.92251   0.00000  Uiso   1.00
H1947  H     0.57267   0.72625   0.97256   0.00000  Uiso   1.00
H1948  H     0.42235   0.96549   0.75850   0.00000  Uiso   1.00
H1949  H     0.39346   0.78571   0.97704   0.00000  Uiso   1.00
H1950  H     0.45987   0.98041   0.68902   0.00000  Uiso   1.00
H1951  H     0.46217   0.91977   0.69530   0.00000  Uiso   1.00
H1952  H     0.50546   0.95214   0.71784   0.00000  Uiso   1.00
H1953  H     0.40248   0.83583   0.93925   0.00000  Uiso   1.00
H1954  H     0.59355   0.88043   0.74788   0.00000  Uiso   1.00
H1955  H     0.62128   0.96528   0.74858   0.00000  Uiso   1.00
H1956  H     0.63230   0.95038   0.81271   0.00000  Uiso   1.00
H1957  H     0.58014   0.94989   0.78689   0.00000  Uiso   1.00
H1958  H     0.61334   0.73913   0.82480   0.00000  Uiso   1.00
N1959  N     0.50000   0.95069   0.83333   0.00000  Uiso   1.00
N1960  N     0.45280   0.95432   0.76155   0.00000  Uiso   1.00
N1961  N     0.50000   0.71598   0.83333   0.00000  Uiso   1.00
N1962  N     0.37739   0.77907   0.90198   0.00000  Uiso   1.00
N1963  N     0.61893   0.89450   0.76539   0.00000  Uiso   1.00
N1964  N     0.63268   0.74779   0.85417   0.00000  Uiso   1.00
N1965  N     0.37253   0.89439   0.76668   0.00000  Uiso   1.00
N1966  N     0.44201   0.71879   0.77496   0.00000  Uiso   1.00
N1967  N     0.55126   0.94753   0.90047   0.00000  Uiso   1.00
N1968  N     0.52859   0.71116   0.91677   0.00000  Uiso   1.00
O1969  O     0.43988   0.87291   0.83333   0.00000  Uiso   1.00
O1970  O     0.56012   0.79375   0.83334   0.00000  Uiso   1.00
O1971  O     0.56012   0.87291   0.83334   0.00000  Uiso   1.00
O1972  O     0.43988   0.79375   0.83333   0.00000  Uiso   1.00
O1973  O     0.50000   0.87292   0.76280   0.00000  Uiso   1.00
O1974  O     0.50000   0.79375   0.90387   0.00000  Uiso   1.00
O1975  O     0.50000   0.87292   0.90387   0.00000  Uiso   1.00
O1976  O     0.50000   0.79375   0.76280   0.00000  Uiso   1.00
C1977  C     0.75419   0.83410   0.83344   0.00000  Uiso   1.00
C1978  C     0.68599   0.86548   0.80026   0.00000  Uiso   1.00
C1979  C     0.95733   0.82971   0.82581   0.00000  Uiso   1.00
C1980  C     0.70943   0.83517   0.83264   0.00000  Uiso   1.00
C1981  C     0.80855   0.69324   0.80004   0.00000  Uiso   1.00
C1982  C     0.85616   0.97364   0.86847   0.00000  Uiso   1.00
C1983  C     0.85408   0.69003   0.87040   0.00000  Uiso   1.00
C1984  C     0.80974   0.97688   0.79887   0.00000  Uiso   1.00
C1985  C     0.71448   0.80738   0.94531   0.00000  Uiso   1.00
C1986  C     0.94628   0.94238   0.77937   0.00000  Uiso   1.00
C1987  C     0.99308   0.70849   0.86902   0.00000  Uiso   1.00
C1988  C     0.91253   0.83229   0.83083   0.00000  Uiso   1.00
C1989  C     0.71256   0.87301   0.71975   0.00000  Uiso   1.00
C1990  C     0.77778   0.72968   0.72308   0.00000  Uiso   1.00
C1991  C     0.87591   0.94400   0.95217   0.00000  Uiso   1.00
C1992  C     0.90360   0.72180   0.93195   0.00000  Uiso   1.00
C1993  C     0.80459   0.95188   0.71396   0.00000  Uiso   1.00
C1994  C     0.83349   0.83348   0.74034   0.00000  Uiso   1.00
C1995  C     0.83340   0.83311   0.92634   0.00000  Uiso   1.00
C1996  C     0.83359   0.83338   0.68856   0.00000  Uiso   1.00
C1997  C     0.83348   0.83288   0.97812   0.00000  Uiso   1.00
C1998  C     0.69006   0.80164   0.86029   0.00000  Uiso   1.00
C1999  C     0.97612   0.86484   0.79927   0.00000  Uiso   1.00
C2000  C     0.98195   0.79328   0.84893   0.00000  Uiso   1.00
Cu2001 Cu    0.83333   0.88022   0.83333   0.00000  Uiso   1.00
Cu2002 Cu    0.83333   0.78645   0.83333   0.00000  Uiso   1.00
H2003  H     0.73688   0.75941   0.89552   0.00000  Uiso   1.00
H2004  H     0.68658   0.70591   0.84528   0.00000  Uiso   1.00
H2005  H     0.97609   0.67614   0.86522   0.00000  Uiso   1.00
H2006  H     0.66954   0.71059   0.90860   0.00000  Uiso   1.00
H2007  H     0.69276   0.92729   0.76261   0.00000  Uiso   1.00
H2008  H     0.68280   0.86298   0.70190   0.00000  Uiso   1.00
H2009  H     0.73350   0.84193   0.72497   0.00000  Uiso   1.00
H2010  H     0.72681   0.89784   0.69487   0.00000  Uiso   1.00
H2011  H     0.74646   0.70984   0.78490   0.00000  Uiso   1.00
H2012  H     0.76954   0.76688   0.71681   0.00000  Uiso   1.00
H2013  H     0.75471   0.71021   0.70112   0.00000  Uiso   1.00
H2014  H     0.68379   0.82220   0.95432   0.00000  Uiso   1.00
H2015  H     0.80925   0.72243   0.71011   0.00000  Uiso   1.00
H2016  H     0.91510   0.95263   0.89421   0.00000  Uiso   1.00
H2017  H     0.89196   0.97071   0.97387   0.00000  Uiso   1.00
H2018  H     0.88772   0.90983   0.96699   0.00000  Uiso   1.00
H2019  H     0.84227   0.94720   0.95718   0.00000  Uiso   1.00
H2020  H     0.84483   0.69869   0.94469   0.00000  Uiso   1.00
H2021  H     0.91149   0.75513   0.91525   0.00000  Uiso   1.00
H2022  H     0.92559   0.69363   0.92251   0.00000  Uiso   1.00
H2023  H     0.90600   0.72625   0.97256   0.00000  Uiso   1.00
H2024  H     0.75569   0.96549   0.75850   0.00000  Uiso   1.00
H2025  H     0.72680   0.78571   0.97704   0.00000  Uiso   1.00
H2026  H     0.79320   0.98041   0.68902   0.00000  Uiso   1.00
H2027  H     0.79551   0.91977   0.69530   0.00000  Uiso   1.00
H2028  H     0.83879   0.95214   0.71784   0.00000  Uiso   1.00
H2029  H     0.73581   0.83583   0.93925   0.00000  Uiso   1.00
H2030  H     0.92688   0.88043   0.74788   0.00000  Uiso   1.00
H2031  H     0.95461   0.96528   0.74858   0.00000  Uiso   1.00
H2032  H     0.96564   0.95038   0.81271   0.00000  Uiso   1.00
H2033  H     0.91348   0.94989   0.78689   0.00000  Uiso   1.00
H2034  H     0.94668   0.73913   0.82480   0.00000  Uiso   1.00
N2035  N     0.83333   0.95069   0.83333   0.00000  Uiso   1.00
N2036  N     0.78613   0.95432   0.76155   0.00000  Uiso   1.00
N2037  N     0.83333   0.71598   0.83333   0.00000  Uiso   1.00
N2038  N     0.71072   0.77907   0.90198   0.00000  Uiso   1.00
N2039  N     0.95226   0.89450   0.76539   0.00000  Uiso   1.00
N2040  N     0.96602   0.74779   0.85417   0.00000  Uiso   1.00
N2041  N     0.70586   0.89439   0.76668   0.00000  Uiso   1.00
N2042  N     0.77534   0.71879   0.77496   0.00000  Uiso   1.00
N2043  N     0.88460   0.94753   0.90047   0.00000  Uiso   1.00
N2044  N     0.86192   0.71116   0.91677   0.00000  Uiso   1.00
O2045  O     0.77321   0.87291   0.83333   0.00000  Uiso   1.00
O2046  O     0.89345   0.79375   0.83334   0.00000  Uiso   1.00
O2047  O     0.89345   0.87291   0.83334   0.00000  Uiso   1.00
O2048  O     0.77321   0.79375   0.83333   0.00000  Uiso   1.00
O2049  O     0.83333   0.87292   0.76280   0.00000  Uiso   1.00
O2050  O     0.83333   0.79375   0.90387   0.00000  Uiso   1.00
O2051  O     0.83333   0.87292   0.90387   0.00000  Uiso   1.00
O2052  O     0.83333   0.79375   0.76280   0.00000  Uiso   1.00
loop_
_geom_bond_atom_site_label_1
_geom_bond_atom_site_label_2
_geom_bond_distance
_geom_bond_site_symmetry_2
_ccdc_geom_bond_type
C1     C4      1.454   .     S
C1     O72     1.299   .     A
C1     O69     1.301   .     A
C2     C4      1.409   .     A
C2     N65     1.423   .     S
C2     C175    1.405   1_455 S
C3     C24     1.419   .     A
C3     C12     1.470   .     S
C3     C23     1.412   .     A
C4     C22     1.405   .     A
C5     N61     1.372   .     A
C5     N66     1.425   .     S
C5     C464    1.436   1_545 S
C6     N67     1.425   .     S
C6     N59     1.373   .     A
C6     C235    1.437   .     S
C7     N61     1.380   .     A
C7     N68     1.422   .     S
C7     C462    1.437   1_545 S
C8     N60     1.421   .     S
C8     N59     1.380   .     A
C8     C233    1.436   .     S
C9     H53     1.111   .     S
C9     H49     1.108   .     S
C9     H38     1.111   .     S
C9     N62     1.444   .     S
C10    N63     1.448   .     S
C10    H55     1.110   .     S
C10    H57     1.110   .     S
C10    H56     1.109   .     S
C11    H29     1.107   .     S
C11    N64     1.451   .     S
C11    H104    1.111   .     S
C11    H106    1.109   .     S
C12    O70     1.297   .     A
C12    O71     1.311   .     A
C13    H33     1.110   .     S
C13    H32     1.111   .     S
C13    H34     1.108   .     S
C13    N65     1.446   .     S
C14    N66     1.446   .     S
C14    H37     1.110   .     S
C14    H36     1.107   .     S
C14    H39     1.112   .     S
C15    N67     1.449   .     S
C15    H43     1.110   .     S
C15    H41     1.108   .     S
C15    H42     1.109   .     S
C16    H45     1.103   .     S
C16    N68     1.443   .     S
C16    H47     1.111   .     S
C16    H46     1.104   .     S
C17    H50     1.101   .     S
C17    H52     1.113   .     S
C17    H51     1.106   .     S
C17    N60     1.453   .     S
C18    O73     1.299   .     A
C18    C20     1.406   .     S
C18    O76     1.293   .     A
C19    O75     1.295   .     A
C19    C21     1.406   .     S
C19    O74     1.298   .     A
C20    C1389   1.188   1_554 S
C21    C704    1.188   .     S
C22    N62     1.425   .     S
C22    C176    1.399   1_455 S
C23    N63     1.429   .     S
C23    C78     1.405   .     S
C24    N64     1.439   .     S
C24    C98     1.399   .     S
Cu25   O73     1.929   .     S
Cu25   O71     1.959   .     S
Cu25   Cu26    2.709   .     S
Cu25   O69     1.975   .     S
Cu25   N59     2.036   .     S
Cu25   O75     1.924   .     S
Cu26   O72     1.959   .     S
Cu26   N61     2.036   .     S
Cu26   O76     1.924   .     S
Cu26   O74     1.929   .     S
Cu26   O70     1.975   .     S
H27    N62     1.029   .     S
H28    C163    1.111   1_455 S
H30    C163    1.109   1_455 S
H31    N65     1.029   .     S
H35    N66     1.031   .     S
H40    N67     1.030   .     S
H44    N68     1.031   .     S
H48    N60     1.029   .     S
H54    N63     1.032   .     S
H58    N64     1.031   .     S
C77    C80     1.454   .     S
C77    O148    1.299   .     A
C77    O145    1.301   .     A
C78    C80     1.409   .     A
C78    N141    1.423   .     S
C79    C100    1.419   .     A
C79    C88     1.470   .     S
C79    C99     1.412   .     A
C80    C98     1.405   .     A
C81    N137    1.372   .     A
C81    N142    1.425   .     S
C81    C540    1.436   1_545 S
C82    N143    1.425   .     S
C82    N135    1.373   .     A
C82    C311    1.437   .     S
C83    N137    1.380   .     A
C83    N144    1.422   .     S
C83    C538    1.437   1_545 S
C84    N136    1.421   .     S
C84    N135    1.380   .     A
C84    C309    1.436   .     S
C85    H129    1.111   .     S
C85    H125    1.108   .     S
C85    H114    1.111   .     S
C85    N138    1.444   .     S
C86    N139    1.448   .     S
C86    H131    1.110   .     S
C86    H133    1.110   .     S
C86    H132    1.109   .     S
C87    H105    1.107   .     S
C87    N140    1.451   .     S
C87    H180    1.111   .     S
C87    H182    1.109   .     S
C88    O146    1.297   .     A
C88    O147    1.311   .     A
C89    H109    1.110   .     S
C89    H108    1.111   .     S
C89    H110    1.108   .     S
C89    N141    1.446   .     S
C90    N142    1.446   .     S
C90    H113    1.110   .     S
C90    H112    1.107   .     S
C90    H115    1.112   .     S
C91    N143    1.449   .     S
C91    H119    1.110   .     S
C91    H117    1.108   .     S
C91    H118    1.109   .     S
C92    H121    1.103   .     S
C92    N144    1.443   .     S
C92    H123    1.111   .     S
C92    H122    1.104   .     S
C93    H126    1.101   .     S
C93    H128    1.113   .     S
C93    H127    1.106   .     S
C93    N136    1.453   .     S
C94    O149    1.299   .     A
C94    C96     1.406   .     S
C94    O152    1.293   .     A
C95    O151    1.295   .     A
C95    C97     1.406   .     S
C95    O150    1.298   .     A
C96    C1465   1.188   1_554 S
C97    C780    1.188   .     S
C98    N138    1.425   .     S
C99    N139    1.429   .     S
C99    C154    1.405   .     S
C100   N140    1.439   .     S
C100   C174    1.399   .     S
Cu101  O149    1.929   .     S
Cu101  O147    1.959   .     S
Cu101  Cu102   2.709   .     S
Cu101  O145    1.975   .     S
Cu101  N135    2.036   .     S
Cu101  O151    1.924   .     S
Cu102  O148    1.959   .     S
Cu102  N137    2.036   .     S
Cu102  O152    1.924   .     S
Cu102  O150    1.929   .     S
Cu102  O146    1.975   .     S
H103   N138    1.029   .     S
H107   N141    1.029   .     S
H111   N142    1.031   .     S
H116   N143    1.030   .     S
H120   N144    1.031   .     S
H124   N136    1.029   .     S
H130   N139    1.032   .     S
H134   N140    1.031   .     S
C153   C156    1.454   .     S
C153   O224    1.299   .     A
C153   O221    1.301   .     A
C154   C156    1.409   .     A
C154   N217    1.423   .     S
C155   C176    1.419   .     A
C155   C164    1.470   .     S
C155   C175    1.412   .     A
C156   C174    1.405   .     A
C157   N213    1.372   .     A
C157   N218    1.425   .     S
C157   C616    1.436   1_545 S
C158   N219    1.425   .     S
C158   N211    1.373   .     A
C158   C387    1.437   .     S
C159   N213    1.380   .     A
C159   N220    1.422   .     S
C159   C614    1.437   1_545 S
C160   N212    1.421   .     S
C160   N211    1.380   .     A
C160   C385    1.436   .     S
C161   H205    1.111   .     S
C161   H201    1.108   .     S
C161   H190    1.111   .     S
C161   N214    1.444   .     S
C162   N215    1.448   .     S
C162   H207    1.110   .     S
C162   H209    1.110   .     S
C162   H208    1.109   .     S
C163   H181    1.107   .     S
C163   N216    1.451   .     S
C163   H28     1.111   1_655 S
C163   H30     1.109   1_655 S
C164   O222    1.297   .     A
C164   O223    1.311   .     A
C165   H185    1.110   .     S
C165   H184    1.111   .     S
C165   H186    1.108   .     S
C165   N217    1.446   .     S
C166   N218    1.446   .     S
C166   H189    1.110   .     S
C166   H188    1.107   .     S
C166   H191    1.112   .     S
C167   N219    1.449   .     S
C167   H195    1.110   .     S
C167   H193    1.108   .     S
C167   H194    1.109   .     S
C168   H197    1.103   .     S
C168   N220    1.443   .     S
C168   H199    1.111   .     S
C168   H198    1.104   .     S
C169   H202    1.101   .     S
C169   H204    1.113   .     S
C169   H203    1.106   .     S
C169   N212    1.453   .     S
C170   O225    1.299   .     A
C170   C172    1.406   .     S
C170   O228    1.293   .     A
C171   O227    1.295   .     A
C171   C173    1.406   .     S
C171   O226    1.298   .     A
C172   C1541   1.188   1_554 S
C173   C856    1.188   .     S
C174   N214    1.425   .     S
C175   N215    1.429   .     S
C175   C2      1.405   1_655 S
C176   N216    1.439   .     S
C176   C22     1.399   1_655 S
Cu177  O225    1.929   .     S
Cu177  O223    1.959   .     S
Cu177  Cu178   2.709   .     S
Cu177  O221    1.975   .     S
Cu177  N211    2.036   .     S
Cu177  O227    1.924   .     S
Cu178  O224    1.959   .     S
Cu178  N213    2.036   .     S
Cu178  O228    1.924   .     S
Cu178  O226    1.929   .     S
Cu178  O222    1.975   .     S
H179   N214    1.029   .     S
H183   N217    1.029   .     S
H187   N218    1.031   .     S
H192   N219    1.030   .     S
H196   N220    1.031   .     S
H200   N212    1.029   .     S
H206   N215    1.032   .     S
H210   N216    1.031   .     S
C229   C232    1.454   .     S
C229   O300    1.299   .     A
C229   O297    1.301   .     A
C230   C232    1.409   .     A
C230   N293    1.423   .     S
C230   C403    1.405   1_455 S
C231   C252    1.419   .     A
C231   C240    1.470   .     S
C231   C251    1.412   .     A
C232   C250    1.405   .     A
C233   N289    1.372   .     A
C233   N294    1.425   .     S
C234   N295    1.425   .     S
C234   N287    1.373   .     A
C234   C463    1.437   .     S
C235   N289    1.380   .     A
C235   N296    1.422   .     S
C236   N288    1.421   .     S
C236   N287    1.380   .     A
C236   C461    1.436   .     S
C237   H281    1.111   .     S
C237   H277    1.108   .     S
C237   H266    1.111   .     S
C237   N290    1.444   .     S
C238   N291    1.448   .     S
C238   H283    1.110   .     S
C238   H285    1.110   .     S
C238   H284    1.109   .     S
C239   H257    1.107   .     S
C239   N292    1.451   .     S
C239   H332    1.111   .     S
C239   H334    1.109   .     S
C240   O298    1.297   .     A
C240   O299    1.311   .     A
C241   H261    1.110   .     S
C241   H260    1.111   .     S
C241   H262    1.108   .     S
C241   N293    1.446   .     S
C242   N294    1.446   .     S
C242   H265    1.110   .     S
C242   H264    1.107   .     S
C242   H267    1.112   .     S
C243   N295    1.449   .     S
C243   H271    1.110   .     S
C243   H269    1.108   .     S
C243   H270    1.109   .     S
C244   H273    1.103   .     S
C244   N296    1.443   .     S
C244   H275    1.111   .     S
C244   H274    1.104   .     S
C245   H278    1.101   .     S
C245   H280    1.113   .     S
C245   H279    1.106   .     S
C245   N288    1.453   .     S
C246   O301    1.299   .     A
C246   C248    1.406   .     S
C246   O304    1.293   .     A
C247   O303    1.295   .     A
C247   C249    1.406   .     S
C247   O302    1.298   .     A
C248   C1617   1.188   1_554 S
C249   C932    1.188   .     S
C250   N290    1.425   .     S
C250   C404    1.399   1_455 S
C251   N291    1.429   .     S
C251   C306    1.405   .     S
C252   N292    1.439   .     S
C252   C326    1.399   .     S
Cu253  O301    1.929   .     S
Cu253  O299    1.959   .     S
Cu253  Cu254   2.709   .     S
Cu253  O297    1.975   .     S
Cu253  N287    2.036   .     S
Cu253  O303    1.924   .     S
Cu254  O300    1.959   .     S
Cu254  N289    2.036   .     S
Cu254  O304    1.924   .     S
Cu254  O302    1.929   .     S
Cu254  O298    1.975   .     S
H255   N290    1.029   .     S
H256   C391    1.111   1_455 S
H258   C391    1.109   1_455 S
H259   N293    1.029   .     S
H263   N294    1.031   .     S
H268   N295    1.030   .     S
H272   N296    1.031   .     S
H276   N288    1.029   .     S
H282   N291    1.032   .     S
H286   N292    1.031   .     S
C305   C308    1.454   .     S
C305   O376    1.299   .     A
C305   O373    1.301   .     A
C306   C308    1.409   .     A
C306   N369    1.423   .     S
C307   C328    1.419   .     A
C307   C316    1.470   .     S
C307   C327    1.412   .     A
C308   C326    1.405   .     A
C309   N365    1.372   .     A
C309   N370    1.425   .     S
C310   N371    1.425   .     S
C310   N363    1.373   .     A
C310   C539    1.437   .     S
C311   N365    1.380   .     A
C311   N372    1.422   .     S
C312   N364    1.421   .     S
C312   N363    1.380   .     A
C312   C537    1.436   .     S
C313   H357    1.111   .     S
C313   H353    1.108   .     S
C313   H342    1.111   .     S
C313   N366    1.444   .     S
C314   N367    1.448   .     S
C314   H359    1.110   .     S
C314   H361    1.110   .     S
C314   H360    1.109   .     S
C315   H333    1.107   .     S
C315   N368    1.451   .     S
C315   H408    1.111   .     S
C315   H410    1.109   .     S
C316   O374    1.297   .     A
C316   O375    1.311   .     A
C317   H337    1.110   .     S
C317   H336    1.111   .     S
C317   H338    1.108   .     S
C317   N369    1.446   .     S
C318   N370    1.446   .     S
C318   H341    1.110   .     S
C318   H340    1.107   .     S
C318   H343    1.112   .     S
C319   N371    1.449   .     S
C319   H347    1.110   .     S
C319   H345    1.108   .     S
C319   H346    1.109   .     S
C320   H349    1.103   .     S
C320   N372    1.443   .     S
C320   H351    1.111   .     S
C320   H350    1.104   .     S
C321   H354    1.101   .     S
C321   H356    1.113   .     S
C321   H355    1.106   .     S
C321   N364    1.453   .     S
C322   O377    1.299   .     A
C322   C324    1.406   .     S
C322   O380    1.293   .     A
C323   O379    1.295   .     A
C323   C325    1.406   .     S
C323   O378    1.298   .     A
C324   C1693   1.188   1_554 S
C325   C1008   1.188   .     S
C326   N366    1.425   .     S
C327   N367    1.429   .     S
C327   C382    1.405   .     S
C328   N368    1.439   .     S
C328   C402    1.399   .     S
Cu329  O377    1.929   .     S
Cu329  O375    1.959   .     S
Cu329  Cu330   2.709   .     S
Cu329  O373    1.975   .     S
Cu329  N363    2.036   .     S
Cu329  O379    1.924   .     S
Cu330  O376    1.959   .     S
Cu330  N365    2.036   .     S
Cu330  O380    1.924   .     S
Cu330  O378    1.929   .     S
Cu330  O374    1.975   .     S
H331   N366    1.029   .     S
H335   N369    1.029   .     S
H339   N370    1.031   .     S
H344   N371    1.030   .     S
H348   N372    1.031   .     S
H352   N364    1.029   .     S
H358   N367    1.032   .     S
H362   N368    1.031   .     S
C381   C384    1.454   .     S
C381   O452    1.299   .     A
C381   O449    1.301   .     A
C382   C384    1.409   .     A
C382   N445    1.423   .     S
C383   C404    1.419   .     A
C383   C392    1.470   .     S
C383   C403    1.412   .     A
C384   C402    1.405   .     A
C385   N441    1.372   .     A
C385   N446    1.425   .     S
C386   N447    1.425   .     S
C386   N439    1.373   .     A
C386   C615    1.437   .     S
C387   N441    1.380   .     A
C387   N448    1.422   .     S
C388   N440    1.421   .     S
C388   N439    1.380   .     A
C388   C613    1.436   .     S
C389   H433    1.111   .     S
C389   H429    1.108   .     S
C389   H418    1.111   .     S
C389   N442    1.444   .     S
C390   N443    1.448   .     S
C390   H435    1.110   .     S
C390   H437    1.110   .     S
C390   H436    1.109   .     S
C391   H409    1.107   .     S
C391   N444    1.451   .     S
C391   H256    1.111   1_655 S
C391   H258    1.109   1_655 S
C392   O450    1.297   .     A
C392   O451    1.311   .     A
C393   H413    1.110   .     S
C393   H412    1.111   .     S
C393   H414    1.108   .     S
C393   N445    1.446   .     S
C394   N446    1.446   .     S
C394   H417    1.110   .     S
C394   H416    1.107   .     S
C394   H419    1.112   .     S
C395   N447    1.449   .     S
C395   H423    1.110   .     S
C395   H421    1.108   .     S
C395   H422    1.109   .     S
C396   H425    1.103   .     S
C396   N448    1.443   .     S
C396   H427    1.111   .     S
C396   H426    1.104   .     S
C397   H430    1.101   .     S
C397   H432    1.113   .     S
C397   H431    1.106   .     S
C397   N440    1.453   .     S
C398   O453    1.299   .     A
C398   C400    1.406   .     S
C398   O456    1.293   .     A
C399   O455    1.295   .     A
C399   C401    1.406   .     S
C399   O454    1.298   .     A
C400   C1769   1.188   1_554 S
C401   C1084   1.188   .     S
C402   N442    1.425   .     S
C403   N443    1.429   .     S
C403   C230    1.405   1_655 S
C404   N444    1.439   .     S
C404   C250    1.399   1_655 S
Cu405  O453    1.929   .     S
Cu405  O451    1.959   .     S
Cu405  Cu406   2.709   .     S
Cu405  O449    1.975   .     S
Cu405  N439    2.036   .     S
Cu405  O455    1.924   .     S
Cu406  O452    1.959   .     S
Cu406  N441    2.036   .     S
Cu406  O456    1.924   .     S
Cu406  O454    1.929   .     S
Cu406  O450    1.975   .     S
H407   N442    1.029   .     S
H411   N445    1.029   .     S
H415   N446    1.031   .     S
H420   N447    1.030   .     S
H424   N448    1.031   .     S
H428   N440    1.029   .     S
H434   N443    1.032   .     S
H438   N444    1.031   .     S
C457   C460    1.454   .     S
C457   O528    1.299   .     A
C457   O525    1.301   .     A
C458   C460    1.409   .     A
C458   N521    1.423   .     S
C458   C631    1.405   1_455 S
C459   C480    1.419   .     A
C459   C468    1.470   .     S
C459   C479    1.412   .     A
C460   C478    1.405   .     A
C461   N517    1.372   .     A
C461   N522    1.425   .     S
C462   N523    1.425   .     S
C462   N515    1.373   .     A
C462   C7      1.437   1_565 S
C463   N517    1.380   .     A
C463   N524    1.422   .     S
C464   N516    1.421   .     S
C464   N515    1.380   .     A
C464   C5      1.436   1_565 S
C465   H509    1.111   .     S
C465   H505    1.108   .     S
C465   H494    1.111   .     S
C465   N518    1.444   .     S
C466   N519    1.448   .     S
C466   H511    1.110   .     S
C466   H513    1.110   .     S
C466   H512    1.109   .     S
C467   H485    1.107   .     S
C467   N520    1.451   .     S
C467   H560    1.111   .     S
C467   H562    1.109   .     S
C468   O526    1.297   .     A
C468   O527    1.311   .     A
C469   H489    1.110   .     S
C469   H488    1.111   .     S
C469   H490    1.108   .     S
C469   N521    1.446   .     S
C470   N522    1.446   .     S
C470   H493    1.110   .     S
C470   H492    1.107   .     S
C470   H495    1.112   .     S
C471   N523    1.449   .     S
C471   H499    1.110   .     S
C471   H497    1.108   .     S
C471   H498    1.109   .     S
C472   H501    1.103   .     S
C472   N524    1.443   .     S
C472   H503    1.111   .     S
C472   H502    1.104   .     S
C473   H506    1.101   .     S
C473   H508    1.113   .     S
C473   H507    1.106   .     S
C473   N516    1.453   .     S
C474   O529    1.299   .     A
C474   C476    1.406   .     S
C474   O532    1.293   .     A
C475   O531    1.295   .     A
C475   C477    1.406   .     S
C475   O530    1.298   .     A
C476   C1845   1.188   1_554 S
C477   C1160   1.188   .     S
C478   N518    1.425   .     S
C478   C632    1.399   1_455 S
C479   N519    1.429   .     S
C479   C534    1.405   .     S
C480   N520    1.439   .     S
C480   C554    1.399   .     S
Cu481  O529    1.929   .     S
Cu481  O527    1.959   .     S
Cu481  Cu482   2.709   .     S
Cu481  O525    1.975   .     S
Cu481  N515    2.036   .     S
Cu481  O531    1.924   .     S
Cu482  O528    1.959   .     S
Cu482  N517    2.036   .     S
Cu482  O532    1.924   .     S
Cu482  O530    1.929   .     S
Cu482  O526    1.975   .     S
H483   N518    1.029   .     S
H484   C619    1.111   1_455 S
H486   C619    1.109   1_455 S
H487   N521    1.029   .     S
H491   N522    1.031   .     S
H496   N523    1.030   .     S
H500   N524    1.031   .     S
H504   N516    1.029   .     S
H510   N519    1.032   .     S
H514   N520    1.031   .     S
C533   C536    1.454   .     S
C533   O604    1.299   .     A
C533   O601    1.301   .     A
C534   C536    1.409   .     A
C534   N597    1.423   .     S
C535   C556    1.419   .     A
C535   C544    1.470   .     S
C535   C555    1.412   .     A
C536   C554    1.405   .     A
C537   N593    1.372   .     A
C537   N598    1.425   .     S
C538   N599    1.425   .     S
C538   N591    1.373   .     A
C538   C83     1.437   1_565 S
C539   N593    1.380   .     A
C539   N600    1.422   .     S
C540   N592    1.421   .     S
C540   N591    1.380   .     A
C540   C81     1.436   1_565 S
C541   H585    1.111   .     S
C541   H581    1.108   .     S
C541   H570    1.111   .     S
C541   N594    1.444   .     S
C542   N595    1.448   .     S
C542   H587    1.110   .     S
C542   H589    1.110   .     S
C542   H588    1.109   .     S
C543   H561    1.107   .     S
C543   N596    1.451   .     S
C543   H636    1.111   .     S
C543   H638    1.109   .     S
C544   O602    1.297   .     A
C544   O603    1.311   .     A
C545   H565    1.110   .     S
C545   H564    1.111   .     S
C545   H566    1.108   .     S
C545   N597    1.446   .     S
C546   N598    1.446   .     S
C546   H569    1.110   .     S
C546   H568    1.107   .     S
C546   H571    1.112   .     S
C547   N599    1.449   .     S
C547   H575    1.110   .     S
C547   H573    1.108   .     S
C547   H574    1.109   .     S
C548   H577    1.103   .     S
C548   N600    1.443   .     S
C548   H579    1.111   .     S
C548   H578    1.104   .     S
C549   H582    1.101   .     S
C549   H584    1.113   .     S
C549   H583    1.106   .     S
C549   N592    1.453   .     S
C550   O605    1.299   .     A
C550   C552    1.406   .     S
C550   O608    1.293   .     A
C551   O607    1.295   .     A
C551   C553    1.406   .     S
C551   O606    1.298   .     A
C552   C1921   1.188   1_554 S
C553   C1236   1.188   .     S
C554   N594    1.425   .     S
C555   N595    1.429   .     S
C555   C610    1.405   .     S
C556   N596    1.439   .     S
C556   C630    1.399   .     S
Cu557  O605    1.929   .     S
Cu557  O603    1.959   .     S
Cu557  Cu558   2.709   .     S
Cu557  O601    1.975   .     S
Cu557  N591    2.036   .     S
Cu557  O607    1.924   .     S
Cu558  O604    1.959   .     S
Cu558  N593    2.036   .     S
Cu558  O608    1.924   .     S
Cu558  O606    1.929   .     S
Cu558  O602    1.975   .     S
H559   N594    1.029   .     S
H563   N597    1.029   .     S
H567   N598    1.031   .     S
H572   N599    1.030   .     S
H576   N600    1.031   .     S
H580   N592    1.029   .     S
H586   N595    1.032   .     S
H590   N596    1.031   .     S
C609   C612    1.454   .     S
C609   O680    1.299   .     A
C609   O677    1.301   .     A
C610   C612    1.409   .     A
C610   N673    1.423   .     S
C611   C632    1.419   .     A
C611   C620    1.470   .     S
C611   C631    1.412   .     A
C612   C630    1.405   .     A
C613   N669    1.372   .     A
C613   N674    1.425   .     S
C614   N675    1.425   .     S
C614   N667    1.373   .     A
C614   C159    1.437   1_565 S
C615   N669    1.380   .     A
C615   N676    1.422   .     S
C616   N668    1.421   .     S
C616   N667    1.380   .     A
C616   C157    1.436   1_565 S
C617   H661    1.111   .     S
C617   H657    1.108   .     S
C617   H646    1.111   .     S
C617   N670    1.444   .     S
C618   N671    1.448   .     S
C618   H663    1.110   .     S
C618   H665    1.110   .     S
C618   H664    1.109   .     S
C619   H637    1.107   .     S
C619   N672    1.451   .     S
C619   H484    1.111   1_655 S
C619   H486    1.109   1_655 S
C620   O678    1.297   .     A
C620   O679    1.311   .     A
C621   H641    1.110   .     S
C621   H640    1.111   .     S
C621   H642    1.108   .     S
C621   N673    1.446   .     S
C622   N674    1.446   .     S
C622   H645    1.110   .     S
C622   H644    1.107   .     S
C622   H647    1.112   .     S
C623   N675    1.449   .     S
C623   H651    1.110   .     S
C623   H649    1.108   .     S
C623   H650    1.109   .     S
C624   H653    1.103   .     S
C624   N676    1.443   .     S
C624   H655    1.111   .     S
C624   H654    1.104   .     S
C625   H658    1.101   .     S
C625   H660    1.113   .     S
C625   H659    1.106   .     S
C625   N668    1.453   .     S
C626   O681    1.299   .     A
C626   C628    1.406   .     S
C626   O684    1.293   .     A
C627   O683    1.295   .     A
C627   C629    1.406   .     S
C627   O682    1.298   .     A
C628   C1997   1.188   1_554 S
C629   C1312   1.188   .     S
C630   N670    1.425   .     S
C631   N671    1.429   .     S
C631   C458    1.405   1_655 S
C632   N672    1.439   .     S
C632   C478    1.399   1_655 S
Cu633  O681    1.929   .     S
Cu633  O679    1.959   .     S
Cu633  Cu634   2.709   .     S
Cu633  O677    1.975   .     S
Cu633  N667    2.036   .     S
Cu633  O683    1.924   .     S
Cu634  O680    1.959   .     S
Cu634  N669    2.036   .     S
Cu634  O684    1.924   .     S
Cu634  O682    1.929   .     S
Cu634  O678    1.975   .     S
H635   N670    1.029   .     S
H639   N673    1.029   .     S
H643   N674    1.031   .     S
H648   N675    1.030   .     S
H652   N676    1.031   .     S
H656   N668    1.029   .     S
H662   N671    1.032   .     S
H666   N672    1.031   .     S
C685   C688    1.454   .     S
C685   O756    1.299   .     A
C685   O753    1.301   .     A
C686   C688    1.409   .     A
C686   N749    1.423   .     S
C686   C859    1.405   1_455 S
C687   C708    1.419   .     A
C687   C696    1.470   .     S
C687   C707    1.412   .     A
C688   C706    1.405   .     A
C689   N745    1.372   .     A
C689   N750    1.425   .     S
C689   C1148   1.436   1_545 S
C690   N751    1.425   .     S
C690   N743    1.373   .     A
C690   C919    1.437   .     S
C691   N745    1.380   .     A
C691   N752    1.422   .     S
C691   C1146   1.437   1_545 S
C692   N744    1.421   .     S
C692   N743    1.380   .     A
C692   C917    1.436   .     S
C693   H737    1.111   .     S
C693   H733    1.108   .     S
C693   H722    1.111   .     S
C693   N746    1.444   .     S
C694   N747    1.448   .     S
C694   H739    1.110   .     S
C694   H741    1.110   .     S
C694   H740    1.109   .     S
C695   H713    1.107   .     S
C695   N748    1.451   .     S
C695   H788    1.111   .     S
C695   H790    1.109   .     S
C696   O754    1.297   .     A
C696   O755    1.311   .     A
C697   H717    1.110   .     S
C697   H716    1.111   .     S
C697   H718    1.108   .     S
C697   N749    1.446   .     S
C698   N750    1.446   .     S
C698   H721    1.110   .     S
C698   H720    1.107   .     S
C698   H723    1.112   .     S
C699   N751    1.449   .     S
C699   H727    1.110   .     S
C699   H725    1.108   .     S
C699   H726    1.109   .     S
C700   H729    1.103   .     S
C700   N752    1.443   .     S
C700   H731    1.111   .     S
C700   H730    1.104   .     S
C701   H734    1.101   .     S
C701   H736    1.113   .     S
C701   H735    1.106   .     S
C701   N744    1.453   .     S
C702   O757    1.299   .     A
C702   C704    1.406   .     S
C702   O760    1.293   .     A
C703   O759    1.295   .     A
C703   C705    1.406   .     S
C703   O758    1.298   .     A
C705   C1388   1.188   .     S
C706   N746    1.425   .     S
C706   C860    1.399   1_455 S
C707   N747    1.429   .     S
C707   C762    1.405   .     S
C708   N748    1.439   .     S
C708   C782    1.399   .     S
Cu709  O757    1.929   .     S
Cu709  O755    1.959   .     S
Cu709  Cu710   2.709   .     S
Cu709  O753    1.975   .     S
Cu709  N743    2.036   .     S
Cu709  O759    1.924   .     S
Cu710  O756    1.959   .     S
Cu710  N745    2.036   .     S
Cu710  O760    1.924   .     S
Cu710  O758    1.929   .     S
Cu710  O754    1.975   .     S
H711   N746    1.029   .     S
H712   C847    1.111   1_455 S
H714   C847    1.109   1_455 S
H715   N749    1.029   .     S
H719   N750    1.031   .     S
H724   N751    1.030   .     S
H728   N752    1.031   .     S
H732   N744    1.029   .     S
H738   N747    1.032   .     S
H742   N748    1.031   .     S
C761   C764    1.454   .     S
C761   O832    1.299   .     A
C761   O829    1.301   .     A
C762   C764    1.409   .     A
C762   N825    1.423   .     S
C763   C784    1.419   .     A
C763   C772    1.470   .     S
C763   C783    1.412   .     A
C764   C782    1.405   .     A
C765   N821    1.372   .     A
C765   N826    1.425   .     S
C765   C1224   1.436   1_545 S
C766   N827    1.425   .     S
C766   N819    1.373   .     A
C766   C995    1.437   .     S
C767   N821    1.380   .     A
C767   N828    1.422   .     S
C767   C1222   1.437   1_545 S
C768   N820    1.421   .     S
C768   N819    1.380   .     A
C768   C993    1.436   .     S
C769   H813    1.111   .     S
C769   H809    1.108   .     S
C769   H798    1.111   .     S
C769   N822    1.444   .     S
C770   N823    1.448   .     S
C770   H815    1.110   .     S
C770   H817    1.110   .     S
C770   H816    1.109   .     S
C771   H789    1.107   .     S
C771   N824    1.451   .     S
C771   H864    1.111   .     S
C771   H866    1.109   .     S
C772   O830    1.297   .     A
C772   O831    1.311   .     A
C773   H793    1.110   .     S
C773   H792    1.111   .     S
C773   H794    1.108   .     S
C773   N825    1.446   .     S
C774   N826    1.446   .     S
C774   H797    1.110   .     S
C774   H796    1.107   .     S
C774   H799    1.112   .     S
C775   N827    1.449   .     S
C775   H803    1.110   .     S
C775   H801    1.108   .     S
C775   H802    1.109   .     S
C776   H805    1.103   .     S
C776   N828    1.443   .     S
C776   H807    1.111   .     S
C776   H806    1.104   .     S
C777   H810    1.101   .     S
C777   H812    1.113   .     S
C777   H811    1.106   .     S
C777   N820    1.453   .     S
C778   O833    1.299   .     A
C778   C780    1.406   .     S
C778   O836    1.293   .     A
C779   O835    1.295   .     A
C779   C781    1.406   .     S
C779   O834    1.298   .     A
C781   C1464   1.188   .     S
C782   N822    1.425   .     S
C783   N823    1.429   .     S
C783   C838    1.405   .     S
C784   N824    1.439   .     S
C784   C858    1.399   .     S
Cu785  O833    1.929   .     S
Cu785  O831    1.959   .     S
Cu785  Cu786   2.709   .     S
Cu785  O829    1.975   .     S
Cu785  N819    2.036   .     S
Cu785  O835    1.924   .     S
Cu786  O832    1.959   .     S
Cu786  N821    2.036   .     S
Cu786  O836    1.924   .     S
Cu786  O834    1.929   .     S
Cu786  O830    1.975   .     S
H787   N822    1.029   .     S
H791   N825    1.029   .     S
H795   N826    1.031   .     S
H800   N827    1.030   .     S
H804   N828    1.031   .     S
H808   N820    1.029   .     S
H814   N823    1.032   .     S
H818   N824    1.031   .     S
C837   C840    1.454   .     S
C837   O908    1.299   .     A
C837   O905    1.301   .     A
C838   C840    1.409   .     A
C838   N901    1.423   .     S
C839   C860    1.419   .     A
C839   C848    1.470   .     S
C839   C859    1.412   .     A
C840   C858    1.405   .     A
C841   N897    1.372   .     A
C841   N902    1.425   .     S
C841   C1300   1.436   1_545 S
C842   N903    1.425   .     S
C842   N895    1.373   .     A
C842   C1071   1.437   .     S
C843   N897    1.380   .     A
C843   N904    1.422   .     S
C843   C1298   1.437   1_545 S
C844   N896    1.421   .     S
C844   N895    1.380   .     A
C844   C1069   1.436   .     S
C845   H889    1.111   .     S
C845   H885    1.108   .     S
C845   H874    1.111   .     S
C845   N898    1.444   .     S
C846   N899    1.448   .     S
C846   H891    1.110   .     S
C846   H893    1.110   .     S
C846   H892    1.109   .     S
C847   H865    1.107   .     S
C847   N900    1.451   .     S
C847   H712    1.111   1_655 S
C847   H714    1.109   1_655 S
C848   O906    1.297   .     A
C848   O907    1.311   .     A
C849   H869    1.110   .     S
C849   H868    1.111   .     S
C849   H870    1.108   .     S
C849   N901    1.446   .     S
C850   N902    1.446   .     S
C850   H873    1.110   .     S
C850   H872    1.107   .     S
C850   H875    1.112   .     S
C851   N903    1.449   .     S
C851   H879    1.110   .     S
C851   H877    1.108   .     S
C851   H878    1.109   .     S
C852   H881    1.103   .     S
C852   N904    1.443   .     S
C852   H883    1.111   .     S
C852   H882    1.104   .     S
C853   H886    1.101   .     S
C853   H888    1.113   .     S
C853   H887    1.106   .     S
C853   N896    1.453   .     S
C854   O909    1.299   .     A
C854   C856    1.406   .     S
C854   O912    1.293   .     A
C855   O911    1.295   .     A
C855   C857    1.406   .     S
C855   O910    1.298   .     A
C857   C1540   1.188   .     S
C858   N898    1.425   .     S
C859   N899    1.429   .     S
C859   C686    1.405   1_655 S
C860   N900    1.439   .     S
C860   C706    1.399   1_655 S
Cu861  O909    1.929   .     S
Cu861  O907    1.959   .     S
Cu861  Cu862   2.709   .     S
Cu861  O905    1.975   .     S
Cu861  N895    2.036   .     S
Cu861  O911    1.924   .     S
Cu862  O908    1.959   .     S
Cu862  N897    2.036   .     S
Cu862  O912    1.924   .     S
Cu862  O910    1.929   .     S
Cu862  O906    1.975   .     S
H863   N898    1.029   .     S
H867   N901    1.029   .     S
H871   N902    1.031   .     S
H876   N903    1.030   .     S
H880   N904    1.031   .     S
H884   N896    1.029   .     S
H890   N899    1.032   .     S
H894   N900    1.031   .     S
C913   C916    1.454   .     S
C913   O984    1.299   .     A
C913   O981    1.301   .     A
C914   C916    1.409   .     A
C914   N977    1.423   .     S
C914   C1087   1.405   1_455 S
C915   C936    1.419   .     A
C915   C924    1.470   .     S
C915   C935    1.412   .     A
C916   C934    1.405   .     A
C917   N973    1.372   .     A
C917   N978    1.425   .     S
C918   N979    1.425   .     S
C918   N971    1.373   .     A
C918   C1147   1.437   .     S
C919   N973    1.380   .     A
C919   N980    1.422   .     S
C920   N972    1.421   .     S
C920   N971    1.380   .     A
C920   C1145   1.436   .     S
C921   H965    1.111   .     S
C921   H961    1.108   .     S
C921   H950    1.111   .     S
C921   N974    1.444   .     S
C922   N975    1.448   .     S
C922   H967    1.110   .     S
C922   H969    1.110   .     S
C922   H968    1.109   .     S
C923   H941    1.107   .     S
C923   N976    1.451   .     S
C923   H1016   1.111   .     S
C923   H1018   1.109   .     S
C924   O982    1.297   .     A
C924   O983    1.311   .     A
C925   H945    1.110   .     S
C925   H944    1.111   .     S
C925   H946    1.108   .     S
C925   N977    1.446   .     S
C926   N978    1.446   .     S
C926   H949    1.110   .     S
C926   H948    1.107   .     S
C926   H951    1.112   .     S
C927   N979    1.449   .     S
C927   H955    1.110   .     S
C927   H953    1.108   .     S
C927   H954    1.109   .     S
C928   H957    1.103   .     S
C928   N980    1.443   .     S
C928   H959    1.111   .     S
C928   H958    1.104   .     S
C929   H962    1.101   .     S
C929   H964    1.113   .     S
C929   H963    1.106   .     S
C929   N972    1.453   .     S
C930   O985    1.299   .     A
C930   C932    1.406   .     S
C930   O988    1.293   .     A
C931   O987    1.295   .     A
C931   C933    1.406   .     S
C931   O986    1.298   .     A
C933   C1616   1.188   .     S
C934   N974    1.425   .     S
C934   C1088   1.399   1_455 S
C935   N975    1.429   .     S
C935   C990    1.405   .     S
C936   N976    1.439   .     S
C936   C1010   1.399   .     S
Cu937  O985    1.929   .     S
Cu937  O983    1.959   .     S
Cu937  Cu938   2.709   .     S
Cu937  O981    1.975   .     S
Cu937  N971    2.036   .     S
Cu937  O987    1.924   .     S
Cu938  O984    1.959   .     S
Cu938  N973    2.036   .     S
Cu938  O988    1.924   .     S
Cu938  O986    1.929   .     S
Cu938  O982    1.975   .     S
H939   N974    1.029   .     S
H940   C1075   1.111   1_455 S
H942   C1075   1.109   1_455 S
H943   N977    1.029   .     S
H947   N978    1.031   .     S
H952   N979    1.030   .     S
H956   N980    1.031   .     S
H960   N972    1.029   .     S
H966   N975    1.032   .     S
H970   N976    1.031   .     S
C989   C992    1.454   .     S
C989   O1060   1.299   .     A
C989   O1057   1.301   .     A
C990   C992    1.409   .     A
C990   N1053   1.423   .     S
C991   C1012   1.419   .     A
C991   C1000   1.470   .     S
C991   C1011   1.412   .     A
C992   C1010   1.405   .     A
C993   N1049   1.372   .     A
C993   N1054   1.425   .     S
C994   N1055   1.425   .     S
C994   N1047   1.373   .     A
C994   C1223   1.437   .     S
C995   N1049   1.380   .     A
C995   N1056   1.422   .     S
C996   N1048   1.421   .     S
C996   N1047   1.380   .     A
C996   C1221   1.436   .     S
C997   H1041   1.111   .     S
C997   H1037   1.108   .     S
C997   H1026   1.111   .     S
C997   N1050   1.444   .     S
C998   N1051   1.448   .     S
C998   H1043   1.110   .     S
C998   H1045   1.110   .     S
C998   H1044   1.109   .     S
C999   H1017   1.107   .     S
C999   N1052   1.451   .     S
C999   H1092   1.111   .     S
C999   H1094   1.109   .     S
C1000  O1058   1.297   .     A
C1000  O1059   1.311   .     A
C1001  H1021   1.110   .     S
C1001  H1020   1.111   .     S
C1001  H1022   1.108   .     S
C1001  N1053   1.446   .     S
C1002  N1054   1.446   .     S
C1002  H1025   1.110   .     S
C1002  H1024   1.107   .     S
C1002  H1027   1.112   .     S
C1003  N1055   1.449   .     S
C1003  H1031   1.110   .     S
C1003  H1029   1.108   .     S
C1003  H1030   1.109   .     S
C1004  H1033   1.103   .     S
C1004  N1056   1.443   .     S
C1004  H1035   1.111   .     S
C1004  H1034   1.104   .     S
C1005  H1038   1.101   .     S
C1005  H1040   1.113   .     S
C1005  H1039   1.106   .     S
C1005  N1048   1.453   .     S
C1006  O1061   1.299   .     A
C1006  C1008   1.406   .     S
C1006  O1064   1.293   .     A
C1007  O1063   1.295   .     A
C1007  C1009   1.406   .     S
C1007  O1062   1.298   .     A
C1009  C1692   1.188   .     S
C1010  N1050   1.425   .     S
C1011  N1051   1.429   .     S
C1011  C1066   1.405   .     S
C1012  N1052   1.439   .     S
C1012  C1086   1.399   .     S
Cu1013 O1061   1.929   .     S
Cu1013 O1059   1.959   .     S
Cu1013 Cu1014  2.709   .     S
Cu1013 O1057   1.975   .     S
Cu1013 N1047   2.036   .     S
Cu1013 O1063   1.924   .     S
Cu1014 O1060   1.959   .     S
Cu1014 N1049   2.036   .     S
Cu1014 O1064   1.924   .     S
Cu1014 O1062   1.929   .     S
Cu1014 O1058   1.975   .     S
H1015  N1050   1.029   .     S
H1019  N1053   1.029   .     S
H1023  N1054   1.031   .     S
H1028  N1055   1.030   .     S
H1032  N1056   1.031   .     S
H1036  N1048   1.029   .     S
H1042  N1051   1.032   .     S
H1046  N1052   1.031   .     S
C1065  C1068   1.454   .     S
C1065  O1136   1.299   .     A
C1065  O1133   1.301   .     A
C1066  C1068   1.409   .     A
C1066  N1129   1.423   .     S
C1067  C1088   1.419   .     A
C1067  C1076   1.470   .     S
C1067  C1087   1.412   .     A
C1068  C1086   1.405   .     A
C1069  N1125   1.372   .     A
C1069  N1130   1.425   .     S
C1070  N1131   1.425   .     S
C1070  N1123   1.373   .     A
C1070  C1299   1.437   .     S
C1071  N1125   1.380   .     A
C1071  N1132   1.422   .     S
C1072  N1124   1.421   .     S
C1072  N1123   1.380   .     A
C1072  C1297   1.436   .     S
C1073  H1117   1.111   .     S
C1073  H1113   1.108   .     S
C1073  H1102   1.111   .     S
C1073  N1126   1.444   .     S
C1074  N1127   1.448   .     S
C1074  H1119   1.110   .     S
C1074  H1121   1.110   .     S
C1074  H1120   1.109   .     S
C1075  H1093   1.107   .     S
C1075  N1128   1.451   .     S
C1075  H940    1.111   1_655 S
C1075  H942    1.109   1_655 S
C1076  O1134   1.297   .     A
C1076  O1135   1.311   .     A
C1077  H1097   1.110   .     S
C1077  H1096   1.111   .     S
C1077  H1098   1.108   .     S
C1077  N1129   1.446   .     S
C1078  N1130   1.446   .     S
C1078  H1101   1.110   .     S
C1078  H1100   1.107   .     S
C1078  H1103   1.112   .     S
C1079  N1131   1.449   .     S
C1079  H1107   1.110   .     S
C1079  H1105   1.108   .     S
C1079  H1106   1.109   .     S
C1080  H1109   1.103   .     S
C1080  N1132   1.443   .     S
C1080  H1111   1.111   .     S
C1080  H1110   1.104   .     S
C1081  H1114   1.101   .     S
C1081  H1116   1.113   .     S
C1081  H1115   1.106   .     S
C1081  N1124   1.453   .     S
C1082  O1137   1.299   .     A
C1082  C1084   1.406   .     S
C1082  O1140   1.293   .     A
C1083  O1139   1.295   .     A
C1083  C1085   1.406   .     S
C1083  O1138   1.298   .     A
C1085  C1768   1.188   .     S
C1086  N1126   1.425   .     S
C1087  N1127   1.429   .     S
C1087  C914    1.405   1_655 S
C1088  N1128   1.439   .     S
C1088  C934    1.399   1_655 S
Cu1089 O1137   1.929   .     S
Cu1089 O1135   1.959   .     S
Cu1089 Cu1090  2.709   .     S
Cu1089 O1133   1.975   .     S
Cu1089 N1123   2.036   .     S
Cu1089 O1139   1.924   .     S
Cu1090 O1136   1.959   .     S
Cu1090 N1125   2.036   .     S
Cu1090 O1140   1.924   .     S
Cu1090 O1138   1.929   .     S
Cu1090 O1134   1.975   .     S
H1091  N1126   1.029   .     S
H1095  N1129   1.029   .     S
H1099  N1130   1.031   .     S
H1104  N1131   1.030   .     S
H1108  N1132   1.031   .     S
H1112  N1124   1.029   .     S
H1118  N1127   1.032   .     S
H1122  N1128   1.031   .     S
C1141  C1144   1.454   .     S
C1141  O1212   1.299   .     A
C1141  O1209   1.301   .     A
C1142  C1144   1.409   .     A
C1142  N1205   1.423   .     S
C1142  C1315   1.405   1_455 S
C1143  C1164   1.419   .     A
C1143  C1152   1.470   .     S
C1143  C1163   1.412   .     A
C1144  C1162   1.405   .     A
C1145  N1201   1.372   .     A
C1145  N1206   1.425   .     S
C1146  N1207   1.425   .     S
C1146  N1199   1.373   .     A
C1146  C691    1.437   1_565 S
C1147  N1201   1.380   .     A
C1147  N1208   1.422   .     S
C1148  N1200   1.421   .     S
C1148  N1199   1.380   .     A
C1148  C689    1.436   1_565 S
C1149  H1193   1.111   .     S
C1149  H1189   1.108   .     S
C1149  H1178   1.111   .     S
C1149  N1202   1.444   .     S
C1150  N1203   1.448   .     S
C1150  H1195   1.110   .     S
C1150  H1197   1.110   .     S
C1150  H1196   1.109   .     S
C1151  H1169   1.107   .     S
C1151  N1204   1.451   .     S
C1151  H1244   1.111   .     S
C1151  H1246   1.109   .     S
C1152  O1210   1.297   .     A
C1152  O1211   1.311   .     A
C1153  H1173   1.110   .     S
C1153  H1172   1.111   .     S
C1153  H1174   1.108   .     S
C1153  N1205   1.446   .     S
C1154  N1206   1.446   .     S
C1154  H1177   1.110   .     S
C1154  H1176   1.107   .     S
C1154  H1179   1.112   .     S
C1155  N1207   1.449   .     S
C1155  H1183   1.110   .     S
C1155  H1181   1.108   .     S
C1155  H1182   1.109   .     S
C1156  H1185   1.103   .     S
C1156  N1208   1.443   .     S
C1156  H1187   1.111   .     S
C1156  H1186   1.104   .     S
C1157  H1190   1.101   .     S
C1157  H1192   1.113   .     S
C1157  H1191   1.106   .     S
C1157  N1200   1.453   .     S
C1158  O1213   1.299   .     A
C1158  C1160   1.406   .     S
C1158  O1216   1.293   .     A
C1159  O1215   1.295   .     A
C1159  C1161   1.406   .     S
C1159  O1214   1.298   .     A
C1161  C1844   1.188   .     S
C1162  N1202   1.425   .     S
C1162  C1316   1.399   1_455 S
C1163  N1203   1.429   .     S
C1163  C1218   1.405   .     S
C1164  N1204   1.439   .     S
C1164  C1238   1.399   .     S
Cu1165 O1213   1.929   .     S
Cu1165 O1211   1.959   .     S
Cu1165 Cu1166  2.709   .     S
Cu1165 O1209   1.975   .     S
Cu1165 N1199   2.036   .     S
Cu1165 O1215   1.924   .     S
Cu1166 O1212   1.959   .     S
Cu1166 N1201   2.036   .     S
Cu1166 O1216   1.924   .     S
Cu1166 O1214   1.929   .     S
Cu1166 O1210   1.975   .     S
H1167  N1202   1.029   .     S
H1168  C1303   1.111   1_455 S
H1170  C1303   1.109   1_455 S
H1171  N1205   1.029   .     S
H1175  N1206   1.031   .     S
H1180  N1207   1.030   .     S
H1184  N1208   1.031   .     S
H1188  N1200   1.029   .     S
H1194  N1203   1.032   .     S
H1198  N1204   1.031   .     S
C1217  C1220   1.454   .     S
C1217  O1288   1.299   .     A
C1217  O1285   1.301   .     A
C1218  C1220   1.409   .     A
C1218  N1281   1.423   .     S
C1219  C1240   1.419   .     A
C1219  C1228   1.470   .     S
C1219  C1239   1.412   .     A
C1220  C1238   1.405   .     A
C1221  N1277   1.372   .     A
C1221  N1282   1.425   .     S
C1222  N1283   1.425   .     S
C1222  N1275   1.373   .     A
C1222  C767    1.437   1_565 S
C1223  N1277   1.380   .     A
C1223  N1284   1.422   .     S
C1224  N1276   1.421   .     S
C1224  N1275   1.380   .     A
C1224  C765    1.436   1_565 S
C1225  H1269   1.111   .     S
C1225  H1265   1.108   .     S
C1225  H1254   1.111   .     S
C1225  N1278   1.444   .     S
C1226  N1279   1.448   .     S
C1226  H1271   1.110   .     S
C1226  H1273   1.110   .     S
C1226  H1272   1.109   .     S
C1227  H1245   1.107   .     S
C1227  N1280   1.451   .     S
C1227  H1320   1.111   .     S
C1227  H1322   1.109   .     S
C1228  O1286   1.297   .     A
C1228  O1287   1.311   .     A
C1229  H1249   1.110   .     S
C1229  H1248   1.111   .     S
C1229  H1250   1.108   .     S
C1229  N1281   1.446   .     S
C1230  N1282   1.446   .     S
C1230  H1253   1.110   .     S
C1230  H1252   1.107   .     S
C1230  H1255   1.112   .     S
C1231  N1283   1.449   .     S
C1231  H1259   1.110   .     S
C1231  H1257   1.108   .     S
C1231  H1258   1.109   .     S
C1232  H1261   1.103   .     S
C1232  N1284   1.443   .     S
C1232  H1263   1.111   .     S
C1232  H1262   1.104   .     S
C1233  H1266   1.101   .     S
C1233  H1268   1.113   .     S
C1233  H1267   1.106   .     S
C1233  N1276   1.453   .     S
C1234  O1289   1.299   .     A
C1234  C1236   1.406   .     S
C1234  O1292   1.293   .     A
C1235  O1291   1.295   .     A
C1235  C1237   1.406   .     S
C1235  O1290   1.298   .     A
C1237  C1920   1.188   .     S
C1238  N1278   1.425   .     S
C1239  N1279   1.429   .     S
C1239  C1294   1.405   .     S
C1240  N1280   1.439   .     S
C1240  C1314   1.399   .     S
Cu1241 O1289   1.929   .     S
Cu1241 O1287   1.959   .     S
Cu1241 Cu1242  2.709   .     S
Cu1241 O1285   1.975   .     S
Cu1241 N1275   2.036   .     S
Cu1241 O1291   1.924   .     S
Cu1242 O1288   1.959   .     S
Cu1242 N1277   2.036   .     S
Cu1242 O1292   1.924   .     S
Cu1242 O1290   1.929   .     S
Cu1242 O1286   1.975   .     S
H1243  N1278   1.029   .     S
H1247  N1281   1.029   .     S
H1251  N1282   1.031   .     S
H1256  N1283   1.030   .     S
H1260  N1284   1.031   .     S
H1264  N1276   1.029   .     S
H1270  N1279   1.032   .     S
H1274  N1280   1.031   .     S
C1293  C1296   1.454   .     S
C1293  O1364   1.299   .     A
C1293  O1361   1.301   .     A
C1294  C1296   1.409   .     A
C1294  N1357   1.423   .     S
C1295  C1316   1.419   .     A
C1295  C1304   1.470   .     S
C1295  C1315   1.412   .     A
C1296  C1314   1.405   .     A
C1297  N1353   1.372   .     A
C1297  N1358   1.425   .     S
C1298  N1359   1.425   .     S
C1298  N1351   1.373   .     A
C1298  C843    1.437   1_565 S
C1299  N1353   1.380   .     A
C1299  N1360   1.422   .     S
C1300  N1352   1.421   .     S
C1300  N1351   1.380   .     A
C1300  C841    1.436   1_565 S
C1301  H1345   1.111   .     S
C1301  H1341   1.108   .     S
C1301  H1330   1.111   .     S
C1301  N1354   1.444   .     S
C1302  N1355   1.448   .     S
C1302  H1347   1.110   .     S
C1302  H1349   1.110   .     S
C1302  H1348   1.109   .     S
C1303  H1321   1.107   .     S
C1303  N1356   1.451   .     S
C1303  H1168   1.111   1_655 S
C1303  H1170   1.109   1_655 S
C1304  O1362   1.297   .     A
C1304  O1363   1.311   .     A
C1305  H1325   1.110   .     S
C1305  H1324   1.111   .     S
C1305  H1326   1.108   .     S
C1305  N1357   1.446   .     S
C1306  N1358   1.446   .     S
C1306  H1329   1.110   .     S
C1306  H1328   1.107   .     S
C1306  H1331   1.112   .     S
C1307  N1359   1.449   .     S
C1307  H1335   1.110   .     S
C1307  H1333   1.108   .     S
C1307  H1334   1.109   .     S
C1308  H1337   1.103   .     S
C1308  N1360   1.443   .     S
C1308  H1339   1.111   .     S
C1308  H1338   1.104   .     S
C1309  H1342   1.101   .     S
C1309  H1344   1.113   .     S
C1309  H1343   1.106   .     S
C1309  N1352   1.453   .     S
C1310  O1365   1.299   .     A
C1310  C1312   1.406   .     S
C1310  O1368   1.293   .     A
C1311  O1367   1.295   .     A
C1311  C1313   1.406   .     S
C1311  O1366   1.298   .     A
C1313  C1996   1.188   .     S
C1314  N1354   1.425   .     S
C1315  N1355   1.429   .     S
C1315  C1142   1.405   1_655 S
C1316  N1356   1.439   .     S
C1316  C1162   1.399   1_655 S
Cu1317 O1365   1.929   .     S
Cu1317 O1363   1.959   .     S
Cu1317 Cu1318  2.709   .     S
Cu1317 O1361   1.975   .     S
Cu1317 N1351   2.036   .     S
Cu1317 O1367   1.924   .     S
Cu1318 O1364   1.959   .     S
Cu1318 N1353   2.036   .     S
Cu1318 O1368   1.924   .     S
Cu1318 O1366   1.929   .     S
Cu1318 O1362   1.975   .     S
H1319  N1354   1.029   .     S
H1323  N1357   1.029   .     S
H1327  N1358   1.031   .     S
H1332  N1359   1.030   .     S
H1336  N1360   1.031   .     S
H1340  N1352   1.029   .     S
H1346  N1355   1.032   .     S
H1350  N1356   1.031   .     S
C1369  C1372   1.454   .     S
C1369  O1440   1.299   .     A
C1369  O1437   1.301   .     A
C1370  C1372   1.409   .     A
C1370  N1433   1.423   .     S
C1370  C1543   1.405   1_455 S
C1371  C1392   1.419   .     A
C1371  C1380   1.470   .     S
C1371  C1391   1.412   .     A
C1372  C1390   1.405   .     A
C1373  N1429   1.372   .     A
C1373  N1434   1.425   .     S
C1373  C1832   1.436   1_545 S
C1374  N1435   1.425   .     S
C1374  N1427   1.373   .     A
C1374  C1603   1.437   .     S
C1375  N1429   1.380   .     A
C1375  N1436   1.422   .     S
C1375  C1830   1.437   1_545 S
C1376  N1428   1.421   .     S
C1376  N1427   1.380   .     A
C1376  C1601   1.436   .     S
C1377  H1421   1.111   .     S
C1377  H1417   1.108   .     S
C1377  H1406   1.111   .     S
C1377  N1430   1.444   .     S
C1378  N1431   1.448   .     S
C1378  H1423   1.110   .     S
C1378  H1425   1.110   .     S
C1378  H1424   1.109   .     S
C1379  H1397   1.107   .     S
C1379  N1432   1.451   .     S
C1379  H1472   1.111   .     S
C1379  H1474   1.109   .     S
C1380  O1438   1.297   .     A
C1380  O1439   1.311   .     A
C1381  H1401   1.110   .     S
C1381  H1400   1.111   .     S
C1381  H1402   1.108   .     S
C1381  N1433   1.446   .     S
C1382  N1434   1.446   .     S
C1382  H1405   1.110   .     S
C1382  H1404   1.107   .     S
C1382  H1407   1.112   .     S
C1383  N1435   1.449   .     S
C1383  H1411   1.110   .     S
C1383  H1409   1.108   .     S
C1383  H1410   1.109   .     S
C1384  H1413   1.103   .     S
C1384  N1436   1.443   .     S
C1384  H1415   1.111   .     S
C1384  H1414   1.104   .     S
C1385  H1418   1.101   .     S
C1385  H1420   1.113   .     S
C1385  H1419   1.106   .     S
C1385  N1428   1.453   .     S
C1386  O1441   1.299   .     A
C1386  C1388   1.406   .     S
C1386  O1444   1.293   .     A
C1387  O1443   1.295   .     A
C1387  C1389   1.406   .     S
C1387  O1442   1.298   .     A
C1389  C20     1.188   1_556 S
C1390  N1430   1.425   .     S
C1390  C1544   1.399   1_455 S
C1391  N1431   1.429   .     S
C1391  C1446   1.405   .     S
C1392  N1432   1.439   .     S
C1392  C1466   1.399   .     S
Cu1393 O1441   1.929   .     S
Cu1393 O1439   1.959   .     S
Cu1393 Cu1394  2.709   .     S
Cu1393 O1437   1.975   .     S
Cu1393 N1427   2.036   .     S
Cu1393 O1443   1.924   .     S
Cu1394 O1440   1.959   .     S
Cu1394 N1429   2.036   .     S
Cu1394 O1444   1.924   .     S
Cu1394 O1442   1.929   .     S
Cu1394 O1438   1.975   .     S
H1395  N1430   1.029   .     S
H1396  C1531   1.111   1_455 S
H1398  C1531   1.109   1_455 S
H1399  N1433   1.029   .     S
H1403  N1434   1.031   .     S
H1408  N1435   1.030   .     S
H1412  N1436   1.031   .     S
H1416  N1428   1.029   .     S
H1422  N1431   1.032   .     S
H1426  N1432   1.031   .     S
C1445  C1448   1.454   .     S
C1445  O1516   1.299   .     A
C1445  O1513   1.301   .     A
C1446  C1448   1.409   .     A
C1446  N1509   1.423   .     S
C1447  C1468   1.419   .     A
C1447  C1456   1.470   .     S
C1447  C1467   1.412   .     A
C1448  C1466   1.405   .     A
C1449  N1505   1.372   .     A
C1449  N1510   1.425   .     S
C1449  C1908   1.436   1_545 S
C1450  N1511   1.425   .     S
C1450  N1503   1.373   .     A
C1450  C1679   1.437   .     S
C1451  N1505   1.380   .     A
C1451  N1512   1.422   .     S
C1451  C1906   1.437   1_545 S
C1452  N1504   1.421   .     S
C1452  N1503   1.380   .     A
C1452  C1677   1.436   .     S
C1453  H1497   1.111   .     S
C1453  H1493   1.108   .     S
C1453  H1482   1.111   .     S
C1453  N1506   1.444   .     S
C1454  N1507   1.448   .     S
C1454  H1499   1.110   .     S
C1454  H1501   1.110   .     S
C1454  H1500   1.109   .     S
C1455  H1473   1.107   .     S
C1455  N1508   1.451   .     S
C1455  H1548   1.111   .     S
C1455  H1550   1.109   .     S
C1456  O1514   1.297   .     A
C1456  O1515   1.311   .     A
C1457  H1477   1.110   .     S
C1457  H1476   1.111   .     S
C1457  H1478   1.108   .     S
C1457  N1509   1.446   .     S
C1458  N1510   1.446   .     S
C1458  H1481   1.110   .     S
C1458  H1480   1.107   .     S
C1458  H1483   1.112   .     S
C1459  N1511   1.449   .     S
C1459  H1487   1.110   .     S
C1459  H1485   1.108   .     S
C1459  H1486   1.109   .     S
C1460  H1489   1.103   .     S
C1460  N1512   1.443   .     S
C1460  H1491   1.111   .     S
C1460  H1490   1.104   .     S
C1461  H1494   1.101   .     S
C1461  H1496   1.113   .     S
C1461  H1495   1.106   .     S
C1461  N1504   1.453   .     S
C1462  O1517   1.299   .     A
C1462  C1464   1.406   .     S
C1462  O1520   1.293   .     A
C1463  O1519   1.295   .     A
C1463  C1465   1.406   .     S
C1463  O1518   1.298   .     A
C1465  C96     1.188   1_556 S
C1466  N1506   1.425   .     S
C1467  N1507   1.429   .     S
C1467  C1522   1.405   .     S
C1468  N1508   1.439   .     S
C1468  C1542   1.399   .     S
Cu1469 O1517   1.929   .     S
Cu1469 O1515   1.959   .     S
Cu1469 Cu1470  2.709   .     S
Cu1469 O1513   1.975   .     S
Cu1469 N1503   2.036   .     S
Cu1469 O1519   1.924   .     S
Cu1470 O1516   1.959   .     S
Cu1470 N1505   2.036   .     S
Cu1470 O1520   1.924   .     S
Cu1470 O1518   1.929   .     S
Cu1470 O1514   1.975   .     S
H1471  N1506   1.029   .     S
H1475  N1509   1.029   .     S
H1479  N1510   1.031   .     S
H1484  N1511   1.030   .     S
H1488  N1512   1.031   .     S
H1492  N1504   1.029   .     S
H1498  N1507   1.032   .     S
H1502  N1508   1.031   .     S
C1521  C1524   1.454   .     S
C1521  O1592   1.299   .     A
C1521  O1589   1.301   .     A
C1522  C1524   1.409   .     A
C1522  N1585   1.423   .     S
C1523  C1544   1.419   .     A
C1523  C1532   1.470   .     S
C1523  C1543   1.412   .     A
C1524  C1542   1.405   .     A
C1525  N1581   1.372   .     A
C1525  N1586   1.425   .     S
C1525  C1984   1.436   1_545 S
C1526  N1587   1.425   .     S
C1526  N1579   1.373   .     A
C1526  C1755   1.437   .     S
C1527  N1581   1.380   .     A
C1527  N1588   1.422   .     S
C1527  C1982   1.437   1_545 S
C1528  N1580   1.421   .     S
C1528  N1579   1.380   .     A
C1528  C1753   1.436   .     S
C1529  H1573   1.111   .     S
C1529  H1569   1.108   .     S
C1529  H1558   1.111   .     S
C1529  N1582   1.444   .     S
C1530  N1583   1.448   .     S
C1530  H1575   1.110   .     S
C1530  H1577   1.110   .     S
C1530  H1576   1.109   .     S
C1531  H1549   1.107   .     S
C1531  N1584   1.451   .     S
C1531  H1396   1.111   1_655 S
C1531  H1398   1.109   1_655 S
C1532  O1590   1.297   .     A
C1532  O1591   1.311   .     A
C1533  H1553   1.110   .     S
C1533  H1552   1.111   .     S
C1533  H1554   1.108   .     S
C1533  N1585   1.446   .     S
C1534  N1586   1.446   .     S
C1534  H1557   1.110   .     S
C1534  H1556   1.107   .     S
C1534  H1559   1.112   .     S
C1535  N1587   1.449   .     S
C1535  H1563   1.110   .     S
C1535  H1561   1.108   .     S
C1535  H1562   1.109   .     S
C1536  H1565   1.103   .     S
C1536  N1588   1.443   .     S
C1536  H1567   1.111   .     S
C1536  H1566   1.104   .     S
C1537  H1570   1.101   .     S
C1537  H1572   1.113   .     S
C1537  H1571   1.106   .     S
C1537  N1580   1.453   .     S
C1538  O1593   1.299   .     A
C1538  C1540   1.406   .     S
C1538  O1596   1.293   .     A
C1539  O1595   1.295   .     A
C1539  C1541   1.406   .     S
C1539  O1594   1.298   .     A
C1541  C172    1.188   1_556 S
C1542  N1582   1.425   .     S
C1543  N1583   1.429   .     S
C1543  C1370   1.405   1_655 S
C1544  N1584   1.439   .     S
C1544  C1390   1.399   1_655 S
Cu1545 O1593   1.929   .     S
Cu1545 O1591   1.959   .     S
Cu1545 Cu1546  2.709   .     S
Cu1545 O1589   1.975   .     S
Cu1545 N1579   2.036   .     S
Cu1545 O1595   1.924   .     S
Cu1546 O1592   1.959   .     S
Cu1546 N1581   2.036   .     S
Cu1546 O1596   1.924   .     S
Cu1546 O1594   1.929   .     S
Cu1546 O1590   1.975   .     S
H1547  N1582   1.029   .     S
H1551  N1585   1.029   .     S
H1555  N1586   1.031   .     S
H1560  N1587   1.030   .     S
H1564  N1588   1.031   .     S
H1568  N1580   1.029   .     S
H1574  N1583   1.032   .     S
H1578  N1584   1.031   .     S
C1597  C1600   1.454   .     S
C1597  O1668   1.299   .     A
C1597  O1665   1.301   .     A
C1598  C1600   1.409   .     A
C1598  N1661   1.423   .     S
C1598  C1771   1.405   1_455 S
C1599  C1620   1.419   .     A
C1599  C1608   1.470   .     S
C1599  C1619   1.412   .     A
C1600  C1618   1.405   .     A
C1601  N1657   1.372   .     A
C1601  N1662   1.425   .     S
C1602  N1663   1.425   .     S
C1602  N1655   1.373   .     A
C1602  C1831   1.437   .     S
C1603  N1657   1.380   .     A
C1603  N1664   1.422   .     S
C1604  N1656   1.421   .     S
C1604  N1655   1.380   .     A
C1604  C1829   1.436   .     S
C1605  H1649   1.111   .     S
C1605  H1645   1.108   .     S
C1605  H1634   1.111   .     S
C1605  N1658   1.444   .     S
C1606  N1659   1.448   .     S
C1606  H1651   1.110   .     S
C1606  H1653   1.110   .     S
C1606  H1652   1.109   .     S
C1607  H1625   1.107   .     S
C1607  N1660   1.451   .     S
C1607  H1700   1.111   .     S
C1607  H1702   1.109   .     S
C1608  O1666   1.297   .     A
C1608  O1667   1.311   .     A
C1609  H1629   1.110   .     S
C1609  H1628   1.111   .     S
C1609  H1630   1.108   .     S
C1609  N1661   1.446   .     S
C1610  N1662   1.446   .     S
C1610  H1633   1.110   .     S
C1610  H1632   1.107   .     S
C1610  H1635   1.112   .     S
C1611  N1663   1.449   .     S
C1611  H1639   1.110   .     S
C1611  H1637   1.108   .     S
C1611  H1638   1.109   .     S
C1612  H1641   1.103   .     S
C1612  N1664   1.443   .     S
C1612  H1643   1.111   .     S
C1612  H1642   1.104   .     S
C1613  H1646   1.101   .     S
C1613  H1648   1.113   .     S
C1613  H1647   1.106   .     S
C1613  N1656   1.453   .     S
C1614  O1669   1.299   .     A
C1614  C1616   1.406   .     S
C1614  O1672   1.293   .     A
C1615  O1671   1.295   .     A
C1615  C1617   1.406   .     S
C1615  O1670   1.298   .     A
C1617  C248    1.188   1_556 S
C1618  N1658   1.425   .     S
C1618  C1772   1.399   1_455 S
C1619  N1659   1.429   .     S
C1619  C1674   1.405   .     S
C1620  N1660   1.439   .     S
C1620  C1694   1.399   .     S
Cu1621 O1669   1.929   .     S
Cu1621 O1667   1.959   .     S
Cu1621 Cu1622  2.709   .     S
Cu1621 O1665   1.975   .     S
Cu1621 N1655   2.036   .     S
Cu1621 O1671   1.924   .     S
Cu1622 O1668   1.959   .     S
Cu1622 N1657   2.036   .     S
Cu1622 O1672   1.924   .     S
Cu1622 O1670   1.929   .     S
Cu1622 O1666   1.975   .     S
H1623  N1658   1.029   .     S
H1624  C1759   1.111   1_455 S
H1626  C1759   1.109   1_455 S
H1627  N1661   1.029   .     S
H1631  N1662   1.031   .     S
H1636  N1663   1.030   .     S
H1640  N1664   1.031   .     S
H1644  N1656   1.029   .     S
H1650  N1659   1.032   .     S
H1654  N1660   1.031   .     S
C1673  C1676   1.454   .     S
C1673  O1744   1.299   .     A
C1673  O1741   1.301   .     A
C1674  C1676   1.409   .     A
C1674  N1737   1.423   .     S
C1675  C1696   1.419   .     A
C1675  C1684   1.470   .     S
C1675  C1695   1.412   .     A
C1676  C1694   1.405   .     A
C1677  N1733   1.372   .     A
C1677  N1738   1.425   .     S
C1678  N1739   1.425   .     S
C1678  N1731   1.373   .     A
C1678  C1907   1.437   .     S
C1679  N1733   1.380   .     A
C1679  N1740   1.422   .     S
C1680  N1732   1.421   .     S
C1680  N1731   1.380   .     A
C1680  C1905   1.436   .     S
C1681  H1725   1.111   .     S
C1681  H1721   1.108   .     S
C1681  H1710   1.111   .     S
C1681  N1734   1.444   .     S
C1682  N1735   1.448   .     S
C1682  H1727   1.110   .     S
C1682  H1729   1.110   .     S
C1682  H1728   1.109   .     S
C1683  H1701   1.107   .     S
C1683  N1736   1.451   .     S
C1683  H1776   1.111   .     S
C1683  H1778   1.109   .     S
C1684  O1742   1.297   .     A
C1684  O1743   1.311   .     A
C1685  H1705   1.110   .     S
C1685  H1704   1.111   .     S
C1685  H1706   1.108   .     S
C1685  N1737   1.446   .     S
C1686  N1738   1.446   .     S
C1686  H1709   1.110   .     S
C1686  H1708   1.107   .     S
C1686  H1711   1.112   .     S
C1687  N1739   1.449   .     S
C1687  H1715   1.110   .     S
C1687  H1713   1.108   .     S
C1687  H1714   1.109   .     S
C1688  H1717   1.103   .     S
C1688  N1740   1.443   .     S
C1688  H1719   1.111   .     S
C1688  H1718   1.104   .     S
C1689  H1722   1.101   .     S
C1689  H1724   1.113   .     S
C1689  H1723   1.106   .     S
C1689  N1732   1.453   .     S
C1690  O1745   1.299   .     A
C1690  C1692   1.406   .     S
C1690  O1748   1.293   .     A
C1691  O1747   1.295   .     A
C1691  C1693   1.406   .     S
C1691  O1746   1.298   .     A
C1693  C324    1.188   1_556 S
C1694  N1734   1.425   .     S
C1695  N1735   1.429   .     S
C1695  C1750   1.405   .     S
C1696  N1736   1.439   .     S
C1696  C1770   1.399   .     S
Cu1697 O1745   1.929   .     S
Cu1697 O1743   1.959   .     S
Cu1697 Cu1698  2.709   .     S
Cu1697 O1741   1.975   .     S
Cu1697 N1731   2.036   .     S
Cu1697 O1747   1.924   .     S
Cu1698 O1744   1.959   .     S
Cu1698 N1733   2.036   .     S
Cu1698 O1748   1.924   .     S
Cu1698 O1746   1.929   .     S
Cu1698 O1742   1.975   .     S
H1699  N1734   1.029   .     S
H1703  N1737   1.029   .     S
H1707  N1738   1.031   .     S
H1712  N1739   1.030   .     S
H1716  N1740   1.031   .     S
H1720  N1732   1.029   .     S
H1726  N1735   1.032   .     S
H1730  N1736   1.031   .     S
C1749  C1752   1.454   .     S
C1749  O1820   1.299   .     A
C1749  O1817   1.301   .     A
C1750  C1752   1.409   .     A
C1750  N1813   1.423   .     S
C1751  C1772   1.419   .     A
C1751  C1760   1.470   .     S
C1751  C1771   1.412   .     A
C1752  C1770   1.405   .     A
C1753  N1809   1.372   .     A
C1753  N1814   1.425   .     S
C1754  N1815   1.425   .     S
C1754  N1807   1.373   .     A
C1754  C1983   1.437   .     S
C1755  N1809   1.380   .     A
C1755  N1816   1.422   .     S
C1756  N1808   1.421   .     S
C1756  N1807   1.380   .     A
C1756  C1981   1.436   .     S
C1757  H1801   1.111   .     S
C1757  H1797   1.108   .     S
C1757  H1786   1.111   .     S
C1757  N1810   1.444   .     S
C1758  N1811   1.448   .     S
C1758  H1803   1.110   .     S
C1758  H1805   1.110   .     S
C1758  H1804   1.109   .     S
C1759  H1777   1.107   .     S
C1759  N1812   1.451   .     S
C1759  H1624   1.111   1_655 S
C1759  H1626   1.109   1_655 S
C1760  O1818   1.297   .     A
C1760  O1819   1.311   .     A
C1761  H1781   1.110   .     S
C1761  H1780   1.111   .     S
C1761  H1782   1.108   .     S
C1761  N1813   1.446   .     S
C1762  N1814   1.446   .     S
C1762  H1785   1.110   .     S
C1762  H1784   1.107   .     S
C1762  H1787   1.112   .     S
C1763  N1815   1.449   .     S
C1763  H1791   1.110   .     S
C1763  H1789   1.108   .     S
C1763  H1790   1.109   .     S
C1764  H1793   1.103   .     S
C1764  N1816   1.443   .     S
C1764  H1795   1.111   .     S
C1764  H1794   1.104   .     S
C1765  H1798   1.101   .     S
C1765  H1800   1.113   .     S
C1765  H1799   1.106   .     S
C1765  N1808   1.453   .     S
C1766  O1821   1.299   .     A
C1766  C1768   1.406   .     S
C1766  O1824   1.293   .     A
C1767  O1823   1.295   .     A
C1767  C1769   1.406   .     S
C1767  O1822   1.298   .     A
C1769  C400    1.188   1_556 S
C1770  N1810   1.425   .     S
C1771  N1811   1.429   .     S
C1771  C1598   1.405   1_655 S
C1772  N1812   1.439   .     S
C1772  C1618   1.399   1_655 S
Cu1773 O1821   1.929   .     S
Cu1773 O1819   1.959   .     S
Cu1773 Cu1774  2.709   .     S
Cu1773 O1817   1.975   .     S
Cu1773 N1807   2.036   .     S
Cu1773 O1823   1.924   .     S
Cu1774 O1820   1.959   .     S
Cu1774 N1809   2.036   .     S
Cu1774 O1824   1.924   .     S
Cu1774 O1822   1.929   .     S
Cu1774 O1818   1.975   .     S
H1775  N1810   1.029   .     S
H1779  N1813   1.029   .     S
H1783  N1814   1.031   .     S
H1788  N1815   1.030   .     S
H1792  N1816   1.031   .     S
H1796  N1808   1.029   .     S
H1802  N1811   1.032   .     S
H1806  N1812   1.031   .     S
C1825  C1828   1.454   .     S
C1825  O1896   1.299   .     A
C1825  O1893   1.301   .     A
C1826  C1828   1.409   .     A
C1826  N1889   1.423   .     S
C1826  C1999   1.405   1_455 S
C1827  C1848   1.419   .     A
C1827  C1836   1.470   .     S
C1827  C1847   1.412   .     A
C1828  C1846   1.405   .     A
C1829  N1885   1.372   .     A
C1829  N1890   1.425   .     S
C1830  N1891   1.425   .     S
C1830  N1883   1.373   .     A
C1830  C1375   1.437   1_565 S
C1831  N1885   1.380   .     A
C1831  N1892   1.422   .     S
C1832  N1884   1.421   .     S
C1832  N1883   1.380   .     A
C1832  C1373   1.436   1_565 S
C1833  H1877   1.111   .     S
C1833  H1873   1.108   .     S
C1833  H1862   1.111   .     S
C1833  N1886   1.444   .     S
C1834  N1887   1.448   .     S
C1834  H1879   1.110   .     S
C1834  H1881   1.110   .     S
C1834  H1880   1.109   .     S
C1835  H1853   1.107   .     S
C1835  N1888   1.451   .     S
C1835  H1928   1.111   .     S
C1835  H1930   1.109   .     S
C1836  O1894   1.297   .     A
C1836  O1895   1.311   .     A
C1837  H1857   1.110   .     S
C1837  H1856   1.111   .     S
C1837  H1858   1.108   .     S
C1837  N1889   1.446   .     S
C1838  N1890   1.446   .     S
C1838  H1861   1.110   .     S
C1838  H1860   1.107   .     S
C1838  H1863   1.112   .     S
C1839  N1891   1.449   .     S
C1839  H1867   1.110   .     S
C1839  H1865   1.108   .     S
C1839  H1866   1.109   .     S
C1840  H1869   1.103   .     S
C1840  N1892   1.443   .     S
C1840  H1871   1.111   .     S
C1840  H1870   1.104   .     S
C1841  H1874   1.101   .     S
C1841  H1876   1.113   .     S
C1841  H1875   1.106   .     S
C1841  N1884   1.453   .     S
C1842  O1897   1.299   .     A
C1842  C1844   1.406   .     S
C1842  O1900   1.293   .     A
C1843  O1899   1.295   .     A
C1843  C1845   1.406   .     S
C1843  O1898   1.298   .     A
C1845  C476    1.188   1_556 S
C1846  N1886   1.425   .     S
C1846  C2000   1.399   1_455 S
C1847  N1887   1.429   .     S
C1847  C1902   1.405   .     S
C1848  N1888   1.439   .     S
C1848  C1922   1.399   .     S
Cu1849 O1897   1.929   .     S
Cu1849 O1895   1.959   .     S
Cu1849 Cu1850  2.709   .     S
Cu1849 O1893   1.975   .     S
Cu1849 N1883   2.036   .     S
Cu1849 O1899   1.924   .     S
Cu1850 O1896   1.959   .     S
Cu1850 N1885   2.036   .     S
Cu1850 O1900   1.924   .     S
Cu1850 O1898   1.929   .     S
Cu1850 O1894   1.975   .     S
H1851  N1886   1.029   .     S
H1852  C1987   1.111   1_455 S
H1854  C1987   1.109   1_455 S
H1855  N1889   1.029   .     S
H1859  N1890   1.031   .     S
H1864  N1891   1.030   .     S
H1868  N1892   1.031   .     S
H1872  N1884   1.029   .     S
H1878  N1887   1.032   .     S
H1882  N1888   1.031   .     S
C1901  C1904   1.454   .     S
C1901  O1972   1.299   .     A
C1901  O1969   1.301   .     A
C1902  C1904   1.409   .     A
C1902  N1965   1.423   .     S
C1903  C1924   1.419   .     A
C1903  C1912   1.470   .     S
C1903  C1923   1.412   .     A
C1904  C1922   1.405   .     A
C1905  N1961   1.372   .     A
C1905  N1966   1.425   .     S
C1906  N1967   1.425   .     S
C1906  N1959   1.373   .     A
C1906  C1451   1.437   1_565 S
C1907  N1961   1.380   .     A
C1907  N1968   1.422   .     S
C1908  N1960   1.421   .     S
C1908  N1959   1.380   .     A
C1908  C1449   1.436   1_565 S
C1909  H1953   1.111   .     S
C1909  H1949   1.108   .     S
C1909  H1938   1.111   .     S
C1909  N1962   1.444   .     S
C1910  N1963   1.448   .     S
C1910  H1955   1.110   .     S
C1910  H1957   1.110   .     S
C1910  H1956   1.109   .     S
C1911  H1929   1.107   .     S
C1911  N1964   1.451   .     S
C1911  H2004   1.111   .     S
C1911  H2006   1.109   .     S
C1912  O1970   1.297   .     A
C1912  O1971   1.311   .     A
C1913  H1933   1.110   .     S
C1913  H1932   1.111   .     S
C1913  H1934   1.108   .     S
C1913  N1965   1.446   .     S
C1914  N1966   1.446   .     S
C1914  H1937   1.110   .     S
C1914  H1936   1.107   .     S
C1914  H1939   1.112   .     S
C1915  N1967   1.449   .     S
C1915  H1943   1.110   .     S
C1915  H1941   1.108   .     S
C1915  H1942   1.109   .     S
C1916  H1945   1.103   .     S
C1916  N1968   1.443   .     S
C1916  H1947   1.111   .     S
C1916  H1946   1.104   .     S
C1917  H1950   1.101   .     S
C1917  H1952   1.113   .     S
C1917  H1951   1.106   .     S
C1917  N1960   1.453   .     S
C1918  O1973   1.299   .     A
C1918  C1920   1.406   .     S
C1918  O1976   1.293   .     A
C1919  O1975   1.295   .     A
C1919  C1921   1.406   .     S
C1919  O1974   1.298   .     A
C1921  C552    1.188   1_556 S
C1922  N1962   1.425   .     S
C1923  N1963   1.429   .     S
C1923  C1978   1.405   .     S
C1924  N1964   1.439   .     S
C1924  C1998   1.399   .     S
Cu1925 O1973   1.929   .     S
Cu1925 O1971   1.959   .     S
Cu1925 Cu1926  2.709   .     S
Cu1925 O1969   1.975   .     S
Cu1925 N1959   2.036   .     S
Cu1925 O1975   1.924   .     S
Cu1926 O1972   1.959   .     S
Cu1926 N1961   2.036   .     S
Cu1926 O1976   1.924   .     S
Cu1926 O1974   1.929   .     S
Cu1926 O1970   1.975   .     S
H1927  N1962   1.029   .     S
H1931  N1965   1.029   .     S
H1935  N1966   1.031   .     S
H1940  N1967   1.030   .     S
H1944  N1968   1.031   .     S
H1948  N1960   1.029   .     S
H1954  N1963   1.032   .     S
H1958  N1964   1.031   .     S
C1977  C1980   1.454   .     S
C1977  O2048   1.299   .     A
C1977  O2045   1.301   .     A
C1978  C1980   1.409   .     A
C1978  N2041   1.423   .     S
C1979  C2000   1.419   .     A
C1979  C1988   1.470   .     S
C1979  C1999   1.412   .     A
C1980  C1998   1.405   .     A
C1981  N2037   1.372   .     A
C1981  N2042   1.425   .     S
C1982  N2043   1.425   .     S
C1982  N2035   1.373   .     A
C1982  C1527   1.437   1_565 S
C1983  N2037   1.380   .     A
C1983  N2044   1.422   .     S
C1984  N2036   1.421   .     S
C1984  N2035   1.380   .     A
C1984  C1525   1.436   1_565 S
C1985  H2029   1.111   .     S
C1985  H2025   1.108   .     S
C1985  H2014   1.111   .     S
C1985  N2038   1.444   .     S
C1986  N2039   1.448   .     S
C1986  H2031   1.110   .     S
C1986  H2033   1.110   .     S
C1986  H2032   1.109   .     S
C1987  H2005   1.107   .     S
C1987  N2040   1.451   .     S
C1987  H1852   1.111   1_655 S
C1987  H1854   1.109   1_655 S
C1988  O2046   1.297   .     A
C1988  O2047   1.311   .     A
C1989  H2009   1.110   .     S
C1989  H2008   1.111   .     S
C1989  H2010   1.108   .     S
C1989  N2041   1.446   .     S
C1990  N2042   1.446   .     S
C1990  H2013   1.110   .     S
C1990  H2012   1.107   .     S
C1990  H2015   1.112   .     S
C1991  N2043   1.449   .     S
C1991  H2019   1.110   .     S
C1991  H2017   1.108   .     S
C1991  H2018   1.109   .     S
C1992  H2021   1.103   .     S
C1992  N2044   1.443   .     S
C1992  H2023   1.111   .     S
C1992  H2022   1.104   .     S
C1993  H2026   1.101   .     S
C1993  H2028   1.113   .     S
C1993  H2027   1.106   .     S
C1993  N2036   1.453   .     S
C1994  O2049   1.299   .     A
C1994  C1996   1.406   .     S
C1994  O2052   1.293   .     A
C1995  O2051   1.295   .     A
C1995  C1997   1.406   .     S
C1995  O2050   1.298   .     A
C1997  C628    1.188   1_556 S
C1998  N2038   1.425   .     S
C1999  N2039   1.429   .     S
C1999  C1826   1.405   1_655 S
C2000  N2040   1.439   .     S
C2000  C1846   1.399   1_655 S
Cu2001 O2049   1.929   .     S
Cu2001 O2047   1.959   .     S
Cu2001 Cu2002  2.709   .     S
Cu2001 O2045   1.975   .     S
Cu2001 N2035   2.036   .     S
Cu2001 O2051   1.924   .     S
Cu2002 O2048   1.959   .     S
Cu2002 N2037   2.036   .     S
Cu2002 O2052   1.924   .     S
Cu2002 O2050   1.929   .     S
Cu2002 O2046   1.975   .     S
H2003  N2038   1.029   .     S
H2007  N2041   1.029   .     S
H2011  N2042   1.031   .     S
H2016  N2043   1.030   .     S
H2020  N2044   1.031   .     S
H2024  N2036   1.029   .     S
H2030  N2039   1.032   .     S
H2034  N2040   1.031   .     S
