data_str_m2_o1_o2_pcu_sym.35
_audit_creation_date              2020-01-03
_audit_creation_method            'Materials Studio'
_symmetry_space_group_name_H-M    'P1'
_symmetry_Int_Tables_number       1
_symmetry_cell_setting            triclinic
loop_
_symmetry_equiv_pos_as_xyz
  x,y,z
_cell_length_a                    32.3127
_cell_length_b                    28.5707
_cell_length_c                    30.2666
_cell_angle_alpha                 90.0417
_cell_angle_beta                  90.1689
_cell_angle_gamma                 90.0053
loop_
_atom_site_label
_atom_site_type_symbol
_atom_site_fract_x
_atom_site_fract_y
_atom_site_fract_z
_atom_site_U_iso_or_equiv
_atom_site_adp_type
_atom_site_occupancy
Br1    Br    0.05174   0.12213   0.33602   0.00000  Uiso   1.00
Br2    Br    0.28153   0.21097   0.16388   0.00000  Uiso   1.00
Br3    Br    0.28203   0.12247   0.33619   0.00000  Uiso   1.00
Br4    Br    0.05124   0.21108   0.16389   0.00000  Uiso   1.00
C5     C     0.08746   0.16666   0.24997   0.00000  Uiso   1.00
C6     C     0.31163   0.18620   0.21396   0.00000  Uiso   1.00
C7     C     0.31183   0.14714   0.28606   0.00000  Uiso   1.00
C8     C     0.02147   0.18622   0.21396   0.00000  Uiso   1.00
C9     C     0.15444   0.20667   0.04757   0.00000  Uiso   1.00
C10    C     0.15464   0.12664   0.45236   0.00000  Uiso   1.00
C11    C     0.17978   0.20667   0.45241   0.00000  Uiso   1.00
C12    C     0.17983   0.12675   0.04768   0.00000  Uiso   1.00
C13    C     0.15455   0.20676   0.09349   0.00000  Uiso   1.00
C14    C     0.15480   0.12653   0.40644   0.00000  Uiso   1.00
C15    C     0.17938   0.20677   0.40649   0.00000  Uiso   1.00
C16    C     0.24587   0.16667   0.25002   0.00000  Uiso   1.00
C17    C     0.17937   0.12662   0.09359   0.00000  Uiso   1.00
C18    C     0.16684   0.16667   0.11674   0.00000  Uiso   1.00
C19    C     0.16697   0.16667   0.38327   0.00000  Uiso   1.00
C20    C     0.16720   0.16671   0.02429   0.00000  Uiso   1.00
C21    C     0.16724   0.16667   0.47572   0.00000  Uiso   1.00
C22    C     0.29046   0.16668   0.25002   0.00000  Uiso   1.00
C23    C     0.04285   0.16665   0.24998   0.00000  Uiso   1.00
C24    C     0.16668   0.16666   0.16497   0.00000  Uiso   1.00
C25    C     0.16676   0.16668   0.33503   0.00000  Uiso   1.00
C26    C     0.14143   0.02477   0.22200   0.00000  Uiso   1.00
C27    C     0.19190   0.30856   0.27800   0.00000  Uiso   1.00
C28    C     0.19189   0.02482   0.27800   0.00000  Uiso   1.00
C29    C     0.14144   0.30851   0.22199   0.00000  Uiso   1.00
C30    C     0.02168   0.14709   0.28602   0.00000  Uiso   1.00
Cu31   Cu    0.16667   0.21355   0.25000   0.00000  Uiso   1.00
Cu32   Cu    0.16667   0.11978   0.25000   0.00000  Uiso   1.00
H33    H     0.12121   0.04344   0.19957   0.00000  Uiso   1.00
H34    H     0.14483   0.09531   0.38911   0.00000  Uiso   1.00
H35    H     0.18928   0.23798   0.38918   0.00000  Uiso   1.00
H36    H     0.18935   0.09544   0.11096   0.00000  Uiso   1.00
H37    H     0.21211   0.28989   0.30044   0.00000  Uiso   1.00
H38    H     0.21211   0.04352   0.30044   0.00000  Uiso   1.00
H39    H     0.12124   0.28981   0.19955   0.00000  Uiso   1.00
H40    H     0.14387   0.23765   0.03031   0.00000  Uiso   1.00
H41    H     0.14414   0.09563   0.46955   0.00000  Uiso   1.00
H42    H     0.19034   0.23769   0.46966   0.00000  Uiso   1.00
H43    H     0.19051   0.09578   0.03050   0.00000  Uiso   1.00
H44    H     0.14445   0.23793   0.11077   0.00000  Uiso   1.00
N45    N     0.16667   0.28402   0.25000   0.00000  Uiso   1.00
N46    N     0.16667   0.04931   0.25000   0.00000  Uiso   1.00
O47    O     0.10655   0.20625   0.25000   0.00000  Uiso   1.00
O48    O     0.22679   0.12709   0.25001   0.00000  Uiso   1.00
O49    O     0.22679   0.20625   0.25001   0.00000  Uiso   1.00
O50    O     0.10655   0.12709   0.25000   0.00000  Uiso   1.00
O51    O     0.16666   0.20626   0.18573   0.00000  Uiso   1.00
O52    O     0.16667   0.12707   0.31427   0.00000  Uiso   1.00
O53    O     0.16667   0.20626   0.31427   0.00000  Uiso   1.00
O54    O     0.16666   0.12707   0.18573   0.00000  Uiso   1.00
Br55   Br    0.38507   0.12213   0.33602   0.00000  Uiso   1.00
Br56   Br    0.61486   0.21097   0.16388   0.00000  Uiso   1.00
Br57   Br    0.61537   0.12247   0.33619   0.00000  Uiso   1.00
Br58   Br    0.38457   0.21108   0.16389   0.00000  Uiso   1.00
C59    C     0.42080   0.16666   0.24997   0.00000  Uiso   1.00
C60    C     0.64496   0.18620   0.21396   0.00000  Uiso   1.00
C61    C     0.64517   0.14714   0.28606   0.00000  Uiso   1.00
C62    C     0.35480   0.18622   0.21396   0.00000  Uiso   1.00
C63    C     0.48777   0.20667   0.04757   0.00000  Uiso   1.00
C64    C     0.48797   0.12664   0.45236   0.00000  Uiso   1.00
C65    C     0.51311   0.20667   0.45241   0.00000  Uiso   1.00
C66    C     0.51316   0.12675   0.04768   0.00000  Uiso   1.00
C67    C     0.48788   0.20676   0.09349   0.00000  Uiso   1.00
C68    C     0.48814   0.12653   0.40644   0.00000  Uiso   1.00
C69    C     0.51271   0.20677   0.40649   0.00000  Uiso   1.00
C70    C     0.57920   0.16667   0.25002   0.00000  Uiso   1.00
C71    C     0.51270   0.12662   0.09359   0.00000  Uiso   1.00
C72    C     0.50017   0.16667   0.11674   0.00000  Uiso   1.00
C73    C     0.50030   0.16667   0.38327   0.00000  Uiso   1.00
C74    C     0.50054   0.16671   0.02429   0.00000  Uiso   1.00
C75    C     0.50057   0.16667   0.47572   0.00000  Uiso   1.00
C76    C     0.62380   0.16668   0.25002   0.00000  Uiso   1.00
C77    C     0.37618   0.16665   0.24998   0.00000  Uiso   1.00
C78    C     0.50002   0.16666   0.16497   0.00000  Uiso   1.00
C79    C     0.50010   0.16668   0.33503   0.00000  Uiso   1.00
C80    C     0.47477   0.02477   0.22200   0.00000  Uiso   1.00
C81    C     0.52523   0.30856   0.27800   0.00000  Uiso   1.00
C82    C     0.52523   0.02482   0.27800   0.00000  Uiso   1.00
C83    C     0.47477   0.30851   0.22199   0.00000  Uiso   1.00
C84    C     0.35501   0.14709   0.28602   0.00000  Uiso   1.00
Cu85   Cu    0.50000   0.21355   0.25000   0.00000  Uiso   1.00
Cu86   Cu    0.50000   0.11978   0.25000   0.00000  Uiso   1.00
H87    H     0.45454   0.04344   0.19957   0.00000  Uiso   1.00
H88    H     0.47816   0.09531   0.38911   0.00000  Uiso   1.00
H89    H     0.52262   0.23798   0.38918   0.00000  Uiso   1.00
H90    H     0.52268   0.09544   0.11096   0.00000  Uiso   1.00
H91    H     0.54545   0.28989   0.30044   0.00000  Uiso   1.00
H92    H     0.54544   0.04352   0.30044   0.00000  Uiso   1.00
H93    H     0.45457   0.28981   0.19955   0.00000  Uiso   1.00
H94    H     0.47721   0.23765   0.03031   0.00000  Uiso   1.00
H95    H     0.47748   0.09563   0.46955   0.00000  Uiso   1.00
H96    H     0.52367   0.23769   0.46966   0.00000  Uiso   1.00
H97    H     0.52384   0.09578   0.03050   0.00000  Uiso   1.00
H98    H     0.47778   0.23793   0.11077   0.00000  Uiso   1.00
N99    N     0.50000   0.28402   0.25000   0.00000  Uiso   1.00
N100   N     0.50000   0.04931   0.25000   0.00000  Uiso   1.00
O101   O     0.43988   0.20625   0.25000   0.00000  Uiso   1.00
O102   O     0.56012   0.12709   0.25001   0.00000  Uiso   1.00
O103   O     0.56012   0.20625   0.25001   0.00000  Uiso   1.00
O104   O     0.43988   0.12709   0.25000   0.00000  Uiso   1.00
O105   O     0.50000   0.20626   0.18573   0.00000  Uiso   1.00
O106   O     0.50000   0.12707   0.31427   0.00000  Uiso   1.00
O107   O     0.50000   0.20626   0.31427   0.00000  Uiso   1.00
O108   O     0.50000   0.12707   0.18573   0.00000  Uiso   1.00
Br109  Br    0.71840   0.12213   0.33602   0.00000  Uiso   1.00
Br110  Br    0.94820   0.21097   0.16388   0.00000  Uiso   1.00
Br111  Br    0.94870   0.12247   0.33619   0.00000  Uiso   1.00
Br112  Br    0.71791   0.21108   0.16389   0.00000  Uiso   1.00
C113   C     0.75413   0.16666   0.24997   0.00000  Uiso   1.00
C114   C     0.97829   0.18620   0.21396   0.00000  Uiso   1.00
C115   C     0.97850   0.14714   0.28606   0.00000  Uiso   1.00
C116   C     0.68814   0.18622   0.21396   0.00000  Uiso   1.00
C117   C     0.82111   0.20667   0.04757   0.00000  Uiso   1.00
C118   C     0.82130   0.12664   0.45236   0.00000  Uiso   1.00
C119   C     0.84645   0.20667   0.45241   0.00000  Uiso   1.00
C120   C     0.84650   0.12675   0.04768   0.00000  Uiso   1.00
C121   C     0.82122   0.20676   0.09349   0.00000  Uiso   1.00
C122   C     0.82147   0.12653   0.40644   0.00000  Uiso   1.00
C123   C     0.84604   0.20677   0.40649   0.00000  Uiso   1.00
C124   C     0.91253   0.16667   0.25002   0.00000  Uiso   1.00
C125   C     0.84604   0.12662   0.09359   0.00000  Uiso   1.00
C126   C     0.83351   0.16667   0.11674   0.00000  Uiso   1.00
C127   C     0.83364   0.16667   0.38327   0.00000  Uiso   1.00
C128   C     0.83387   0.16671   0.02429   0.00000  Uiso   1.00
C129   C     0.83390   0.16667   0.47572   0.00000  Uiso   1.00
C130   C     0.95713   0.16668   0.25002   0.00000  Uiso   1.00
C131   C     0.70952   0.16665   0.24998   0.00000  Uiso   1.00
C132   C     0.83335   0.16666   0.16497   0.00000  Uiso   1.00
C133   C     0.83343   0.16668   0.33503   0.00000  Uiso   1.00
C134   C     0.80810   0.02477   0.22200   0.00000  Uiso   1.00
C135   C     0.85856   0.30856   0.27800   0.00000  Uiso   1.00
C136   C     0.85856   0.02482   0.27800   0.00000  Uiso   1.00
C137   C     0.80811   0.30851   0.22199   0.00000  Uiso   1.00
C138   C     0.68835   0.14709   0.28602   0.00000  Uiso   1.00
Cu139  Cu    0.83333   0.21355   0.25000   0.00000  Uiso   1.00
Cu140  Cu    0.83333   0.11978   0.25000   0.00000  Uiso   1.00
H141   H     0.78788   0.04344   0.19957   0.00000  Uiso   1.00
H142   H     0.81149   0.09531   0.38911   0.00000  Uiso   1.00
H143   H     0.85595   0.23798   0.38918   0.00000  Uiso   1.00
H144   H     0.85602   0.09544   0.11096   0.00000  Uiso   1.00
H145   H     0.87878   0.28989   0.30044   0.00000  Uiso   1.00
H146   H     0.87877   0.04352   0.30044   0.00000  Uiso   1.00
H147   H     0.78790   0.28981   0.19955   0.00000  Uiso   1.00
H148   H     0.81054   0.23765   0.03031   0.00000  Uiso   1.00
H149   H     0.81081   0.09563   0.46955   0.00000  Uiso   1.00
H150   H     0.85701   0.23769   0.46966   0.00000  Uiso   1.00
H151   H     0.85718   0.09578   0.03050   0.00000  Uiso   1.00
H152   H     0.81112   0.23793   0.11077   0.00000  Uiso   1.00
N153   N     0.83333   0.28402   0.25000   0.00000  Uiso   1.00
N154   N     0.83333   0.04931   0.25000   0.00000  Uiso   1.00
O155   O     0.77321   0.20625   0.25000   0.00000  Uiso   1.00
O156   O     0.89345   0.12709   0.25001   0.00000  Uiso   1.00
O157   O     0.89345   0.20625   0.25001   0.00000  Uiso   1.00
O158   O     0.77321   0.12709   0.25000   0.00000  Uiso   1.00
O159   O     0.83333   0.20626   0.18573   0.00000  Uiso   1.00
O160   O     0.83334   0.12707   0.31427   0.00000  Uiso   1.00
O161   O     0.83334   0.20626   0.31427   0.00000  Uiso   1.00
O162   O     0.83333   0.12707   0.18573   0.00000  Uiso   1.00
Br163  Br    0.05174   0.45547   0.33602   0.00000  Uiso   1.00
Br164  Br    0.28153   0.54430   0.16388   0.00000  Uiso   1.00
Br165  Br    0.28203   0.45580   0.33619   0.00000  Uiso   1.00
Br166  Br    0.05124   0.54441   0.16389   0.00000  Uiso   1.00
C167   C     0.08746   0.50000   0.24997   0.00000  Uiso   1.00
C168   C     0.31163   0.51954   0.21396   0.00000  Uiso   1.00
C169   C     0.31183   0.48048   0.28606   0.00000  Uiso   1.00
C170   C     0.02147   0.51955   0.21396   0.00000  Uiso   1.00
C171   C     0.15444   0.54001   0.04757   0.00000  Uiso   1.00
C172   C     0.15464   0.45998   0.45236   0.00000  Uiso   1.00
C173   C     0.17978   0.54000   0.45241   0.00000  Uiso   1.00
C174   C     0.17983   0.46008   0.04768   0.00000  Uiso   1.00
C175   C     0.15455   0.54009   0.09349   0.00000  Uiso   1.00
C176   C     0.15480   0.45987   0.40644   0.00000  Uiso   1.00
C177   C     0.17938   0.54011   0.40649   0.00000  Uiso   1.00
C178   C     0.24587   0.50000   0.25002   0.00000  Uiso   1.00
C179   C     0.17937   0.45995   0.09359   0.00000  Uiso   1.00
C180   C     0.16684   0.50000   0.11674   0.00000  Uiso   1.00
C181   C     0.16697   0.50001   0.38327   0.00000  Uiso   1.00
C182   C     0.16720   0.50005   0.02429   0.00000  Uiso   1.00
C183   C     0.16724   0.50000   0.47572   0.00000  Uiso   1.00
C184   C     0.29046   0.50001   0.25002   0.00000  Uiso   1.00
C185   C     0.04285   0.49999   0.24998   0.00000  Uiso   1.00
C186   C     0.16668   0.49999   0.16497   0.00000  Uiso   1.00
C187   C     0.16676   0.50001   0.33503   0.00000  Uiso   1.00
C188   C     0.14143   0.35811   0.22200   0.00000  Uiso   1.00
C189   C     0.19190   0.64189   0.27800   0.00000  Uiso   1.00
C190   C     0.19189   0.35816   0.27800   0.00000  Uiso   1.00
C191   C     0.14144   0.64184   0.22199   0.00000  Uiso   1.00
C192   C     0.02168   0.48042   0.28602   0.00000  Uiso   1.00
Cu193  Cu    0.16667   0.54689   0.25000   0.00000  Uiso   1.00
Cu194  Cu    0.16667   0.45311   0.25000   0.00000  Uiso   1.00
H195   H     0.12121   0.37677   0.19957   0.00000  Uiso   1.00
H196   H     0.14483   0.42864   0.38911   0.00000  Uiso   1.00
H197   H     0.18928   0.57132   0.38918   0.00000  Uiso   1.00
H198   H     0.18935   0.42878   0.11096   0.00000  Uiso   1.00
H199   H     0.21211   0.62323   0.30044   0.00000  Uiso   1.00
H200   H     0.21211   0.37685   0.30044   0.00000  Uiso   1.00
H201   H     0.12124   0.62315   0.19955   0.00000  Uiso   1.00
H202   H     0.14387   0.57098   0.03031   0.00000  Uiso   1.00
H203   H     0.14414   0.42896   0.46955   0.00000  Uiso   1.00
H204   H     0.19034   0.57102   0.46966   0.00000  Uiso   1.00
H205   H     0.19051   0.42912   0.03050   0.00000  Uiso   1.00
H206   H     0.14445   0.57126   0.11077   0.00000  Uiso   1.00
N207   N     0.16667   0.61736   0.25000   0.00000  Uiso   1.00
N208   N     0.16667   0.38264   0.25000   0.00000  Uiso   1.00
O209   O     0.10655   0.53958   0.25000   0.00000  Uiso   1.00
O210   O     0.22679   0.46042   0.25001   0.00000  Uiso   1.00
O211   O     0.22679   0.53958   0.25001   0.00000  Uiso   1.00
O212   O     0.10655   0.46042   0.25000   0.00000  Uiso   1.00
O213   O     0.16666   0.53959   0.18573   0.00000  Uiso   1.00
O214   O     0.16667   0.46041   0.31427   0.00000  Uiso   1.00
O215   O     0.16667   0.53959   0.31427   0.00000  Uiso   1.00
O216   O     0.16666   0.46041   0.18573   0.00000  Uiso   1.00
Br217  Br    0.38507   0.45547   0.33602   0.00000  Uiso   1.00
Br218  Br    0.61486   0.54430   0.16388   0.00000  Uiso   1.00
Br219  Br    0.61537   0.45580   0.33619   0.00000  Uiso   1.00
Br220  Br    0.38457   0.54441   0.16389   0.00000  Uiso   1.00
C221   C     0.42080   0.50000   0.24997   0.00000  Uiso   1.00
C222   C     0.64496   0.51954   0.21396   0.00000  Uiso   1.00
C223   C     0.64517   0.48048   0.28606   0.00000  Uiso   1.00
C224   C     0.35480   0.51955   0.21396   0.00000  Uiso   1.00
C225   C     0.48777   0.54001   0.04757   0.00000  Uiso   1.00
C226   C     0.48797   0.45998   0.45236   0.00000  Uiso   1.00
C227   C     0.51311   0.54000   0.45241   0.00000  Uiso   1.00
C228   C     0.51316   0.46008   0.04768   0.00000  Uiso   1.00
C229   C     0.48788   0.54009   0.09349   0.00000  Uiso   1.00
C230   C     0.48814   0.45987   0.40644   0.00000  Uiso   1.00
C231   C     0.51271   0.54011   0.40649   0.00000  Uiso   1.00
C232   C     0.57920   0.50000   0.25002   0.00000  Uiso   1.00
C233   C     0.51270   0.45995   0.09359   0.00000  Uiso   1.00
C234   C     0.50017   0.50000   0.11674   0.00000  Uiso   1.00
C235   C     0.50030   0.50001   0.38327   0.00000  Uiso   1.00
C236   C     0.50054   0.50005   0.02429   0.00000  Uiso   1.00
C237   C     0.50057   0.50000   0.47572   0.00000  Uiso   1.00
C238   C     0.62380   0.50001   0.25002   0.00000  Uiso   1.00
C239   C     0.37618   0.49999   0.24998   0.00000  Uiso   1.00
C240   C     0.50002   0.49999   0.16497   0.00000  Uiso   1.00
C241   C     0.50010   0.50001   0.33503   0.00000  Uiso   1.00
C242   C     0.47477   0.35811   0.22200   0.00000  Uiso   1.00
C243   C     0.52523   0.64189   0.27800   0.00000  Uiso   1.00
C244   C     0.52523   0.35816   0.27800   0.00000  Uiso   1.00
C245   C     0.47477   0.64184   0.22199   0.00000  Uiso   1.00
C246   C     0.35501   0.48042   0.28602   0.00000  Uiso   1.00
Cu247  Cu    0.50000   0.54689   0.25000   0.00000  Uiso   1.00
Cu248  Cu    0.50000   0.45311   0.25000   0.00000  Uiso   1.00
H249   H     0.45454   0.37677   0.19957   0.00000  Uiso   1.00
H250   H     0.47816   0.42864   0.38911   0.00000  Uiso   1.00
H251   H     0.52262   0.57132   0.38918   0.00000  Uiso   1.00
H252   H     0.52268   0.42878   0.11096   0.00000  Uiso   1.00
H253   H     0.54545   0.62323   0.30044   0.00000  Uiso   1.00
H254   H     0.54544   0.37685   0.30044   0.00000  Uiso   1.00
H255   H     0.45457   0.62315   0.19955   0.00000  Uiso   1.00
H256   H     0.47721   0.57098   0.03031   0.00000  Uiso   1.00
H257   H     0.47748   0.42896   0.46955   0.00000  Uiso   1.00
H258   H     0.52367   0.57102   0.46966   0.00000  Uiso   1.00
H259   H     0.52384   0.42912   0.03050   0.00000  Uiso   1.00
H260   H     0.47778   0.57126   0.11077   0.00000  Uiso   1.00
N261   N     0.50000   0.61736   0.25000   0.00000  Uiso   1.00
N262   N     0.50000   0.38264   0.25000   0.00000  Uiso   1.00
O263   O     0.43988   0.53958   0.25000   0.00000  Uiso   1.00
O264   O     0.56012   0.46042   0.25001   0.00000  Uiso   1.00
O265   O     0.56012   0.53958   0.25001   0.00000  Uiso   1.00
O266   O     0.43988   0.46042   0.25000   0.00000  Uiso   1.00
O267   O     0.50000   0.53959   0.18573   0.00000  Uiso   1.00
O268   O     0.50000   0.46041   0.31427   0.00000  Uiso   1.00
O269   O     0.50000   0.53959   0.31427   0.00000  Uiso   1.00
O270   O     0.50000   0.46041   0.18573   0.00000  Uiso   1.00
Br271  Br    0.71840   0.45547   0.33602   0.00000  Uiso   1.00
Br272  Br    0.94820   0.54430   0.16388   0.00000  Uiso   1.00
Br273  Br    0.94870   0.45580   0.33619   0.00000  Uiso   1.00
Br274  Br    0.71791   0.54441   0.16389   0.00000  Uiso   1.00
C275   C     0.75413   0.50000   0.24997   0.00000  Uiso   1.00
C276   C     0.97829   0.51954   0.21396   0.00000  Uiso   1.00
C277   C     0.97850   0.48048   0.28606   0.00000  Uiso   1.00
C278   C     0.68814   0.51955   0.21396   0.00000  Uiso   1.00
C279   C     0.82111   0.54001   0.04757   0.00000  Uiso   1.00
C280   C     0.82130   0.45998   0.45236   0.00000  Uiso   1.00
C281   C     0.84645   0.54000   0.45241   0.00000  Uiso   1.00
C282   C     0.84650   0.46008   0.04768   0.00000  Uiso   1.00
C283   C     0.82122   0.54009   0.09349   0.00000  Uiso   1.00
C284   C     0.82147   0.45987   0.40644   0.00000  Uiso   1.00
C285   C     0.84604   0.54011   0.40649   0.00000  Uiso   1.00
C286   C     0.91253   0.50000   0.25002   0.00000  Uiso   1.00
C287   C     0.84604   0.45995   0.09359   0.00000  Uiso   1.00
C288   C     0.83351   0.50000   0.11674   0.00000  Uiso   1.00
C289   C     0.83364   0.50001   0.38327   0.00000  Uiso   1.00
C290   C     0.83387   0.50005   0.02429   0.00000  Uiso   1.00
C291   C     0.83390   0.50000   0.47572   0.00000  Uiso   1.00
C292   C     0.95713   0.50001   0.25002   0.00000  Uiso   1.00
C293   C     0.70952   0.49999   0.24998   0.00000  Uiso   1.00
C294   C     0.83335   0.49999   0.16497   0.00000  Uiso   1.00
C295   C     0.83343   0.50001   0.33503   0.00000  Uiso   1.00
C296   C     0.80810   0.35811   0.22200   0.00000  Uiso   1.00
C297   C     0.85856   0.64189   0.27800   0.00000  Uiso   1.00
C298   C     0.85856   0.35816   0.27800   0.00000  Uiso   1.00
C299   C     0.80811   0.64184   0.22199   0.00000  Uiso   1.00
C300   C     0.68835   0.48042   0.28602   0.00000  Uiso   1.00
Cu301  Cu    0.83333   0.54689   0.25000   0.00000  Uiso   1.00
Cu302  Cu    0.83333   0.45311   0.25000   0.00000  Uiso   1.00
H303   H     0.78788   0.37677   0.19957   0.00000  Uiso   1.00
H304   H     0.81149   0.42864   0.38911   0.00000  Uiso   1.00
H305   H     0.85595   0.57132   0.38918   0.00000  Uiso   1.00
H306   H     0.85602   0.42878   0.11096   0.00000  Uiso   1.00
H307   H     0.87878   0.62323   0.30044   0.00000  Uiso   1.00
H308   H     0.87877   0.37685   0.30044   0.00000  Uiso   1.00
H309   H     0.78790   0.62315   0.19955   0.00000  Uiso   1.00
H310   H     0.81054   0.57098   0.03031   0.00000  Uiso   1.00
H311   H     0.81081   0.42896   0.46955   0.00000  Uiso   1.00
H312   H     0.85701   0.57102   0.46966   0.00000  Uiso   1.00
H313   H     0.85718   0.42912   0.03050   0.00000  Uiso   1.00
H314   H     0.81112   0.57126   0.11077   0.00000  Uiso   1.00
N315   N     0.83333   0.61736   0.25000   0.00000  Uiso   1.00
N316   N     0.83333   0.38264   0.25000   0.00000  Uiso   1.00
O317   O     0.77321   0.53958   0.25000   0.00000  Uiso   1.00
O318   O     0.89345   0.46042   0.25001   0.00000  Uiso   1.00
O319   O     0.89345   0.53958   0.25001   0.00000  Uiso   1.00
O320   O     0.77321   0.46042   0.25000   0.00000  Uiso   1.00
O321   O     0.83333   0.53959   0.18573   0.00000  Uiso   1.00
O322   O     0.83334   0.46041   0.31427   0.00000  Uiso   1.00
O323   O     0.83334   0.53959   0.31427   0.00000  Uiso   1.00
O324   O     0.83333   0.46041   0.18573   0.00000  Uiso   1.00
Br325  Br    0.05174   0.78880   0.33602   0.00000  Uiso   1.00
Br326  Br    0.28153   0.87763   0.16388   0.00000  Uiso   1.00
Br327  Br    0.28203   0.78913   0.33619   0.00000  Uiso   1.00
Br328  Br    0.05124   0.87774   0.16389   0.00000  Uiso   1.00
C329   C     0.08746   0.83333   0.24997   0.00000  Uiso   1.00
C330   C     0.31163   0.85287   0.21396   0.00000  Uiso   1.00
C331   C     0.31183   0.81381   0.28606   0.00000  Uiso   1.00
C332   C     0.02147   0.85289   0.21396   0.00000  Uiso   1.00
C333   C     0.15444   0.87334   0.04757   0.00000  Uiso   1.00
C334   C     0.15464   0.79331   0.45236   0.00000  Uiso   1.00
C335   C     0.17978   0.87334   0.45241   0.00000  Uiso   1.00
C336   C     0.17983   0.79342   0.04768   0.00000  Uiso   1.00
C337   C     0.15455   0.87343   0.09349   0.00000  Uiso   1.00
C338   C     0.15480   0.79320   0.40644   0.00000  Uiso   1.00
C339   C     0.17938   0.87344   0.40649   0.00000  Uiso   1.00
C340   C     0.24587   0.83334   0.25002   0.00000  Uiso   1.00
C341   C     0.17937   0.79329   0.09359   0.00000  Uiso   1.00
C342   C     0.16684   0.83333   0.11674   0.00000  Uiso   1.00
C343   C     0.16697   0.83334   0.38327   0.00000  Uiso   1.00
C344   C     0.16720   0.83338   0.02429   0.00000  Uiso   1.00
C345   C     0.16724   0.83334   0.47572   0.00000  Uiso   1.00
C346   C     0.29046   0.83334   0.25002   0.00000  Uiso   1.00
C347   C     0.04285   0.83332   0.24998   0.00000  Uiso   1.00
C348   C     0.16668   0.83332   0.16497   0.00000  Uiso   1.00
C349   C     0.16676   0.83334   0.33503   0.00000  Uiso   1.00
C350   C     0.14143   0.69144   0.22200   0.00000  Uiso   1.00
C351   C     0.19190   0.97522   0.27800   0.00000  Uiso   1.00
C352   C     0.19189   0.69149   0.27800   0.00000  Uiso   1.00
C353   C     0.14144   0.97518   0.22199   0.00000  Uiso   1.00
C354   C     0.02168   0.81375   0.28602   0.00000  Uiso   1.00
Cu355  Cu    0.16667   0.88022   0.25000   0.00000  Uiso   1.00
Cu356  Cu    0.16667   0.78645   0.25000   0.00000  Uiso   1.00
H357   H     0.12121   0.71010   0.19957   0.00000  Uiso   1.00
H358   H     0.14483   0.76197   0.38911   0.00000  Uiso   1.00
H359   H     0.18928   0.90465   0.38918   0.00000  Uiso   1.00
H360   H     0.18935   0.76211   0.11096   0.00000  Uiso   1.00
H361   H     0.21211   0.95656   0.30044   0.00000  Uiso   1.00
H362   H     0.21211   0.71018   0.30044   0.00000  Uiso   1.00
H363   H     0.12124   0.95648   0.19955   0.00000  Uiso   1.00
H364   H     0.14387   0.90432   0.03031   0.00000  Uiso   1.00
H365   H     0.14414   0.76230   0.46955   0.00000  Uiso   1.00
H366   H     0.19034   0.90436   0.46966   0.00000  Uiso   1.00
H367   H     0.19051   0.76245   0.03050   0.00000  Uiso   1.00
H368   H     0.14445   0.90460   0.11077   0.00000  Uiso   1.00
N369   N     0.16667   0.95069   0.25000   0.00000  Uiso   1.00
N370   N     0.16667   0.71598   0.25000   0.00000  Uiso   1.00
O371   O     0.10655   0.87291   0.25000   0.00000  Uiso   1.00
O372   O     0.22679   0.79375   0.25001   0.00000  Uiso   1.00
O373   O     0.22679   0.87291   0.25001   0.00000  Uiso   1.00
O374   O     0.10655   0.79375   0.25000   0.00000  Uiso   1.00
O375   O     0.16666   0.87293   0.18573   0.00000  Uiso   1.00
O376   O     0.16667   0.79374   0.31427   0.00000  Uiso   1.00
O377   O     0.16667   0.87293   0.31427   0.00000  Uiso   1.00
O378   O     0.16666   0.79374   0.18573   0.00000  Uiso   1.00
Br379  Br    0.38507   0.78880   0.33602   0.00000  Uiso   1.00
Br380  Br    0.61486   0.87763   0.16388   0.00000  Uiso   1.00
Br381  Br    0.61537   0.78913   0.33619   0.00000  Uiso   1.00
Br382  Br    0.38457   0.87774   0.16389   0.00000  Uiso   1.00
C383   C     0.42080   0.83333   0.24997   0.00000  Uiso   1.00
C384   C     0.64496   0.85287   0.21396   0.00000  Uiso   1.00
C385   C     0.64517   0.81381   0.28606   0.00000  Uiso   1.00
C386   C     0.35480   0.85289   0.21396   0.00000  Uiso   1.00
C387   C     0.48777   0.87334   0.04757   0.00000  Uiso   1.00
C388   C     0.48797   0.79331   0.45236   0.00000  Uiso   1.00
C389   C     0.51311   0.87334   0.45241   0.00000  Uiso   1.00
C390   C     0.51316   0.79342   0.04768   0.00000  Uiso   1.00
C391   C     0.48788   0.87343   0.09349   0.00000  Uiso   1.00
C392   C     0.48814   0.79320   0.40644   0.00000  Uiso   1.00
C393   C     0.51271   0.87344   0.40649   0.00000  Uiso   1.00
C394   C     0.57920   0.83334   0.25002   0.00000  Uiso   1.00
C395   C     0.51270   0.79329   0.09359   0.00000  Uiso   1.00
C396   C     0.50017   0.83333   0.11674   0.00000  Uiso   1.00
C397   C     0.50030   0.83334   0.38327   0.00000  Uiso   1.00
C398   C     0.50054   0.83338   0.02429   0.00000  Uiso   1.00
C399   C     0.50057   0.83334   0.47572   0.00000  Uiso   1.00
C400   C     0.62380   0.83334   0.25002   0.00000  Uiso   1.00
C401   C     0.37618   0.83332   0.24998   0.00000  Uiso   1.00
C402   C     0.50002   0.83332   0.16497   0.00000  Uiso   1.00
C403   C     0.50010   0.83334   0.33503   0.00000  Uiso   1.00
C404   C     0.47477   0.69144   0.22200   0.00000  Uiso   1.00
C405   C     0.52523   0.97522   0.27800   0.00000  Uiso   1.00
C406   C     0.52523   0.69149   0.27800   0.00000  Uiso   1.00
C407   C     0.47477   0.97518   0.22199   0.00000  Uiso   1.00
C408   C     0.35501   0.81375   0.28602   0.00000  Uiso   1.00
Cu409  Cu    0.50000   0.88022   0.25000   0.00000  Uiso   1.00
Cu410  Cu    0.50000   0.78645   0.25000   0.00000  Uiso   1.00
H411   H     0.45454   0.71010   0.19957   0.00000  Uiso   1.00
H412   H     0.47816   0.76197   0.38911   0.00000  Uiso   1.00
H413   H     0.52262   0.90465   0.38918   0.00000  Uiso   1.00
H414   H     0.52268   0.76211   0.11096   0.00000  Uiso   1.00
H415   H     0.54545   0.95656   0.30044   0.00000  Uiso   1.00
H416   H     0.54544   0.71018   0.30044   0.00000  Uiso   1.00
H417   H     0.45457   0.95648   0.19955   0.00000  Uiso   1.00
H418   H     0.47721   0.90432   0.03031   0.00000  Uiso   1.00
H419   H     0.47748   0.76230   0.46955   0.00000  Uiso   1.00
H420   H     0.52367   0.90436   0.46966   0.00000  Uiso   1.00
H421   H     0.52384   0.76245   0.03050   0.00000  Uiso   1.00
H422   H     0.47778   0.90460   0.11077   0.00000  Uiso   1.00
N423   N     0.50000   0.95069   0.25000   0.00000  Uiso   1.00
N424   N     0.50000   0.71598   0.25000   0.00000  Uiso   1.00
O425   O     0.43988   0.87291   0.25000   0.00000  Uiso   1.00
O426   O     0.56012   0.79375   0.25001   0.00000  Uiso   1.00
O427   O     0.56012   0.87291   0.25001   0.00000  Uiso   1.00
O428   O     0.43988   0.79375   0.25000   0.00000  Uiso   1.00
O429   O     0.50000   0.87293   0.18573   0.00000  Uiso   1.00
O430   O     0.50000   0.79374   0.31427   0.00000  Uiso   1.00
O431   O     0.50000   0.87293   0.31427   0.00000  Uiso   1.00
O432   O     0.50000   0.79374   0.18573   0.00000  Uiso   1.00
Br433  Br    0.71840   0.78880   0.33602   0.00000  Uiso   1.00
Br434  Br    0.94820   0.87763   0.16388   0.00000  Uiso   1.00
Br435  Br    0.94870   0.78913   0.33619   0.00000  Uiso   1.00
Br436  Br    0.71791   0.87774   0.16389   0.00000  Uiso   1.00
C437   C     0.75413   0.83333   0.24997   0.00000  Uiso   1.00
C438   C     0.97829   0.85287   0.21396   0.00000  Uiso   1.00
C439   C     0.97850   0.81381   0.28606   0.00000  Uiso   1.00
C440   C     0.68814   0.85289   0.21396   0.00000  Uiso   1.00
C441   C     0.82111   0.87334   0.04757   0.00000  Uiso   1.00
C442   C     0.82130   0.79331   0.45236   0.00000  Uiso   1.00
C443   C     0.84645   0.87334   0.45241   0.00000  Uiso   1.00
C444   C     0.84650   0.79342   0.04768   0.00000  Uiso   1.00
C445   C     0.82122   0.87343   0.09349   0.00000  Uiso   1.00
C446   C     0.82147   0.79320   0.40644   0.00000  Uiso   1.00
C447   C     0.84604   0.87344   0.40649   0.00000  Uiso   1.00
C448   C     0.91253   0.83334   0.25002   0.00000  Uiso   1.00
C449   C     0.84604   0.79329   0.09359   0.00000  Uiso   1.00
C450   C     0.83351   0.83333   0.11674   0.00000  Uiso   1.00
C451   C     0.83364   0.83334   0.38327   0.00000  Uiso   1.00
C452   C     0.83387   0.83338   0.02429   0.00000  Uiso   1.00
C453   C     0.83390   0.83334   0.47572   0.00000  Uiso   1.00
C454   C     0.95713   0.83334   0.25002   0.00000  Uiso   1.00
C455   C     0.70952   0.83332   0.24998   0.00000  Uiso   1.00
C456   C     0.83335   0.83332   0.16497   0.00000  Uiso   1.00
C457   C     0.83343   0.83334   0.33503   0.00000  Uiso   1.00
C458   C     0.80810   0.69144   0.22200   0.00000  Uiso   1.00
C459   C     0.85856   0.97522   0.27800   0.00000  Uiso   1.00
C460   C     0.85856   0.69149   0.27800   0.00000  Uiso   1.00
C461   C     0.80811   0.97518   0.22199   0.00000  Uiso   1.00
C462   C     0.68835   0.81375   0.28602   0.00000  Uiso   1.00
Cu463  Cu    0.83333   0.88022   0.25000   0.00000  Uiso   1.00
Cu464  Cu    0.83333   0.78645   0.25000   0.00000  Uiso   1.00
H465   H     0.78788   0.71010   0.19957   0.00000  Uiso   1.00
H466   H     0.81149   0.76197   0.38911   0.00000  Uiso   1.00
H467   H     0.85595   0.90465   0.38918   0.00000  Uiso   1.00
H468   H     0.85602   0.76211   0.11096   0.00000  Uiso   1.00
H469   H     0.87878   0.95656   0.30044   0.00000  Uiso   1.00
H470   H     0.87877   0.71018   0.30044   0.00000  Uiso   1.00
H471   H     0.78790   0.95648   0.19955   0.00000  Uiso   1.00
H472   H     0.81054   0.90432   0.03031   0.00000  Uiso   1.00
H473   H     0.81081   0.76230   0.46955   0.00000  Uiso   1.00
H474   H     0.85701   0.90436   0.46966   0.00000  Uiso   1.00
H475   H     0.85718   0.76245   0.03050   0.00000  Uiso   1.00
H476   H     0.81112   0.90460   0.11077   0.00000  Uiso   1.00
N477   N     0.83333   0.95069   0.25000   0.00000  Uiso   1.00
N478   N     0.83333   0.71598   0.25000   0.00000  Uiso   1.00
O479   O     0.77321   0.87291   0.25000   0.00000  Uiso   1.00
O480   O     0.89345   0.79375   0.25001   0.00000  Uiso   1.00
O481   O     0.89345   0.87291   0.25001   0.00000  Uiso   1.00
O482   O     0.77321   0.79375   0.25000   0.00000  Uiso   1.00
O483   O     0.83333   0.87293   0.18573   0.00000  Uiso   1.00
O484   O     0.83334   0.79374   0.31427   0.00000  Uiso   1.00
O485   O     0.83334   0.87293   0.31427   0.00000  Uiso   1.00
O486   O     0.83333   0.79374   0.18573   0.00000  Uiso   1.00
Br487  Br    0.05174   0.12213   0.83602   0.00000  Uiso   1.00
Br488  Br    0.28153   0.21097   0.66388   0.00000  Uiso   1.00
Br489  Br    0.28203   0.12247   0.83619   0.00000  Uiso   1.00
Br490  Br    0.05124   0.21108   0.66389   0.00000  Uiso   1.00
C491   C     0.08746   0.16666   0.74997   0.00000  Uiso   1.00
C492   C     0.31163   0.18620   0.71396   0.00000  Uiso   1.00
C493   C     0.31183   0.14714   0.78606   0.00000  Uiso   1.00
C494   C     0.02147   0.18622   0.71396   0.00000  Uiso   1.00
C495   C     0.15444   0.20667   0.54757   0.00000  Uiso   1.00
C496   C     0.15464   0.12664   0.95236   0.00000  Uiso   1.00
C497   C     0.17978   0.20667   0.95241   0.00000  Uiso   1.00
C498   C     0.17983   0.12675   0.54768   0.00000  Uiso   1.00
C499   C     0.15455   0.20676   0.59349   0.00000  Uiso   1.00
C500   C     0.15480   0.12653   0.90644   0.00000  Uiso   1.00
C501   C     0.17938   0.20677   0.90649   0.00000  Uiso   1.00
C502   C     0.24587   0.16667   0.75002   0.00000  Uiso   1.00
C503   C     0.17937   0.12662   0.59359   0.00000  Uiso   1.00
C504   C     0.16684   0.16667   0.61674   0.00000  Uiso   1.00
C505   C     0.16697   0.16667   0.88327   0.00000  Uiso   1.00
C506   C     0.16720   0.16671   0.52429   0.00000  Uiso   1.00
C507   C     0.16724   0.16667   0.97572   0.00000  Uiso   1.00
C508   C     0.29046   0.16668   0.75002   0.00000  Uiso   1.00
C509   C     0.04285   0.16665   0.74998   0.00000  Uiso   1.00
C510   C     0.16668   0.16666   0.66497   0.00000  Uiso   1.00
C511   C     0.16676   0.16668   0.83503   0.00000  Uiso   1.00
C512   C     0.14143   0.02477   0.72200   0.00000  Uiso   1.00
C513   C     0.19190   0.30856   0.77800   0.00000  Uiso   1.00
C514   C     0.19189   0.02482   0.77800   0.00000  Uiso   1.00
C515   C     0.14144   0.30851   0.72199   0.00000  Uiso   1.00
C516   C     0.02168   0.14709   0.78602   0.00000  Uiso   1.00
Cu517  Cu    0.16667   0.21355   0.75000   0.00000  Uiso   1.00
Cu518  Cu    0.16667   0.11978   0.75000   0.00000  Uiso   1.00
H519   H     0.12121   0.04344   0.69957   0.00000  Uiso   1.00
H520   H     0.14483   0.09531   0.88911   0.00000  Uiso   1.00
H521   H     0.18928   0.23798   0.88918   0.00000  Uiso   1.00
H522   H     0.18935   0.09544   0.61096   0.00000  Uiso   1.00
H523   H     0.21211   0.28989   0.80044   0.00000  Uiso   1.00
H524   H     0.21211   0.04352   0.80044   0.00000  Uiso   1.00
H525   H     0.12124   0.28981   0.69955   0.00000  Uiso   1.00
H526   H     0.14387   0.23765   0.53031   0.00000  Uiso   1.00
H527   H     0.14414   0.09563   0.96955   0.00000  Uiso   1.00
H528   H     0.19034   0.23769   0.96966   0.00000  Uiso   1.00
H529   H     0.19051   0.09578   0.53050   0.00000  Uiso   1.00
H530   H     0.14445   0.23793   0.61077   0.00000  Uiso   1.00
N531   N     0.16667   0.28402   0.75000   0.00000  Uiso   1.00
N532   N     0.16667   0.04931   0.75000   0.00000  Uiso   1.00
O533   O     0.10655   0.20625   0.75000   0.00000  Uiso   1.00
O534   O     0.22679   0.12709   0.75001   0.00000  Uiso   1.00
O535   O     0.22679   0.20625   0.75001   0.00000  Uiso   1.00
O536   O     0.10655   0.12709   0.75000   0.00000  Uiso   1.00
O537   O     0.16666   0.20626   0.68573   0.00000  Uiso   1.00
O538   O     0.16667   0.12707   0.81427   0.00000  Uiso   1.00
O539   O     0.16667   0.20626   0.81427   0.00000  Uiso   1.00
O540   O     0.16666   0.12707   0.68573   0.00000  Uiso   1.00
Br541  Br    0.38507   0.12213   0.83602   0.00000  Uiso   1.00
Br542  Br    0.61486   0.21097   0.66388   0.00000  Uiso   1.00
Br543  Br    0.61537   0.12247   0.83619   0.00000  Uiso   1.00
Br544  Br    0.38457   0.21108   0.66389   0.00000  Uiso   1.00
C545   C     0.42080   0.16666   0.74997   0.00000  Uiso   1.00
C546   C     0.64496   0.18620   0.71396   0.00000  Uiso   1.00
C547   C     0.64517   0.14714   0.78606   0.00000  Uiso   1.00
C548   C     0.35480   0.18622   0.71396   0.00000  Uiso   1.00
C549   C     0.48777   0.20667   0.54757   0.00000  Uiso   1.00
C550   C     0.48797   0.12664   0.95236   0.00000  Uiso   1.00
C551   C     0.51311   0.20667   0.95241   0.00000  Uiso   1.00
C552   C     0.51316   0.12675   0.54768   0.00000  Uiso   1.00
C553   C     0.48788   0.20676   0.59349   0.00000  Uiso   1.00
C554   C     0.48814   0.12653   0.90644   0.00000  Uiso   1.00
C555   C     0.51271   0.20677   0.90649   0.00000  Uiso   1.00
C556   C     0.57920   0.16667   0.75002   0.00000  Uiso   1.00
C557   C     0.51270   0.12662   0.59359   0.00000  Uiso   1.00
C558   C     0.50017   0.16667   0.61674   0.00000  Uiso   1.00
C559   C     0.50030   0.16667   0.88327   0.00000  Uiso   1.00
C560   C     0.50054   0.16671   0.52429   0.00000  Uiso   1.00
C561   C     0.50057   0.16667   0.97572   0.00000  Uiso   1.00
C562   C     0.62380   0.16668   0.75002   0.00000  Uiso   1.00
C563   C     0.37618   0.16665   0.74998   0.00000  Uiso   1.00
C564   C     0.50002   0.16666   0.66497   0.00000  Uiso   1.00
C565   C     0.50010   0.16668   0.83503   0.00000  Uiso   1.00
C566   C     0.47477   0.02477   0.72200   0.00000  Uiso   1.00
C567   C     0.52523   0.30856   0.77800   0.00000  Uiso   1.00
C568   C     0.52523   0.02482   0.77800   0.00000  Uiso   1.00
C569   C     0.47477   0.30851   0.72199   0.00000  Uiso   1.00
C570   C     0.35501   0.14709   0.78602   0.00000  Uiso   1.00
Cu571  Cu    0.50000   0.21355   0.75000   0.00000  Uiso   1.00
Cu572  Cu    0.50000   0.11978   0.75000   0.00000  Uiso   1.00
H573   H     0.45454   0.04344   0.69957   0.00000  Uiso   1.00
H574   H     0.47816   0.09531   0.88911   0.00000  Uiso   1.00
H575   H     0.52262   0.23798   0.88918   0.00000  Uiso   1.00
H576   H     0.52268   0.09544   0.61096   0.00000  Uiso   1.00
H577   H     0.54545   0.28989   0.80044   0.00000  Uiso   1.00
H578   H     0.54544   0.04352   0.80044   0.00000  Uiso   1.00
H579   H     0.45457   0.28981   0.69955   0.00000  Uiso   1.00
H580   H     0.47721   0.23765   0.53031   0.00000  Uiso   1.00
H581   H     0.47748   0.09563   0.96955   0.00000  Uiso   1.00
H582   H     0.52367   0.23769   0.96966   0.00000  Uiso   1.00
H583   H     0.52384   0.09578   0.53050   0.00000  Uiso   1.00
H584   H     0.47778   0.23793   0.61077   0.00000  Uiso   1.00
N585   N     0.50000   0.28402   0.75000   0.00000  Uiso   1.00
N586   N     0.50000   0.04931   0.75000   0.00000  Uiso   1.00
O587   O     0.43988   0.20625   0.75000   0.00000  Uiso   1.00
O588   O     0.56012   0.12709   0.75001   0.00000  Uiso   1.00
O589   O     0.56012   0.20625   0.75001   0.00000  Uiso   1.00
O590   O     0.43988   0.12709   0.75000   0.00000  Uiso   1.00
O591   O     0.50000   0.20626   0.68573   0.00000  Uiso   1.00
O592   O     0.50000   0.12707   0.81427   0.00000  Uiso   1.00
O593   O     0.50000   0.20626   0.81427   0.00000  Uiso   1.00
O594   O     0.50000   0.12707   0.68573   0.00000  Uiso   1.00
Br595  Br    0.71840   0.12213   0.83602   0.00000  Uiso   1.00
Br596  Br    0.94820   0.21097   0.66388   0.00000  Uiso   1.00
Br597  Br    0.94870   0.12247   0.83619   0.00000  Uiso   1.00
Br598  Br    0.71791   0.21108   0.66389   0.00000  Uiso   1.00
C599   C     0.75413   0.16666   0.74997   0.00000  Uiso   1.00
C600   C     0.97829   0.18620   0.71396   0.00000  Uiso   1.00
C601   C     0.97850   0.14714   0.78606   0.00000  Uiso   1.00
C602   C     0.68814   0.18622   0.71396   0.00000  Uiso   1.00
C603   C     0.82111   0.20667   0.54757   0.00000  Uiso   1.00
C604   C     0.82130   0.12664   0.95236   0.00000  Uiso   1.00
C605   C     0.84645   0.20667   0.95241   0.00000  Uiso   1.00
C606   C     0.84650   0.12675   0.54768   0.00000  Uiso   1.00
C607   C     0.82122   0.20676   0.59349   0.00000  Uiso   1.00
C608   C     0.82147   0.12653   0.90644   0.00000  Uiso   1.00
C609   C     0.84604   0.20677   0.90649   0.00000  Uiso   1.00
C610   C     0.91253   0.16667   0.75002   0.00000  Uiso   1.00
C611   C     0.84604   0.12662   0.59359   0.00000  Uiso   1.00
C612   C     0.83351   0.16667   0.61674   0.00000  Uiso   1.00
C613   C     0.83364   0.16667   0.88327   0.00000  Uiso   1.00
C614   C     0.83387   0.16671   0.52429   0.00000  Uiso   1.00
C615   C     0.83390   0.16667   0.97572   0.00000  Uiso   1.00
C616   C     0.95713   0.16668   0.75002   0.00000  Uiso   1.00
C617   C     0.70952   0.16665   0.74998   0.00000  Uiso   1.00
C618   C     0.83335   0.16666   0.66497   0.00000  Uiso   1.00
C619   C     0.83343   0.16668   0.83503   0.00000  Uiso   1.00
C620   C     0.80810   0.02477   0.72200   0.00000  Uiso   1.00
C621   C     0.85856   0.30856   0.77800   0.00000  Uiso   1.00
C622   C     0.85856   0.02482   0.77800   0.00000  Uiso   1.00
C623   C     0.80811   0.30851   0.72199   0.00000  Uiso   1.00
C624   C     0.68835   0.14709   0.78602   0.00000  Uiso   1.00
Cu625  Cu    0.83333   0.21355   0.75000   0.00000  Uiso   1.00
Cu626  Cu    0.83333   0.11978   0.75000   0.00000  Uiso   1.00
H627   H     0.78788   0.04344   0.69957   0.00000  Uiso   1.00
H628   H     0.81149   0.09531   0.88911   0.00000  Uiso   1.00
H629   H     0.85595   0.23798   0.88918   0.00000  Uiso   1.00
H630   H     0.85602   0.09544   0.61096   0.00000  Uiso   1.00
H631   H     0.87878   0.28989   0.80044   0.00000  Uiso   1.00
H632   H     0.87877   0.04352   0.80044   0.00000  Uiso   1.00
H633   H     0.78790   0.28981   0.69955   0.00000  Uiso   1.00
H634   H     0.81054   0.23765   0.53031   0.00000  Uiso   1.00
H635   H     0.81081   0.09563   0.96955   0.00000  Uiso   1.00
H636   H     0.85701   0.23769   0.96966   0.00000  Uiso   1.00
H637   H     0.85718   0.09578   0.53050   0.00000  Uiso   1.00
H638   H     0.81112   0.23793   0.61077   0.00000  Uiso   1.00
N639   N     0.83333   0.28402   0.75000   0.00000  Uiso   1.00
N640   N     0.83333   0.04931   0.75000   0.00000  Uiso   1.00
O641   O     0.77321   0.20625   0.75000   0.00000  Uiso   1.00
O642   O     0.89345   0.12709   0.75001   0.00000  Uiso   1.00
O643   O     0.89345   0.20625   0.75001   0.00000  Uiso   1.00
O644   O     0.77321   0.12709   0.75000   0.00000  Uiso   1.00
O645   O     0.83333   0.20626   0.68573   0.00000  Uiso   1.00
O646   O     0.83334   0.12707   0.81427   0.00000  Uiso   1.00
O647   O     0.83334   0.20626   0.81427   0.00000  Uiso   1.00
O648   O     0.83333   0.12707   0.68573   0.00000  Uiso   1.00
Br649  Br    0.05174   0.45547   0.83602   0.00000  Uiso   1.00
Br650  Br    0.28153   0.54430   0.66388   0.00000  Uiso   1.00
Br651  Br    0.28203   0.45580   0.83619   0.00000  Uiso   1.00
Br652  Br    0.05124   0.54441   0.66389   0.00000  Uiso   1.00
C653   C     0.08746   0.50000   0.74997   0.00000  Uiso   1.00
C654   C     0.31163   0.51954   0.71396   0.00000  Uiso   1.00
C655   C     0.31183   0.48048   0.78606   0.00000  Uiso   1.00
C656   C     0.02147   0.51955   0.71396   0.00000  Uiso   1.00
C657   C     0.15444   0.54001   0.54757   0.00000  Uiso   1.00
C658   C     0.15464   0.45998   0.95236   0.00000  Uiso   1.00
C659   C     0.17978   0.54000   0.95241   0.00000  Uiso   1.00
C660   C     0.17983   0.46008   0.54768   0.00000  Uiso   1.00
C661   C     0.15455   0.54009   0.59349   0.00000  Uiso   1.00
C662   C     0.15480   0.45987   0.90644   0.00000  Uiso   1.00
C663   C     0.17938   0.54011   0.90649   0.00000  Uiso   1.00
C664   C     0.24587   0.50000   0.75002   0.00000  Uiso   1.00
C665   C     0.17937   0.45995   0.59359   0.00000  Uiso   1.00
C666   C     0.16684   0.50000   0.61674   0.00000  Uiso   1.00
C667   C     0.16697   0.50001   0.88327   0.00000  Uiso   1.00
C668   C     0.16720   0.50005   0.52429   0.00000  Uiso   1.00
C669   C     0.16724   0.50000   0.97572   0.00000  Uiso   1.00
C670   C     0.29046   0.50001   0.75002   0.00000  Uiso   1.00
C671   C     0.04285   0.49999   0.74998   0.00000  Uiso   1.00
C672   C     0.16668   0.49999   0.66497   0.00000  Uiso   1.00
C673   C     0.16676   0.50001   0.83503   0.00000  Uiso   1.00
C674   C     0.14143   0.35811   0.72200   0.00000  Uiso   1.00
C675   C     0.19190   0.64189   0.77800   0.00000  Uiso   1.00
C676   C     0.19189   0.35816   0.77800   0.00000  Uiso   1.00
C677   C     0.14144   0.64184   0.72199   0.00000  Uiso   1.00
C678   C     0.02168   0.48042   0.78602   0.00000  Uiso   1.00
Cu679  Cu    0.16667   0.54689   0.75000   0.00000  Uiso   1.00
Cu680  Cu    0.16667   0.45311   0.75000   0.00000  Uiso   1.00
H681   H     0.12121   0.37677   0.69957   0.00000  Uiso   1.00
H682   H     0.14483   0.42864   0.88911   0.00000  Uiso   1.00
H683   H     0.18928   0.57132   0.88918   0.00000  Uiso   1.00
H684   H     0.18935   0.42878   0.61096   0.00000  Uiso   1.00
H685   H     0.21211   0.62323   0.80044   0.00000  Uiso   1.00
H686   H     0.21211   0.37685   0.80044   0.00000  Uiso   1.00
H687   H     0.12124   0.62315   0.69955   0.00000  Uiso   1.00
H688   H     0.14387   0.57098   0.53031   0.00000  Uiso   1.00
H689   H     0.14414   0.42896   0.96955   0.00000  Uiso   1.00
H690   H     0.19034   0.57102   0.96966   0.00000  Uiso   1.00
H691   H     0.19051   0.42912   0.53050   0.00000  Uiso   1.00
H692   H     0.14445   0.57126   0.61077   0.00000  Uiso   1.00
N693   N     0.16667   0.61736   0.75000   0.00000  Uiso   1.00
N694   N     0.16667   0.38264   0.75000   0.00000  Uiso   1.00
O695   O     0.10655   0.53958   0.75000   0.00000  Uiso   1.00
O696   O     0.22679   0.46042   0.75001   0.00000  Uiso   1.00
O697   O     0.22679   0.53958   0.75001   0.00000  Uiso   1.00
O698   O     0.10655   0.46042   0.75000   0.00000  Uiso   1.00
O699   O     0.16666   0.53959   0.68573   0.00000  Uiso   1.00
O700   O     0.16667   0.46041   0.81427   0.00000  Uiso   1.00
O701   O     0.16667   0.53959   0.81427   0.00000  Uiso   1.00
O702   O     0.16666   0.46041   0.68573   0.00000  Uiso   1.00
Br703  Br    0.38507   0.45547   0.83602   0.00000  Uiso   1.00
Br704  Br    0.61486   0.54430   0.66388   0.00000  Uiso   1.00
Br705  Br    0.61537   0.45580   0.83619   0.00000  Uiso   1.00
Br706  Br    0.38457   0.54441   0.66389   0.00000  Uiso   1.00
C707   C     0.42080   0.50000   0.74997   0.00000  Uiso   1.00
C708   C     0.64496   0.51954   0.71396   0.00000  Uiso   1.00
C709   C     0.64517   0.48048   0.78606   0.00000  Uiso   1.00
C710   C     0.35480   0.51955   0.71396   0.00000  Uiso   1.00
C711   C     0.48777   0.54001   0.54757   0.00000  Uiso   1.00
C712   C     0.48797   0.45998   0.95236   0.00000  Uiso   1.00
C713   C     0.51311   0.54000   0.95241   0.00000  Uiso   1.00
C714   C     0.51316   0.46008   0.54768   0.00000  Uiso   1.00
C715   C     0.48788   0.54009   0.59349   0.00000  Uiso   1.00
C716   C     0.48814   0.45987   0.90644   0.00000  Uiso   1.00
C717   C     0.51271   0.54011   0.90649   0.00000  Uiso   1.00
C718   C     0.57920   0.50000   0.75002   0.00000  Uiso   1.00
C719   C     0.51270   0.45995   0.59359   0.00000  Uiso   1.00
C720   C     0.50017   0.50000   0.61674   0.00000  Uiso   1.00
C721   C     0.50030   0.50001   0.88327   0.00000  Uiso   1.00
C722   C     0.50054   0.50005   0.52429   0.00000  Uiso   1.00
C723   C     0.50057   0.50000   0.97572   0.00000  Uiso   1.00
C724   C     0.62380   0.50001   0.75002   0.00000  Uiso   1.00
C725   C     0.37618   0.49999   0.74998   0.00000  Uiso   1.00
C726   C     0.50002   0.49999   0.66497   0.00000  Uiso   1.00
C727   C     0.50010   0.50001   0.83503   0.00000  Uiso   1.00
C728   C     0.47477   0.35811   0.72200   0.00000  Uiso   1.00
C729   C     0.52523   0.64189   0.77800   0.00000  Uiso   1.00
C730   C     0.52523   0.35816   0.77800   0.00000  Uiso   1.00
C731   C     0.47477   0.64184   0.72199   0.00000  Uiso   1.00
C732   C     0.35501   0.48042   0.78602   0.00000  Uiso   1.00
Cu733  Cu    0.50000   0.54689   0.75000   0.00000  Uiso   1.00
Cu734  Cu    0.50000   0.45311   0.75000   0.00000  Uiso   1.00
H735   H     0.45454   0.37677   0.69957   0.00000  Uiso   1.00
H736   H     0.47816   0.42864   0.88911   0.00000  Uiso   1.00
H737   H     0.52262   0.57132   0.88918   0.00000  Uiso   1.00
H738   H     0.52268   0.42878   0.61096   0.00000  Uiso   1.00
H739   H     0.54545   0.62323   0.80044   0.00000  Uiso   1.00
H740   H     0.54544   0.37685   0.80044   0.00000  Uiso   1.00
H741   H     0.45457   0.62315   0.69955   0.00000  Uiso   1.00
H742   H     0.47721   0.57098   0.53031   0.00000  Uiso   1.00
H743   H     0.47748   0.42896   0.96955   0.00000  Uiso   1.00
H744   H     0.52367   0.57102   0.96966   0.00000  Uiso   1.00
H745   H     0.52384   0.42912   0.53050   0.00000  Uiso   1.00
H746   H     0.47778   0.57126   0.61077   0.00000  Uiso   1.00
N747   N     0.50000   0.61736   0.75000   0.00000  Uiso   1.00
N748   N     0.50000   0.38264   0.75000   0.00000  Uiso   1.00
O749   O     0.43988   0.53958   0.75000   0.00000  Uiso   1.00
O750   O     0.56012   0.46042   0.75001   0.00000  Uiso   1.00
O751   O     0.56012   0.53958   0.75001   0.00000  Uiso   1.00
O752   O     0.43988   0.46042   0.75000   0.00000  Uiso   1.00
O753   O     0.50000   0.53959   0.68573   0.00000  Uiso   1.00
O754   O     0.50000   0.46041   0.81427   0.00000  Uiso   1.00
O755   O     0.50000   0.53959   0.81427   0.00000  Uiso   1.00
O756   O     0.50000   0.46041   0.68573   0.00000  Uiso   1.00
Br757  Br    0.71840   0.45547   0.83602   0.00000  Uiso   1.00
Br758  Br    0.94820   0.54430   0.66388   0.00000  Uiso   1.00
Br759  Br    0.94870   0.45580   0.83619   0.00000  Uiso   1.00
Br760  Br    0.71791   0.54441   0.66389   0.00000  Uiso   1.00
C761   C     0.75413   0.50000   0.74997   0.00000  Uiso   1.00
C762   C     0.97829   0.51954   0.71396   0.00000  Uiso   1.00
C763   C     0.97850   0.48048   0.78606   0.00000  Uiso   1.00
C764   C     0.68814   0.51955   0.71396   0.00000  Uiso   1.00
C765   C     0.82111   0.54001   0.54757   0.00000  Uiso   1.00
C766   C     0.82130   0.45998   0.95236   0.00000  Uiso   1.00
C767   C     0.84645   0.54000   0.95241   0.00000  Uiso   1.00
C768   C     0.84650   0.46008   0.54768   0.00000  Uiso   1.00
C769   C     0.82122   0.54009   0.59349   0.00000  Uiso   1.00
C770   C     0.82147   0.45987   0.90644   0.00000  Uiso   1.00
C771   C     0.84604   0.54011   0.90649   0.00000  Uiso   1.00
C772   C     0.91253   0.50000   0.75002   0.00000  Uiso   1.00
C773   C     0.84604   0.45995   0.59359   0.00000  Uiso   1.00
C774   C     0.83351   0.50000   0.61674   0.00000  Uiso   1.00
C775   C     0.83364   0.50001   0.88327   0.00000  Uiso   1.00
C776   C     0.83387   0.50005   0.52429   0.00000  Uiso   1.00
C777   C     0.83390   0.50000   0.97572   0.00000  Uiso   1.00
C778   C     0.95713   0.50001   0.75002   0.00000  Uiso   1.00
C779   C     0.70952   0.49999   0.74998   0.00000  Uiso   1.00
C780   C     0.83335   0.49999   0.66497   0.00000  Uiso   1.00
C781   C     0.83343   0.50001   0.83503   0.00000  Uiso   1.00
C782   C     0.80810   0.35811   0.72200   0.00000  Uiso   1.00
C783   C     0.85856   0.64189   0.77800   0.00000  Uiso   1.00
C784   C     0.85856   0.35816   0.77800   0.00000  Uiso   1.00
C785   C     0.80811   0.64184   0.72199   0.00000  Uiso   1.00
C786   C     0.68835   0.48042   0.78602   0.00000  Uiso   1.00
Cu787  Cu    0.83333   0.54689   0.75000   0.00000  Uiso   1.00
Cu788  Cu    0.83333   0.45311   0.75000   0.00000  Uiso   1.00
H789   H     0.78788   0.37677   0.69957   0.00000  Uiso   1.00
H790   H     0.81149   0.42864   0.88911   0.00000  Uiso   1.00
H791   H     0.85595   0.57132   0.88918   0.00000  Uiso   1.00
H792   H     0.85602   0.42878   0.61096   0.00000  Uiso   1.00
H793   H     0.87878   0.62323   0.80044   0.00000  Uiso   1.00
H794   H     0.87877   0.37685   0.80044   0.00000  Uiso   1.00
H795   H     0.78790   0.62315   0.69955   0.00000  Uiso   1.00
H796   H     0.81054   0.57098   0.53031   0.00000  Uiso   1.00
H797   H     0.81081   0.42896   0.96955   0.00000  Uiso   1.00
H798   H     0.85701   0.57102   0.96966   0.00000  Uiso   1.00
H799   H     0.85718   0.42912   0.53050   0.00000  Uiso   1.00
H800   H     0.81112   0.57126   0.61077   0.00000  Uiso   1.00
N801   N     0.83333   0.61736   0.75000   0.00000  Uiso   1.00
N802   N     0.83333   0.38264   0.75000   0.00000  Uiso   1.00
O803   O     0.77321   0.53958   0.75000   0.00000  Uiso   1.00
O804   O     0.89345   0.46042   0.75001   0.00000  Uiso   1.00
O805   O     0.89345   0.53958   0.75001   0.00000  Uiso   1.00
O806   O     0.77321   0.46042   0.75000   0.00000  Uiso   1.00
O807   O     0.83333   0.53959   0.68573   0.00000  Uiso   1.00
O808   O     0.83334   0.46041   0.81427   0.00000  Uiso   1.00
O809   O     0.83334   0.53959   0.81427   0.00000  Uiso   1.00
O810   O     0.83333   0.46041   0.68573   0.00000  Uiso   1.00
Br811  Br    0.05174   0.78880   0.83602   0.00000  Uiso   1.00
Br812  Br    0.28153   0.87763   0.66388   0.00000  Uiso   1.00
Br813  Br    0.28203   0.78913   0.83619   0.00000  Uiso   1.00
Br814  Br    0.05124   0.87774   0.66389   0.00000  Uiso   1.00
C815   C     0.08746   0.83333   0.74997   0.00000  Uiso   1.00
C816   C     0.31163   0.85287   0.71396   0.00000  Uiso   1.00
C817   C     0.31183   0.81381   0.78606   0.00000  Uiso   1.00
C818   C     0.02147   0.85289   0.71396   0.00000  Uiso   1.00
C819   C     0.15444   0.87334   0.54757   0.00000  Uiso   1.00
C820   C     0.15464   0.79331   0.95236   0.00000  Uiso   1.00
C821   C     0.17978   0.87334   0.95241   0.00000  Uiso   1.00
C822   C     0.17983   0.79342   0.54768   0.00000  Uiso   1.00
C823   C     0.15455   0.87343   0.59349   0.00000  Uiso   1.00
C824   C     0.15480   0.79320   0.90644   0.00000  Uiso   1.00
C825   C     0.17938   0.87344   0.90649   0.00000  Uiso   1.00
C826   C     0.24587   0.83334   0.75002   0.00000  Uiso   1.00
C827   C     0.17937   0.79329   0.59359   0.00000  Uiso   1.00
C828   C     0.16684   0.83333   0.61674   0.00000  Uiso   1.00
C829   C     0.16697   0.83334   0.88327   0.00000  Uiso   1.00
C830   C     0.16720   0.83338   0.52429   0.00000  Uiso   1.00
C831   C     0.16724   0.83334   0.97572   0.00000  Uiso   1.00
C832   C     0.29046   0.83334   0.75002   0.00000  Uiso   1.00
C833   C     0.04285   0.83332   0.74998   0.00000  Uiso   1.00
C834   C     0.16668   0.83332   0.66497   0.00000  Uiso   1.00
C835   C     0.16676   0.83334   0.83503   0.00000  Uiso   1.00
C836   C     0.14143   0.69144   0.72200   0.00000  Uiso   1.00
C837   C     0.19190   0.97522   0.77800   0.00000  Uiso   1.00
C838   C     0.19189   0.69149   0.77800   0.00000  Uiso   1.00
C839   C     0.14144   0.97518   0.72199   0.00000  Uiso   1.00
C840   C     0.02168   0.81375   0.78602   0.00000  Uiso   1.00
Cu841  Cu    0.16667   0.88022   0.75000   0.00000  Uiso   1.00
Cu842  Cu    0.16667   0.78645   0.75000   0.00000  Uiso   1.00
H843   H     0.12121   0.71010   0.69957   0.00000  Uiso   1.00
H844   H     0.14483   0.76197   0.88911   0.00000  Uiso   1.00
H845   H     0.18928   0.90465   0.88918   0.00000  Uiso   1.00
H846   H     0.18935   0.76211   0.61096   0.00000  Uiso   1.00
H847   H     0.21211   0.95656   0.80044   0.00000  Uiso   1.00
H848   H     0.21211   0.71018   0.80044   0.00000  Uiso   1.00
H849   H     0.12124   0.95648   0.69955   0.00000  Uiso   1.00
H850   H     0.14387   0.90432   0.53031   0.00000  Uiso   1.00
H851   H     0.14414   0.76230   0.96955   0.00000  Uiso   1.00
H852   H     0.19034   0.90436   0.96966   0.00000  Uiso   1.00
H853   H     0.19051   0.76245   0.53050   0.00000  Uiso   1.00
H854   H     0.14445   0.90460   0.61077   0.00000  Uiso   1.00
N855   N     0.16667   0.95069   0.75000   0.00000  Uiso   1.00
N856   N     0.16667   0.71598   0.75000   0.00000  Uiso   1.00
O857   O     0.10655   0.87291   0.75000   0.00000  Uiso   1.00
O858   O     0.22679   0.79375   0.75001   0.00000  Uiso   1.00
O859   O     0.22679   0.87291   0.75001   0.00000  Uiso   1.00
O860   O     0.10655   0.79375   0.75000   0.00000  Uiso   1.00
O861   O     0.16666   0.87293   0.68573   0.00000  Uiso   1.00
O862   O     0.16667   0.79374   0.81427   0.00000  Uiso   1.00
O863   O     0.16667   0.87293   0.81427   0.00000  Uiso   1.00
O864   O     0.16666   0.79374   0.68573   0.00000  Uiso   1.00
Br865  Br    0.38507   0.78880   0.83602   0.00000  Uiso   1.00
Br866  Br    0.61486   0.87763   0.66388   0.00000  Uiso   1.00
Br867  Br    0.61537   0.78913   0.83619   0.00000  Uiso   1.00
Br868  Br    0.38457   0.87774   0.66389   0.00000  Uiso   1.00
C869   C     0.42080   0.83333   0.74997   0.00000  Uiso   1.00
C870   C     0.64496   0.85287   0.71396   0.00000  Uiso   1.00
C871   C     0.64517   0.81381   0.78606   0.00000  Uiso   1.00
C872   C     0.35480   0.85289   0.71396   0.00000  Uiso   1.00
C873   C     0.48777   0.87334   0.54757   0.00000  Uiso   1.00
C874   C     0.48797   0.79331   0.95236   0.00000  Uiso   1.00
C875   C     0.51311   0.87334   0.95241   0.00000  Uiso   1.00
C876   C     0.51316   0.79342   0.54768   0.00000  Uiso   1.00
C877   C     0.48788   0.87343   0.59349   0.00000  Uiso   1.00
C878   C     0.48814   0.79320   0.90644   0.00000  Uiso   1.00
C879   C     0.51271   0.87344   0.90649   0.00000  Uiso   1.00
C880   C     0.57920   0.83334   0.75002   0.00000  Uiso   1.00
C881   C     0.51270   0.79329   0.59359   0.00000  Uiso   1.00
C882   C     0.50017   0.83333   0.61674   0.00000  Uiso   1.00
C883   C     0.50030   0.83334   0.88327   0.00000  Uiso   1.00
C884   C     0.50054   0.83338   0.52429   0.00000  Uiso   1.00
C885   C     0.50057   0.83334   0.97572   0.00000  Uiso   1.00
C886   C     0.62380   0.83334   0.75002   0.00000  Uiso   1.00
C887   C     0.37618   0.83332   0.74998   0.00000  Uiso   1.00
C888   C     0.50002   0.83332   0.66497   0.00000  Uiso   1.00
C889   C     0.50010   0.83334   0.83503   0.00000  Uiso   1.00
C890   C     0.47477   0.69144   0.72200   0.00000  Uiso   1.00
C891   C     0.52523   0.97522   0.77800   0.00000  Uiso   1.00
C892   C     0.52523   0.69149   0.77800   0.00000  Uiso   1.00
C893   C     0.47477   0.97518   0.72199   0.00000  Uiso   1.00
C894   C     0.35501   0.81375   0.78602   0.00000  Uiso   1.00
Cu895  Cu    0.50000   0.88022   0.75000   0.00000  Uiso   1.00
Cu896  Cu    0.50000   0.78645   0.75000   0.00000  Uiso   1.00
H897   H     0.45454   0.71010   0.69957   0.00000  Uiso   1.00
H898   H     0.47816   0.76197   0.88911   0.00000  Uiso   1.00
H899   H     0.52262   0.90465   0.88918   0.00000  Uiso   1.00
H900   H     0.52268   0.76211   0.61096   0.00000  Uiso   1.00
H901   H     0.54545   0.95656   0.80044   0.00000  Uiso   1.00
H902   H     0.54544   0.71018   0.80044   0.00000  Uiso   1.00
H903   H     0.45457   0.95648   0.69955   0.00000  Uiso   1.00
H904   H     0.47721   0.90432   0.53031   0.00000  Uiso   1.00
H905   H     0.47748   0.76230   0.96955   0.00000  Uiso   1.00
H906   H     0.52367   0.90436   0.96966   0.00000  Uiso   1.00
H907   H     0.52384   0.76245   0.53050   0.00000  Uiso   1.00
H908   H     0.47778   0.90460   0.61077   0.00000  Uiso   1.00
N909   N     0.50000   0.95069   0.75000   0.00000  Uiso   1.00
N910   N     0.50000   0.71598   0.75000   0.00000  Uiso   1.00
O911   O     0.43988   0.87291   0.75000   0.00000  Uiso   1.00
O912   O     0.56012   0.79375   0.75001   0.00000  Uiso   1.00
O913   O     0.56012   0.87291   0.75001   0.00000  Uiso   1.00
O914   O     0.43988   0.79375   0.75000   0.00000  Uiso   1.00
O915   O     0.50000   0.87293   0.68573   0.00000  Uiso   1.00
O916   O     0.50000   0.79374   0.81427   0.00000  Uiso   1.00
O917   O     0.50000   0.87293   0.81427   0.00000  Uiso   1.00
O918   O     0.50000   0.79374   0.68573   0.00000  Uiso   1.00
Br919  Br    0.71840   0.78880   0.83602   0.00000  Uiso   1.00
Br920  Br    0.94820   0.87763   0.66388   0.00000  Uiso   1.00
Br921  Br    0.94870   0.78913   0.83619   0.00000  Uiso   1.00
Br922  Br    0.71791   0.87774   0.66389   0.00000  Uiso   1.00
C923   C     0.75413   0.83333   0.74997   0.00000  Uiso   1.00
C924   C     0.97829   0.85287   0.71396   0.00000  Uiso   1.00
C925   C     0.97850   0.81381   0.78606   0.00000  Uiso   1.00
C926   C     0.68814   0.85289   0.71396   0.00000  Uiso   1.00
C927   C     0.82111   0.87334   0.54757   0.00000  Uiso   1.00
C928   C     0.82130   0.79331   0.95236   0.00000  Uiso   1.00
C929   C     0.84645   0.87334   0.95241   0.00000  Uiso   1.00
C930   C     0.84650   0.79342   0.54768   0.00000  Uiso   1.00
C931   C     0.82122   0.87343   0.59349   0.00000  Uiso   1.00
C932   C     0.82147   0.79320   0.90644   0.00000  Uiso   1.00
C933   C     0.84604   0.87344   0.90649   0.00000  Uiso   1.00
C934   C     0.91253   0.83334   0.75002   0.00000  Uiso   1.00
C935   C     0.84604   0.79329   0.59359   0.00000  Uiso   1.00
C936   C     0.83351   0.83333   0.61674   0.00000  Uiso   1.00
C937   C     0.83364   0.83334   0.88327   0.00000  Uiso   1.00
C938   C     0.83387   0.83338   0.52429   0.00000  Uiso   1.00
C939   C     0.83390   0.83334   0.97572   0.00000  Uiso   1.00
C940   C     0.95713   0.83334   0.75002   0.00000  Uiso   1.00
C941   C     0.70952   0.83332   0.74998   0.00000  Uiso   1.00
C942   C     0.83335   0.83332   0.66497   0.00000  Uiso   1.00
C943   C     0.83343   0.83334   0.83503   0.00000  Uiso   1.00
C944   C     0.80810   0.69144   0.72200   0.00000  Uiso   1.00
C945   C     0.85856   0.97522   0.77800   0.00000  Uiso   1.00
C946   C     0.85856   0.69149   0.77800   0.00000  Uiso   1.00
C947   C     0.80811   0.97518   0.72199   0.00000  Uiso   1.00
C948   C     0.68835   0.81375   0.78602   0.00000  Uiso   1.00
Cu949  Cu    0.83333   0.88022   0.75000   0.00000  Uiso   1.00
Cu950  Cu    0.83333   0.78645   0.75000   0.00000  Uiso   1.00
H951   H     0.78788   0.71010   0.69957   0.00000  Uiso   1.00
H952   H     0.81149   0.76197   0.88911   0.00000  Uiso   1.00
H953   H     0.85595   0.90465   0.88918   0.00000  Uiso   1.00
H954   H     0.85602   0.76211   0.61096   0.00000  Uiso   1.00
H955   H     0.87878   0.95656   0.80044   0.00000  Uiso   1.00
H956   H     0.87877   0.71018   0.80044   0.00000  Uiso   1.00
H957   H     0.78790   0.95648   0.69955   0.00000  Uiso   1.00
H958   H     0.81054   0.90432   0.53031   0.00000  Uiso   1.00
H959   H     0.81081   0.76230   0.96955   0.00000  Uiso   1.00
H960   H     0.85701   0.90436   0.96966   0.00000  Uiso   1.00
H961   H     0.85718   0.76245   0.53050   0.00000  Uiso   1.00
H962   H     0.81112   0.90460   0.61077   0.00000  Uiso   1.00
N963   N     0.83333   0.95069   0.75000   0.00000  Uiso   1.00
N964   N     0.83333   0.71598   0.75000   0.00000  Uiso   1.00
O965   O     0.77321   0.87291   0.75000   0.00000  Uiso   1.00
O966   O     0.89345   0.79375   0.75001   0.00000  Uiso   1.00
O967   O     0.89345   0.87291   0.75001   0.00000  Uiso   1.00
O968   O     0.77321   0.79375   0.75000   0.00000  Uiso   1.00
O969   O     0.83333   0.87293   0.68573   0.00000  Uiso   1.00
O970   O     0.83334   0.79374   0.81427   0.00000  Uiso   1.00
O971   O     0.83334   0.87293   0.81427   0.00000  Uiso   1.00
O972   O     0.83333   0.79374   0.68573   0.00000  Uiso   1.00
loop_
_geom_bond_atom_site_label_1
_geom_bond_atom_site_label_2
_geom_bond_distance
_geom_bond_site_symmetry_2
_ccdc_geom_bond_type
Br1    C30     1.933   .     S
Br2    C6      1.933   .     S
Br3    C7      1.933   .     S
Br4    C8      1.933   .     S
C5     O47     1.288   .     A
C5     C23     1.442   .     S
C5     O50     1.288   .     A
C6     C22     1.405   .     A
C6     C62     1.395   .     S
C7     C22     1.405   .     A
C7     C84     1.395   .     S
C8     C23     1.405   .     A
C8     C114    1.395   1_455 S
C9     C20     1.404   .     A
C9     H40     1.083   .     S
C9     C13     1.390   .     A
C10    H41     1.083   .     S
C10    C21     1.404   .     A
C10    C14     1.390   .     A
C11    C15     1.390   .     A
C11    H42     1.083   .     S
C11    C21     1.404   .     A
C12    C17     1.390   .     A
C12    C20     1.404   .     A
C12    H43     1.083   .     S
C13    C18     1.402   .     A
C13    H44     1.083   .     S
C14    H34     1.083   .     S
C14    C19     1.402   .     A
C15    C19     1.402   .     A
C15    H35     1.083   .     S
C16    O49     1.288   .     A
C16    O48     1.288   .     A
C16    C22     1.441   .     S
C17    H36     1.083   .     S
C17    C18     1.402   .     A
C18    C24     1.460   .     S
C19    C25     1.460   .     S
C20    C507    1.470   1_554 S
C21    C506    1.470   .     S
C23    C30     1.405   .     A
C24    O51     1.294   .     A
C24    O54     1.294   .     A
C25    O52     1.294   .     A
C25    O53     1.294   .     A
C26    N46     1.367   .     A
C26    H33     1.082   .     S
C26    C353    1.417   1_545 S
C27    H37     1.082   .     S
C27    N45     1.367   .     A
C27    C190    1.417   .     S
C28    H38     1.082   .     S
C28    N46     1.367   .     A
C28    C351    1.417   1_545 S
C29    N45     1.367   .     A
C29    H39     1.082   .     S
C29    C188    1.417   .     S
C30    C115    1.395   1_455 S
Cu31   Cu32    2.679   .     S
Cu31   O47     1.954   .     S
Cu31   O53     1.957   .     S
Cu31   O49     1.954   .     S
Cu31   N45     2.013   .     S
Cu31   O51     1.956   .     S
Cu32   O48     1.954   .     S
Cu32   O50     1.954   .     S
Cu32   O54     1.957   .     S
Cu32   O52     1.956   .     S
Cu32   N46     2.013   .     S
Br55   C84     1.933   .     S
Br56   C60     1.933   .     S
Br57   C61     1.933   .     S
Br58   C62     1.933   .     S
C59    O101    1.288   .     A
C59    C77     1.442   .     S
C59    O104    1.288   .     A
C60    C76     1.405   .     A
C60    C116    1.395   .     S
C61    C76     1.405   .     A
C61    C138    1.395   .     S
C62    C77     1.405   .     A
C63    C74     1.404   .     A
C63    H94     1.083   .     S
C63    C67     1.390   .     A
C64    H95     1.083   .     S
C64    C75     1.404   .     A
C64    C68     1.390   .     A
C65    C69     1.390   .     A
C65    H96     1.083   .     S
C65    C75     1.404   .     A
C66    C71     1.390   .     A
C66    C74     1.404   .     A
C66    H97     1.083   .     S
C67    C72     1.402   .     A
C67    H98     1.083   .     S
C68    H88     1.083   .     S
C68    C73     1.402   .     A
C69    C73     1.402   .     A
C69    H89     1.083   .     S
C70    O103    1.288   .     A
C70    O102    1.288   .     A
C70    C76     1.441   .     S
C71    H90     1.083   .     S
C71    C72     1.402   .     A
C72    C78     1.460   .     S
C73    C79     1.460   .     S
C74    C561    1.470   1_554 S
C75    C560    1.470   .     S
C77    C84     1.405   .     A
C78    O105    1.294   .     A
C78    O108    1.294   .     A
C79    O106    1.294   .     A
C79    O107    1.294   .     A
C80    N100    1.367   .     A
C80    H87     1.082   .     S
C80    C407    1.417   1_545 S
C81    H91     1.082   .     S
C81    N99     1.367   .     A
C81    C244    1.417   .     S
C82    H92     1.082   .     S
C82    N100    1.367   .     A
C82    C405    1.417   1_545 S
C83    N99     1.367   .     A
C83    H93     1.082   .     S
C83    C242    1.417   .     S
Cu85   Cu86    2.679   .     S
Cu85   O101    1.954   .     S
Cu85   O107    1.957   .     S
Cu85   O103    1.954   .     S
Cu85   N99     2.013   .     S
Cu85   O105    1.956   .     S
Cu86   O102    1.954   .     S
Cu86   O104    1.954   .     S
Cu86   O108    1.957   .     S
Cu86   O106    1.956   .     S
Cu86   N100    2.013   .     S
Br109  C138    1.933   .     S
Br110  C114    1.933   .     S
Br111  C115    1.933   .     S
Br112  C116    1.933   .     S
C113   O155    1.288   .     A
C113   C131    1.442   .     S
C113   O158    1.288   .     A
C114   C130    1.405   .     A
C114   C8      1.395   1_655 S
C115   C130    1.405   .     A
C115   C30     1.395   1_655 S
C116   C131    1.405   .     A
C117   C128    1.404   .     A
C117   H148    1.083   .     S
C117   C121    1.390   .     A
C118   H149    1.083   .     S
C118   C129    1.404   .     A
C118   C122    1.390   .     A
C119   C123    1.390   .     A
C119   H150    1.083   .     S
C119   C129    1.404   .     A
C120   C125    1.390   .     A
C120   C128    1.404   .     A
C120   H151    1.083   .     S
C121   C126    1.402   .     A
C121   H152    1.083   .     S
C122   H142    1.083   .     S
C122   C127    1.402   .     A
C123   C127    1.402   .     A
C123   H143    1.083   .     S
C124   O157    1.288   .     A
C124   O156    1.288   .     A
C124   C130    1.441   .     S
C125   H144    1.083   .     S
C125   C126    1.402   .     A
C126   C132    1.460   .     S
C127   C133    1.460   .     S
C128   C615    1.470   1_554 S
C129   C614    1.470   .     S
C131   C138    1.405   .     A
C132   O159    1.294   .     A
C132   O162    1.294   .     A
C133   O160    1.294   .     A
C133   O161    1.294   .     A
C134   N154    1.367   .     A
C134   H141    1.082   .     S
C134   C461    1.417   1_545 S
C135   H145    1.082   .     S
C135   N153    1.367   .     A
C135   C298    1.417   .     S
C136   H146    1.082   .     S
C136   N154    1.367   .     A
C136   C459    1.417   1_545 S
C137   N153    1.367   .     A
C137   H147    1.082   .     S
C137   C296    1.417   .     S
Cu139  Cu140   2.679   .     S
Cu139  O155    1.954   .     S
Cu139  O161    1.957   .     S
Cu139  O157    1.954   .     S
Cu139  N153    2.013   .     S
Cu139  O159    1.956   .     S
Cu140  O156    1.954   .     S
Cu140  O158    1.954   .     S
Cu140  O162    1.957   .     S
Cu140  O160    1.956   .     S
Cu140  N154    2.013   .     S
Br163  C192    1.933   .     S
Br164  C168    1.933   .     S
Br165  C169    1.933   .     S
Br166  C170    1.933   .     S
C167   O209    1.288   .     A
C167   C185    1.442   .     S
C167   O212    1.288   .     A
C168   C184    1.405   .     A
C168   C224    1.395   .     S
C169   C184    1.405   .     A
C169   C246    1.395   .     S
C170   C185    1.405   .     A
C170   C276    1.395   1_455 S
C171   C182    1.404   .     A
C171   H202    1.083   .     S
C171   C175    1.390   .     A
C172   H203    1.083   .     S
C172   C183    1.404   .     A
C172   C176    1.390   .     A
C173   C177    1.390   .     A
C173   H204    1.083   .     S
C173   C183    1.404   .     A
C174   C179    1.390   .     A
C174   C182    1.404   .     A
C174   H205    1.083   .     S
C175   C180    1.402   .     A
C175   H206    1.083   .     S
C176   H196    1.083   .     S
C176   C181    1.402   .     A
C177   C181    1.402   .     A
C177   H197    1.083   .     S
C178   O211    1.288   .     A
C178   O210    1.288   .     A
C178   C184    1.441   .     S
C179   H198    1.083   .     S
C179   C180    1.402   .     A
C180   C186    1.460   .     S
C181   C187    1.460   .     S
C182   C669    1.470   1_554 S
C183   C668    1.470   .     S
C185   C192    1.405   .     A
C186   O213    1.294   .     A
C186   O216    1.294   .     A
C187   O214    1.294   .     A
C187   O215    1.294   .     A
C188   N208    1.367   .     A
C188   H195    1.082   .     S
C189   H199    1.082   .     S
C189   N207    1.367   .     A
C189   C352    1.417   .     S
C190   H200    1.082   .     S
C190   N208    1.367   .     A
C191   N207    1.367   .     A
C191   H201    1.082   .     S
C191   C350    1.417   .     S
C192   C277    1.395   1_455 S
Cu193  Cu194   2.679   .     S
Cu193  O209    1.954   .     S
Cu193  O215    1.957   .     S
Cu193  O211    1.954   .     S
Cu193  N207    2.013   .     S
Cu193  O213    1.956   .     S
Cu194  O210    1.954   .     S
Cu194  O212    1.954   .     S
Cu194  O216    1.957   .     S
Cu194  O214    1.956   .     S
Cu194  N208    2.013   .     S
Br217  C246    1.933   .     S
Br218  C222    1.933   .     S
Br219  C223    1.933   .     S
Br220  C224    1.933   .     S
C221   O263    1.288   .     A
C221   C239    1.442   .     S
C221   O266    1.288   .     A
C222   C238    1.405   .     A
C222   C278    1.395   .     S
C223   C238    1.405   .     A
C223   C300    1.395   .     S
C224   C239    1.405   .     A
C225   C236    1.404   .     A
C225   H256    1.083   .     S
C225   C229    1.390   .     A
C226   H257    1.083   .     S
C226   C237    1.404   .     A
C226   C230    1.390   .     A
C227   C231    1.390   .     A
C227   H258    1.083   .     S
C227   C237    1.404   .     A
C228   C233    1.390   .     A
C228   C236    1.404   .     A
C228   H259    1.083   .     S
C229   C234    1.402   .     A
C229   H260    1.083   .     S
C230   H250    1.083   .     S
C230   C235    1.402   .     A
C231   C235    1.402   .     A
C231   H251    1.083   .     S
C232   O265    1.288   .     A
C232   O264    1.288   .     A
C232   C238    1.441   .     S
C233   H252    1.083   .     S
C233   C234    1.402   .     A
C234   C240    1.460   .     S
C235   C241    1.460   .     S
C236   C723    1.470   1_554 S
C237   C722    1.470   .     S
C239   C246    1.405   .     A
C240   O267    1.294   .     A
C240   O270    1.294   .     A
C241   O268    1.294   .     A
C241   O269    1.294   .     A
C242   N262    1.367   .     A
C242   H249    1.082   .     S
C243   H253    1.082   .     S
C243   N261    1.367   .     A
C243   C406    1.417   .     S
C244   H254    1.082   .     S
C244   N262    1.367   .     A
C245   N261    1.367   .     A
C245   H255    1.082   .     S
C245   C404    1.417   .     S
Cu247  Cu248   2.679   .     S
Cu247  O263    1.954   .     S
Cu247  O269    1.957   .     S
Cu247  O265    1.954   .     S
Cu247  N261    2.013   .     S
Cu247  O267    1.956   .     S
Cu248  O264    1.954   .     S
Cu248  O266    1.954   .     S
Cu248  O270    1.957   .     S
Cu248  O268    1.956   .     S
Cu248  N262    2.013   .     S
Br271  C300    1.933   .     S
Br272  C276    1.933   .     S
Br273  C277    1.933   .     S
Br274  C278    1.933   .     S
C275   O317    1.288   .     A
C275   C293    1.442   .     S
C275   O320    1.288   .     A
C276   C292    1.405   .     A
C276   C170    1.395   1_655 S
C277   C292    1.405   .     A
C277   C192    1.395   1_655 S
C278   C293    1.405   .     A
C279   C290    1.404   .     A
C279   H310    1.083   .     S
C279   C283    1.390   .     A
C280   H311    1.083   .     S
C280   C291    1.404   .     A
C280   C284    1.390   .     A
C281   C285    1.390   .     A
C281   H312    1.083   .     S
C281   C291    1.404   .     A
C282   C287    1.390   .     A
C282   C290    1.404   .     A
C282   H313    1.083   .     S
C283   C288    1.402   .     A
C283   H314    1.083   .     S
C284   H304    1.083   .     S
C284   C289    1.402   .     A
C285   C289    1.402   .     A
C285   H305    1.083   .     S
C286   O319    1.288   .     A
C286   O318    1.288   .     A
C286   C292    1.441   .     S
C287   H306    1.083   .     S
C287   C288    1.402   .     A
C288   C294    1.460   .     S
C289   C295    1.460   .     S
C290   C777    1.470   1_554 S
C291   C776    1.470   .     S
C293   C300    1.405   .     A
C294   O321    1.294   .     A
C294   O324    1.294   .     A
C295   O322    1.294   .     A
C295   O323    1.294   .     A
C296   N316    1.367   .     A
C296   H303    1.082   .     S
C297   H307    1.082   .     S
C297   N315    1.367   .     A
C297   C460    1.417   .     S
C298   H308    1.082   .     S
C298   N316    1.367   .     A
C299   N315    1.367   .     A
C299   H309    1.082   .     S
C299   C458    1.417   .     S
Cu301  Cu302   2.679   .     S
Cu301  O317    1.954   .     S
Cu301  O323    1.957   .     S
Cu301  O319    1.954   .     S
Cu301  N315    2.013   .     S
Cu301  O321    1.956   .     S
Cu302  O318    1.954   .     S
Cu302  O320    1.954   .     S
Cu302  O324    1.957   .     S
Cu302  O322    1.956   .     S
Cu302  N316    2.013   .     S
Br325  C354    1.933   .     S
Br326  C330    1.933   .     S
Br327  C331    1.933   .     S
Br328  C332    1.933   .     S
C329   O371    1.288   .     A
C329   C347    1.442   .     S
C329   O374    1.288   .     A
C330   C346    1.405   .     A
C330   C386    1.395   .     S
C331   C346    1.405   .     A
C331   C408    1.395   .     S
C332   C347    1.405   .     A
C332   C438    1.395   1_455 S
C333   C344    1.404   .     A
C333   H364    1.083   .     S
C333   C337    1.390   .     A
C334   H365    1.083   .     S
C334   C345    1.404   .     A
C334   C338    1.390   .     A
C335   C339    1.390   .     A
C335   H366    1.083   .     S
C335   C345    1.404   .     A
C336   C341    1.390   .     A
C336   C344    1.404   .     A
C336   H367    1.083   .     S
C337   C342    1.402   .     A
C337   H368    1.083   .     S
C338   H358    1.083   .     S
C338   C343    1.402   .     A
C339   C343    1.402   .     A
C339   H359    1.083   .     S
C340   O373    1.288   .     A
C340   O372    1.288   .     A
C340   C346    1.441   .     S
C341   H360    1.083   .     S
C341   C342    1.402   .     A
C342   C348    1.460   .     S
C343   C349    1.460   .     S
C344   C831    1.470   1_554 S
C345   C830    1.470   .     S
C347   C354    1.405   .     A
C348   O375    1.294   .     A
C348   O378    1.294   .     A
C349   O376    1.294   .     A
C349   O377    1.294   .     A
C350   N370    1.367   .     A
C350   H357    1.082   .     S
C351   H361    1.082   .     S
C351   N369    1.367   .     A
C351   C28     1.417   1_565 S
C352   H362    1.082   .     S
C352   N370    1.367   .     A
C353   N369    1.367   .     A
C353   H363    1.082   .     S
C353   C26     1.417   1_565 S
C354   C439    1.395   1_455 S
Cu355  Cu356   2.679   .     S
Cu355  O371    1.954   .     S
Cu355  O377    1.957   .     S
Cu355  O373    1.954   .     S
Cu355  N369    2.013   .     S
Cu355  O375    1.956   .     S
Cu356  O372    1.954   .     S
Cu356  O374    1.954   .     S
Cu356  O378    1.957   .     S
Cu356  O376    1.956   .     S
Cu356  N370    2.013   .     S
Br379  C408    1.933   .     S
Br380  C384    1.933   .     S
Br381  C385    1.933   .     S
Br382  C386    1.933   .     S
C383   O425    1.288   .     A
C383   C401    1.442   .     S
C383   O428    1.288   .     A
C384   C400    1.405   .     A
C384   C440    1.395   .     S
C385   C400    1.405   .     A
C385   C462    1.395   .     S
C386   C401    1.405   .     A
C387   C398    1.404   .     A
C387   H418    1.083   .     S
C387   C391    1.390   .     A
C388   H419    1.083   .     S
C388   C399    1.404   .     A
C388   C392    1.390   .     A
C389   C393    1.390   .     A
C389   H420    1.083   .     S
C389   C399    1.404   .     A
C390   C395    1.390   .     A
C390   C398    1.404   .     A
C390   H421    1.083   .     S
C391   C396    1.402   .     A
C391   H422    1.083   .     S
C392   H412    1.083   .     S
C392   C397    1.402   .     A
C393   C397    1.402   .     A
C393   H413    1.083   .     S
C394   O427    1.288   .     A
C394   O426    1.288   .     A
C394   C400    1.441   .     S
C395   H414    1.083   .     S
C395   C396    1.402   .     A
C396   C402    1.460   .     S
C397   C403    1.460   .     S
C398   C885    1.470   1_554 S
C399   C884    1.470   .     S
C401   C408    1.405   .     A
C402   O429    1.294   .     A
C402   O432    1.294   .     A
C403   O430    1.294   .     A
C403   O431    1.294   .     A
C404   N424    1.367   .     A
C404   H411    1.082   .     S
C405   H415    1.082   .     S
C405   N423    1.367   .     A
C405   C82     1.417   1_565 S
C406   H416    1.082   .     S
C406   N424    1.367   .     A
C407   N423    1.367   .     A
C407   H417    1.082   .     S
C407   C80     1.417   1_565 S
Cu409  Cu410   2.679   .     S
Cu409  O425    1.954   .     S
Cu409  O431    1.957   .     S
Cu409  O427    1.954   .     S
Cu409  N423    2.013   .     S
Cu409  O429    1.956   .     S
Cu410  O426    1.954   .     S
Cu410  O428    1.954   .     S
Cu410  O432    1.957   .     S
Cu410  O430    1.956   .     S
Cu410  N424    2.013   .     S
Br433  C462    1.933   .     S
Br434  C438    1.933   .     S
Br435  C439    1.933   .     S
Br436  C440    1.933   .     S
C437   O479    1.288   .     A
C437   C455    1.442   .     S
C437   O482    1.288   .     A
C438   C454    1.405   .     A
C438   C332    1.395   1_655 S
C439   C454    1.405   .     A
C439   C354    1.395   1_655 S
C440   C455    1.405   .     A
C441   C452    1.404   .     A
C441   H472    1.083   .     S
C441   C445    1.390   .     A
C442   H473    1.083   .     S
C442   C453    1.404   .     A
C442   C446    1.390   .     A
C443   C447    1.390   .     A
C443   H474    1.083   .     S
C443   C453    1.404   .     A
C444   C449    1.390   .     A
C444   C452    1.404   .     A
C444   H475    1.083   .     S
C445   C450    1.402   .     A
C445   H476    1.083   .     S
C446   H466    1.083   .     S
C446   C451    1.402   .     A
C447   C451    1.402   .     A
C447   H467    1.083   .     S
C448   O481    1.288   .     A
C448   O480    1.288   .     A
C448   C454    1.441   .     S
C449   H468    1.083   .     S
C449   C450    1.402   .     A
C450   C456    1.460   .     S
C451   C457    1.460   .     S
C452   C939    1.470   1_554 S
C453   C938    1.470   .     S
C455   C462    1.405   .     A
C456   O483    1.294   .     A
C456   O486    1.294   .     A
C457   O484    1.294   .     A
C457   O485    1.294   .     A
C458   N478    1.367   .     A
C458   H465    1.082   .     S
C459   H469    1.082   .     S
C459   N477    1.367   .     A
C459   C136    1.417   1_565 S
C460   H470    1.082   .     S
C460   N478    1.367   .     A
C461   N477    1.367   .     A
C461   H471    1.082   .     S
C461   C134    1.417   1_565 S
Cu463  Cu464   2.679   .     S
Cu463  O479    1.954   .     S
Cu463  O485    1.957   .     S
Cu463  O481    1.954   .     S
Cu463  N477    2.013   .     S
Cu463  O483    1.956   .     S
Cu464  O480    1.954   .     S
Cu464  O482    1.954   .     S
Cu464  O486    1.957   .     S
Cu464  O484    1.956   .     S
Cu464  N478    2.013   .     S
Br487  C516    1.933   .     S
Br488  C492    1.933   .     S
Br489  C493    1.933   .     S
Br490  C494    1.933   .     S
C491   O533    1.288   .     A
C491   C509    1.442   .     S
C491   O536    1.288   .     A
C492   C508    1.405   .     A
C492   C548    1.395   .     S
C493   C508    1.405   .     A
C493   C570    1.395   .     S
C494   C509    1.405   .     A
C494   C600    1.395   1_455 S
C495   C506    1.404   .     A
C495   H526    1.083   .     S
C495   C499    1.390   .     A
C496   H527    1.083   .     S
C496   C507    1.404   .     A
C496   C500    1.390   .     A
C497   C501    1.390   .     A
C497   H528    1.083   .     S
C497   C507    1.404   .     A
C498   C503    1.390   .     A
C498   C506    1.404   .     A
C498   H529    1.083   .     S
C499   C504    1.402   .     A
C499   H530    1.083   .     S
C500   H520    1.083   .     S
C500   C505    1.402   .     A
C501   C505    1.402   .     A
C501   H521    1.083   .     S
C502   O535    1.288   .     A
C502   O534    1.288   .     A
C502   C508    1.441   .     S
C503   H522    1.083   .     S
C503   C504    1.402   .     A
C504   C510    1.460   .     S
C505   C511    1.460   .     S
C507   C20     1.470   1_556 S
C509   C516    1.405   .     A
C510   O537    1.294   .     A
C510   O540    1.294   .     A
C511   O538    1.294   .     A
C511   O539    1.294   .     A
C512   N532    1.367   .     A
C512   H519    1.082   .     S
C512   C839    1.417   1_545 S
C513   H523    1.082   .     S
C513   N531    1.367   .     A
C513   C676    1.417   .     S
C514   H524    1.082   .     S
C514   N532    1.367   .     A
C514   C837    1.417   1_545 S
C515   N531    1.367   .     A
C515   H525    1.082   .     S
C515   C674    1.417   .     S
C516   C601    1.395   1_455 S
Cu517  Cu518   2.679   .     S
Cu517  O533    1.954   .     S
Cu517  O539    1.957   .     S
Cu517  O535    1.954   .     S
Cu517  N531    2.013   .     S
Cu517  O537    1.956   .     S
Cu518  O534    1.954   .     S
Cu518  O536    1.954   .     S
Cu518  O540    1.957   .     S
Cu518  O538    1.956   .     S
Cu518  N532    2.013   .     S
Br541  C570    1.933   .     S
Br542  C546    1.933   .     S
Br543  C547    1.933   .     S
Br544  C548    1.933   .     S
C545   O587    1.288   .     A
C545   C563    1.442   .     S
C545   O590    1.288   .     A
C546   C562    1.405   .     A
C546   C602    1.395   .     S
C547   C562    1.405   .     A
C547   C624    1.395   .     S
C548   C563    1.405   .     A
C549   C560    1.404   .     A
C549   H580    1.083   .     S
C549   C553    1.390   .     A
C550   H581    1.083   .     S
C550   C561    1.404   .     A
C550   C554    1.390   .     A
C551   C555    1.390   .     A
C551   H582    1.083   .     S
C551   C561    1.404   .     A
C552   C557    1.390   .     A
C552   C560    1.404   .     A
C552   H583    1.083   .     S
C553   C558    1.402   .     A
C553   H584    1.083   .     S
C554   H574    1.083   .     S
C554   C559    1.402   .     A
C555   C559    1.402   .     A
C555   H575    1.083   .     S
C556   O589    1.288   .     A
C556   O588    1.288   .     A
C556   C562    1.441   .     S
C557   H576    1.083   .     S
C557   C558    1.402   .     A
C558   C564    1.460   .     S
C559   C565    1.460   .     S
C561   C74     1.470   1_556 S
C563   C570    1.405   .     A
C564   O591    1.294   .     A
C564   O594    1.294   .     A
C565   O592    1.294   .     A
C565   O593    1.294   .     A
C566   N586    1.367   .     A
C566   H573    1.082   .     S
C566   C893    1.417   1_545 S
C567   H577    1.082   .     S
C567   N585    1.367   .     A
C567   C730    1.417   .     S
C568   H578    1.082   .     S
C568   N586    1.367   .     A
C568   C891    1.417   1_545 S
C569   N585    1.367   .     A
C569   H579    1.082   .     S
C569   C728    1.417   .     S
Cu571  Cu572   2.679   .     S
Cu571  O587    1.954   .     S
Cu571  O593    1.957   .     S
Cu571  O589    1.954   .     S
Cu571  N585    2.013   .     S
Cu571  O591    1.956   .     S
Cu572  O588    1.954   .     S
Cu572  O590    1.954   .     S
Cu572  O594    1.957   .     S
Cu572  O592    1.956   .     S
Cu572  N586    2.013   .     S
Br595  C624    1.933   .     S
Br596  C600    1.933   .     S
Br597  C601    1.933   .     S
Br598  C602    1.933   .     S
C599   O641    1.288   .     A
C599   C617    1.442   .     S
C599   O644    1.288   .     A
C600   C616    1.405   .     A
C600   C494    1.395   1_655 S
C601   C616    1.405   .     A
C601   C516    1.395   1_655 S
C602   C617    1.405   .     A
C603   C614    1.404   .     A
C603   H634    1.083   .     S
C603   C607    1.390   .     A
C604   H635    1.083   .     S
C604   C615    1.404   .     A
C604   C608    1.390   .     A
C605   C609    1.390   .     A
C605   H636    1.083   .     S
C605   C615    1.404   .     A
C606   C611    1.390   .     A
C606   C614    1.404   .     A
C606   H637    1.083   .     S
C607   C612    1.402   .     A
C607   H638    1.083   .     S
C608   H628    1.083   .     S
C608   C613    1.402   .     A
C609   C613    1.402   .     A
C609   H629    1.083   .     S
C610   O643    1.288   .     A
C610   O642    1.288   .     A
C610   C616    1.441   .     S
C611   H630    1.083   .     S
C611   C612    1.402   .     A
C612   C618    1.460   .     S
C613   C619    1.460   .     S
C615   C128    1.470   1_556 S
C617   C624    1.405   .     A
C618   O645    1.294   .     A
C618   O648    1.294   .     A
C619   O646    1.294   .     A
C619   O647    1.294   .     A
C620   N640    1.367   .     A
C620   H627    1.082   .     S
C620   C947    1.417   1_545 S
C621   H631    1.082   .     S
C621   N639    1.367   .     A
C621   C784    1.417   .     S
C622   H632    1.082   .     S
C622   N640    1.367   .     A
C622   C945    1.417   1_545 S
C623   N639    1.367   .     A
C623   H633    1.082   .     S
C623   C782    1.417   .     S
Cu625  Cu626   2.679   .     S
Cu625  O641    1.954   .     S
Cu625  O647    1.957   .     S
Cu625  O643    1.954   .     S
Cu625  N639    2.013   .     S
Cu625  O645    1.956   .     S
Cu626  O642    1.954   .     S
Cu626  O644    1.954   .     S
Cu626  O648    1.957   .     S
Cu626  O646    1.956   .     S
Cu626  N640    2.013   .     S
Br649  C678    1.933   .     S
Br650  C654    1.933   .     S
Br651  C655    1.933   .     S
Br652  C656    1.933   .     S
C653   O695    1.288   .     A
C653   C671    1.442   .     S
C653   O698    1.288   .     A
C654   C670    1.405   .     A
C654   C710    1.395   .     S
C655   C670    1.405   .     A
C655   C732    1.395   .     S
C656   C671    1.405   .     A
C656   C762    1.395   1_455 S
C657   C668    1.404   .     A
C657   H688    1.083   .     S
C657   C661    1.390   .     A
C658   H689    1.083   .     S
C658   C669    1.404   .     A
C658   C662    1.390   .     A
C659   C663    1.390   .     A
C659   H690    1.083   .     S
C659   C669    1.404   .     A
C660   C665    1.390   .     A
C660   C668    1.404   .     A
C660   H691    1.083   .     S
C661   C666    1.402   .     A
C661   H692    1.083   .     S
C662   H682    1.083   .     S
C662   C667    1.402   .     A
C663   C667    1.402   .     A
C663   H683    1.083   .     S
C664   O697    1.288   .     A
C664   O696    1.288   .     A
C664   C670    1.441   .     S
C665   H684    1.083   .     S
C665   C666    1.402   .     A
C666   C672    1.460   .     S
C667   C673    1.460   .     S
C669   C182    1.470   1_556 S
C671   C678    1.405   .     A
C672   O699    1.294   .     A
C672   O702    1.294   .     A
C673   O700    1.294   .     A
C673   O701    1.294   .     A
C674   N694    1.367   .     A
C674   H681    1.082   .     S
C675   H685    1.082   .     S
C675   N693    1.367   .     A
C675   C838    1.417   .     S
C676   H686    1.082   .     S
C676   N694    1.367   .     A
C677   N693    1.367   .     A
C677   H687    1.082   .     S
C677   C836    1.417   .     S
C678   C763    1.395   1_455 S
Cu679  Cu680   2.679   .     S
Cu679  O695    1.954   .     S
Cu679  O701    1.957   .     S
Cu679  O697    1.954   .     S
Cu679  N693    2.013   .     S
Cu679  O699    1.956   .     S
Cu680  O696    1.954   .     S
Cu680  O698    1.954   .     S
Cu680  O702    1.957   .     S
Cu680  O700    1.956   .     S
Cu680  N694    2.013   .     S
Br703  C732    1.933   .     S
Br704  C708    1.933   .     S
Br705  C709    1.933   .     S
Br706  C710    1.933   .     S
C707   O749    1.288   .     A
C707   C725    1.442   .     S
C707   O752    1.288   .     A
C708   C724    1.405   .     A
C708   C764    1.395   .     S
C709   C724    1.405   .     A
C709   C786    1.395   .     S
C710   C725    1.405   .     A
C711   C722    1.404   .     A
C711   H742    1.083   .     S
C711   C715    1.390   .     A
C712   H743    1.083   .     S
C712   C723    1.404   .     A
C712   C716    1.390   .     A
C713   C717    1.390   .     A
C713   H744    1.083   .     S
C713   C723    1.404   .     A
C714   C719    1.390   .     A
C714   C722    1.404   .     A
C714   H745    1.083   .     S
C715   C720    1.402   .     A
C715   H746    1.083   .     S
C716   H736    1.083   .     S
C716   C721    1.402   .     A
C717   C721    1.402   .     A
C717   H737    1.083   .     S
C718   O751    1.288   .     A
C718   O750    1.288   .     A
C718   C724    1.441   .     S
C719   H738    1.083   .     S
C719   C720    1.402   .     A
C720   C726    1.460   .     S
C721   C727    1.460   .     S
C723   C236    1.470   1_556 S
C725   C732    1.405   .     A
C726   O753    1.294   .     A
C726   O756    1.294   .     A
C727   O754    1.294   .     A
C727   O755    1.294   .     A
C728   N748    1.367   .     A
C728   H735    1.082   .     S
C729   H739    1.082   .     S
C729   N747    1.367   .     A
C729   C892    1.417   .     S
C730   H740    1.082   .     S
C730   N748    1.367   .     A
C731   N747    1.367   .     A
C731   H741    1.082   .     S
C731   C890    1.417   .     S
Cu733  Cu734   2.679   .     S
Cu733  O749    1.954   .     S
Cu733  O755    1.957   .     S
Cu733  O751    1.954   .     S
Cu733  N747    2.013   .     S
Cu733  O753    1.956   .     S
Cu734  O750    1.954   .     S
Cu734  O752    1.954   .     S
Cu734  O756    1.957   .     S
Cu734  O754    1.956   .     S
Cu734  N748    2.013   .     S
Br757  C786    1.933   .     S
Br758  C762    1.933   .     S
Br759  C763    1.933   .     S
Br760  C764    1.933   .     S
C761   O803    1.288   .     A
C761   C779    1.442   .     S
C761   O806    1.288   .     A
C762   C778    1.405   .     A
C762   C656    1.395   1_655 S
C763   C778    1.405   .     A
C763   C678    1.395   1_655 S
C764   C779    1.405   .     A
C765   C776    1.404   .     A
C765   H796    1.083   .     S
C765   C769    1.390   .     A
C766   H797    1.083   .     S
C766   C777    1.404   .     A
C766   C770    1.390   .     A
C767   C771    1.390   .     A
C767   H798    1.083   .     S
C767   C777    1.404   .     A
C768   C773    1.390   .     A
C768   C776    1.404   .     A
C768   H799    1.083   .     S
C769   C774    1.402   .     A
C769   H800    1.083   .     S
C770   H790    1.083   .     S
C770   C775    1.402   .     A
C771   C775    1.402   .     A
C771   H791    1.083   .     S
C772   O805    1.288   .     A
C772   O804    1.288   .     A
C772   C778    1.441   .     S
C773   H792    1.083   .     S
C773   C774    1.402   .     A
C774   C780    1.460   .     S
C775   C781    1.460   .     S
C777   C290    1.470   1_556 S
C779   C786    1.405   .     A
C780   O807    1.294   .     A
C780   O810    1.294   .     A
C781   O808    1.294   .     A
C781   O809    1.294   .     A
C782   N802    1.367   .     A
C782   H789    1.082   .     S
C783   H793    1.082   .     S
C783   N801    1.367   .     A
C783   C946    1.417   .     S
C784   H794    1.082   .     S
C784   N802    1.367   .     A
C785   N801    1.367   .     A
C785   H795    1.082   .     S
C785   C944    1.417   .     S
Cu787  Cu788   2.679   .     S
Cu787  O803    1.954   .     S
Cu787  O809    1.957   .     S
Cu787  O805    1.954   .     S
Cu787  N801    2.013   .     S
Cu787  O807    1.956   .     S
Cu788  O804    1.954   .     S
Cu788  O806    1.954   .     S
Cu788  O810    1.957   .     S
Cu788  O808    1.956   .     S
Cu788  N802    2.013   .     S
Br811  C840    1.933   .     S
Br812  C816    1.933   .     S
Br813  C817    1.933   .     S
Br814  C818    1.933   .     S
C815   O857    1.288   .     A
C815   C833    1.442   .     S
C815   O860    1.288   .     A
C816   C832    1.405   .     A
C816   C872    1.395   .     S
C817   C832    1.405   .     A
C817   C894    1.395   .     S
C818   C833    1.405   .     A
C818   C924    1.395   1_455 S
C819   C830    1.404   .     A
C819   H850    1.083   .     S
C819   C823    1.390   .     A
C820   H851    1.083   .     S
C820   C831    1.404   .     A
C820   C824    1.390   .     A
C821   C825    1.390   .     A
C821   H852    1.083   .     S
C821   C831    1.404   .     A
C822   C827    1.390   .     A
C822   C830    1.404   .     A
C822   H853    1.083   .     S
C823   C828    1.402   .     A
C823   H854    1.083   .     S
C824   H844    1.083   .     S
C824   C829    1.402   .     A
C825   C829    1.402   .     A
C825   H845    1.083   .     S
C826   O859    1.288   .     A
C826   O858    1.288   .     A
C826   C832    1.441   .     S
C827   H846    1.083   .     S
C827   C828    1.402   .     A
C828   C834    1.460   .     S
C829   C835    1.460   .     S
C831   C344    1.470   1_556 S
C833   C840    1.405   .     A
C834   O861    1.294   .     A
C834   O864    1.294   .     A
C835   O862    1.294   .     A
C835   O863    1.294   .     A
C836   N856    1.367   .     A
C836   H843    1.082   .     S
C837   H847    1.082   .     S
C837   N855    1.367   .     A
C837   C514    1.417   1_565 S
C838   H848    1.082   .     S
C838   N856    1.367   .     A
C839   N855    1.367   .     A
C839   H849    1.082   .     S
C839   C512    1.417   1_565 S
C840   C925    1.395   1_455 S
Cu841  Cu842   2.679   .     S
Cu841  O857    1.954   .     S
Cu841  O863    1.957   .     S
Cu841  O859    1.954   .     S
Cu841  N855    2.013   .     S
Cu841  O861    1.956   .     S
Cu842  O858    1.954   .     S
Cu842  O860    1.954   .     S
Cu842  O864    1.957   .     S
Cu842  O862    1.956   .     S
Cu842  N856    2.013   .     S
Br865  C894    1.933   .     S
Br866  C870    1.933   .     S
Br867  C871    1.933   .     S
Br868  C872    1.933   .     S
C869   O911    1.288   .     A
C869   C887    1.442   .     S
C869   O914    1.288   .     A
C870   C886    1.405   .     A
C870   C926    1.395   .     S
C871   C886    1.405   .     A
C871   C948    1.395   .     S
C872   C887    1.405   .     A
C873   C884    1.404   .     A
C873   H904    1.083   .     S
C873   C877    1.390   .     A
C874   H905    1.083   .     S
C874   C885    1.404   .     A
C874   C878    1.390   .     A
C875   C879    1.390   .     A
C875   H906    1.083   .     S
C875   C885    1.404   .     A
C876   C881    1.390   .     A
C876   C884    1.404   .     A
C876   H907    1.083   .     S
C877   C882    1.402   .     A
C877   H908    1.083   .     S
C878   H898    1.083   .     S
C878   C883    1.402   .     A
C879   C883    1.402   .     A
C879   H899    1.083   .     S
C880   O913    1.288   .     A
C880   O912    1.288   .     A
C880   C886    1.441   .     S
C881   H900    1.083   .     S
C881   C882    1.402   .     A
C882   C888    1.460   .     S
C883   C889    1.460   .     S
C885   C398    1.470   1_556 S
C887   C894    1.405   .     A
C888   O915    1.294   .     A
C888   O918    1.294   .     A
C889   O916    1.294   .     A
C889   O917    1.294   .     A
C890   N910    1.367   .     A
C890   H897    1.082   .     S
C891   H901    1.082   .     S
C891   N909    1.367   .     A
C891   C568    1.417   1_565 S
C892   H902    1.082   .     S
C892   N910    1.367   .     A
C893   N909    1.367   .     A
C893   H903    1.082   .     S
C893   C566    1.417   1_565 S
Cu895  Cu896   2.679   .     S
Cu895  O911    1.954   .     S
Cu895  O917    1.957   .     S
Cu895  O913    1.954   .     S
Cu895  N909    2.013   .     S
Cu895  O915    1.956   .     S
Cu896  O912    1.954   .     S
Cu896  O914    1.954   .     S
Cu896  O918    1.957   .     S
Cu896  O916    1.956   .     S
Cu896  N910    2.013   .     S
Br919  C948    1.933   .     S
Br920  C924    1.933   .     S
Br921  C925    1.933   .     S
Br922  C926    1.933   .     S
C923   O965    1.288   .     A
C923   C941    1.442   .     S
C923   O968    1.288   .     A
C924   C940    1.405   .     A
C924   C818    1.395   1_655 S
C925   C940    1.405   .     A
C925   C840    1.395   1_655 S
C926   C941    1.405   .     A
C927   C938    1.404   .     A
C927   H958    1.083   .     S
C927   C931    1.390   .     A
C928   H959    1.083   .     S
C928   C939    1.404   .     A
C928   C932    1.390   .     A
C929   C933    1.390   .     A
C929   H960    1.083   .     S
C929   C939    1.404   .     A
C930   C935    1.390   .     A
C930   C938    1.404   .     A
C930   H961    1.083   .     S
C931   C936    1.402   .     A
C931   H962    1.083   .     S
C932   H952    1.083   .     S
C932   C937    1.402   .     A
C933   C937    1.402   .     A
C933   H953    1.083   .     S
C934   O967    1.288   .     A
C934   O966    1.288   .     A
C934   C940    1.441   .     S
C935   H954    1.083   .     S
C935   C936    1.402   .     A
C936   C942    1.460   .     S
C937   C943    1.460   .     S
C939   C452    1.470   1_556 S
C941   C948    1.405   .     A
C942   O969    1.294   .     A
C942   O972    1.294   .     A
C943   O970    1.294   .     A
C943   O971    1.294   .     A
C944   N964    1.367   .     A
C944   H951    1.082   .     S
C945   H955    1.082   .     S
C945   N963    1.367   .     A
C945   C622    1.417   1_565 S
C946   H956    1.082   .     S
C946   N964    1.367   .     A
C947   N963    1.367   .     A
C947   H957    1.082   .     S
C947   C620    1.417   1_565 S
Cu949  Cu950   2.679   .     S
Cu949  O965    1.954   .     S
Cu949  O971    1.957   .     S
Cu949  O967    1.954   .     S
Cu949  N963    2.013   .     S
Cu949  O969    1.956   .     S
Cu950  O966    1.954   .     S
Cu950  O968    1.954   .     S
Cu950  O972    1.957   .     S
Cu950  O970    1.956   .     S
Cu950  N964    2.013   .     S
