data_str_m2_o1_o5_pcu_sym.21
_audit_creation_date              2020-01-03
_audit_creation_method            'Materials Studio'
_symmetry_space_group_name_H-M    'P1'
_symmetry_Int_Tables_number       1
_symmetry_cell_setting            triclinic
loop_
_symmetry_equiv_pos_as_xyz
  x,y,z
_cell_length_a                    32.4988
_cell_length_b                    29.0815
_cell_length_c                    27.5960
_cell_angle_alpha                 88.2847
_cell_angle_beta                  96.6603
_cell_angle_gamma                 85.1013
loop_
_atom_site_label
_atom_site_type_symbol
_atom_site_fract_x
_atom_site_fract_y
_atom_site_fract_z
_atom_site_U_iso_or_equiv
_atom_site_adp_type
_atom_site_occupancy
O1     O     0.10655   0.20625   0.16666   0.00000  Uiso   1.00
O2     O     0.22679   0.12709   0.16667   0.00000  Uiso   1.00
O3     O     0.22679   0.20625   0.16667   0.00000  Uiso   1.00
O4     O     0.10655   0.12709   0.16666   0.00000  Uiso   1.00
C5     C     0.08783   0.16789   0.17123   0.00000  Uiso   1.00
C6     C     0.24551   0.16545   0.16211   0.00000  Uiso   1.00
O7     O     0.16667   0.20625   0.09613   0.00000  Uiso   1.00
O8     O     0.16667   0.12708   0.23720   0.00000  Uiso   1.00
O9     O     0.16667   0.20625   0.23720   0.00000  Uiso   1.00
O10    O     0.16667   0.12708   0.09613   0.00000  Uiso   1.00
C11    C     0.16648   0.16710   0.07360   0.00000  Uiso   1.00
C12    C     0.16686   0.16623   0.25973   0.00000  Uiso   1.00
Cu13   Cu    0.16667   0.21355   0.16667   0.00000  Uiso   1.00
Cu14   Cu    0.16667   0.11978   0.16667   0.00000  Uiso   1.00
C15    C     0.16662   0.16723   0.02178   0.00000  Uiso   1.00
C16    C     0.16671   0.16611   0.31156   0.00000  Uiso   1.00
C17    C     0.02580   0.12784   0.18769   0.00000  Uiso   1.00
C18    C     0.30754   0.20552   0.14569   0.00000  Uiso   1.00
C19    C     0.31703   0.12407   0.17117   0.00000  Uiso   1.00
C20    C     0.01631   0.20929   0.16221   0.00000  Uiso   1.00
C21    C     0.29040   0.16406   0.15692   0.00000  Uiso   1.00
C22    C     0.04294   0.16928   0.17644   0.00000  Uiso   1.00
C23    C     0.14228   0.02824   0.13114   0.00000  Uiso   1.00
C24    C     0.19105   0.30510   0.20219   0.00000  Uiso   1.00
C25    C     0.19080   0.02109   0.20232   0.00000  Uiso   1.00
C26    C     0.14253   0.31225   0.13102   0.00000  Uiso   1.00
N27    N     0.16667   0.28402   0.16667   0.00000  Uiso   1.00
N28    N     0.16667   0.04931   0.16667   0.00000  Uiso   1.00
N29    N     0.04414   0.10055   0.23009   0.00000  Uiso   1.00
H30    H     0.02315   0.09749   0.25498   0.00000  Uiso   1.00
C31    C     0.06843   0.05686   0.22570   0.00000  Uiso   1.00
H32    H     0.05296   0.03445   0.19910   0.00000  Uiso   1.00
H33    H     0.07278   0.03731   0.26138   0.00000  Uiso   1.00
H34    H     0.09986   0.06226   0.21671   0.00000  Uiso   1.00
N35    N     0.28921   0.23281   0.10327   0.00000  Uiso   1.00
H36    H     0.31020   0.23587   0.07839   0.00000  Uiso   1.00
C37    C     0.26489   0.27649   0.10764   0.00000  Uiso   1.00
H38    H     0.28043   0.29900   0.13408   0.00000  Uiso   1.00
H39    H     0.23352   0.27110   0.11685   0.00000  Uiso   1.00
H40    H     0.26039   0.29593   0.07187   0.00000  Uiso   1.00
N41    N     0.30236   0.07965   0.16630   0.00000  Uiso   1.00
H42    H     0.32153   0.05310   0.18405   0.00000  Uiso   1.00
C43    C     0.28646   0.06777   0.11744   0.00000  Uiso   1.00
H44    H     0.30989   0.04394   0.10231   0.00000  Uiso   1.00
H45    H     0.27877   0.09869   0.09235   0.00000  Uiso   1.00
H46    H     0.25769   0.05006   0.11901   0.00000  Uiso   1.00
N47    N     0.03099   0.25371   0.16708   0.00000  Uiso   1.00
H48    H     0.01180   0.28029   0.14941   0.00000  Uiso   1.00
C49    C     0.04705   0.26555   0.21591   0.00000  Uiso   1.00
H50    H     0.02375   0.28951   0.23109   0.00000  Uiso   1.00
H51    H     0.07590   0.28309   0.21425   0.00000  Uiso   1.00
H52    H     0.05465   0.23462   0.24101   0.00000  Uiso   1.00
C53    C     0.11553   0.05627   0.09114   0.00000  Uiso   1.00
C54    C     0.07480   0.07381   0.09688   0.00000  Uiso   1.00
C55    C     0.05077   0.10189   0.06054   0.00000  Uiso   1.00
C56    C     0.06619   0.11041   0.01655   0.00000  Uiso   1.00
C57    C     0.10432   0.08835   0.00787   0.00000  Uiso   1.00
C58    C     0.12873   0.06074   0.04473   0.00000  Uiso   1.00
H59    H     0.06176   0.06672   0.12977   0.00000  Uiso   1.00
H60    H     0.02040   0.11730   0.06669   0.00000  Uiso   1.00
H61    H     0.04838   0.13380   0.32255   0.00000  Uiso   1.00
H62    H     0.11532   0.09391   0.30632   0.00000  Uiso   1.00
H63    H     0.15854   0.04437   0.03812   0.00000  Uiso   1.00
C64    C     0.21782   0.27706   0.24217   0.00000  Uiso   1.00
C65    C     0.20464   0.27257   0.28859   0.00000  Uiso   1.00
C66    C     0.22906   0.24497   0.32543   0.00000  Uiso   1.00
C67    C     0.26721   0.22295   0.31674   0.00000  Uiso   1.00
C68    C     0.28261   0.23150   0.27274   0.00000  Uiso   1.00
C69    C     0.25856   0.25957   0.23641   0.00000  Uiso   1.00
H70    H     0.17482   0.28892   0.29521   0.00000  Uiso   1.00
H71    H     0.21807   0.23939   0.02699   0.00000  Uiso   1.00
H72    H     0.28504   0.19958   0.01074   0.00000  Uiso   1.00
H73    H     0.31299   0.21611   0.26658   0.00000  Uiso   1.00
H74    H     0.27158   0.26669   0.20351   0.00000  Uiso   1.00
C75    C     0.21928   0.04013   0.24102   0.00000  Uiso   1.00
C76    C     0.26207   0.03244   0.23907   0.00000  Uiso   1.00
C77    C     0.29066   0.04160   0.27856   0.00000  Uiso   1.00
C78    C     0.27658   0.05853   0.32090   0.00000  Uiso   1.00
C79    C     0.23399   0.06307   0.32491   0.00000  Uiso   1.00
C80    C     0.20565   0.05191   0.28577   0.00000  Uiso   1.00
H81    H     0.27285   0.01529   0.20822   0.00000  Uiso   1.00
H82    H     0.32361   0.03404   0.27694   0.00000  Uiso   1.00
H83    H     0.29884   0.06631   0.01765   0.00000  Uiso   1.00
H84    H     0.22310   0.07403   0.02532   0.00000  Uiso   1.00
H85    H     0.17312   0.05194   0.29004   0.00000  Uiso   1.00
C86    C     0.11405   0.29321   0.09231   0.00000  Uiso   1.00
C87    C     0.12768   0.28141   0.04757   0.00000  Uiso   1.00
C88    C     0.09935   0.27024   0.00843   0.00000  Uiso   1.00
C89    C     0.05675   0.27479   0.01244   0.00000  Uiso   1.00
C90    C     0.04267   0.29173   0.05477   0.00000  Uiso   1.00
C91    C     0.07125   0.30090   0.09425   0.00000  Uiso   1.00
H92    H     0.16022   0.28137   0.04330   0.00000  Uiso   1.00
H93    H     0.11024   0.25928   0.30803   0.00000  Uiso   1.00
H94    H     0.03449   0.26700   0.31569   0.00000  Uiso   1.00
H95    H     0.00972   0.29930   0.05638   0.00000  Uiso   1.00
H96    H     0.06048   0.31806   0.12510   0.00000  Uiso   1.00
O97    O     0.43988   0.20625   0.16666   0.00000  Uiso   1.00
O98    O     0.56012   0.12709   0.16667   0.00000  Uiso   1.00
O99    O     0.56012   0.20625   0.16667   0.00000  Uiso   1.00
O100   O     0.43988   0.12709   0.16666   0.00000  Uiso   1.00
C101   C     0.42116   0.16789   0.17123   0.00000  Uiso   1.00
C102   C     0.57884   0.16545   0.16211   0.00000  Uiso   1.00
O103   O     0.50000   0.20625   0.09613   0.00000  Uiso   1.00
O104   O     0.50000   0.12708   0.23720   0.00000  Uiso   1.00
O105   O     0.50000   0.20625   0.23720   0.00000  Uiso   1.00
O106   O     0.50000   0.12708   0.09613   0.00000  Uiso   1.00
C107   C     0.49981   0.16710   0.07360   0.00000  Uiso   1.00
C108   C     0.50019   0.16623   0.25973   0.00000  Uiso   1.00
Cu109  Cu    0.50000   0.21355   0.16667   0.00000  Uiso   1.00
Cu110  Cu    0.50000   0.11978   0.16667   0.00000  Uiso   1.00
C111   C     0.49996   0.16723   0.02178   0.00000  Uiso   1.00
C112   C     0.50005   0.16611   0.31156   0.00000  Uiso   1.00
C113   C     0.35913   0.12784   0.18769   0.00000  Uiso   1.00
C114   C     0.64088   0.20552   0.14569   0.00000  Uiso   1.00
C115   C     0.65037   0.12407   0.17117   0.00000  Uiso   1.00
C116   C     0.34964   0.20929   0.16221   0.00000  Uiso   1.00
C117   C     0.62373   0.16406   0.15692   0.00000  Uiso   1.00
C118   C     0.37628   0.16928   0.17644   0.00000  Uiso   1.00
C119   C     0.47561   0.02824   0.13114   0.00000  Uiso   1.00
C120   C     0.52439   0.30510   0.20219   0.00000  Uiso   1.00
C121   C     0.52413   0.02109   0.20232   0.00000  Uiso   1.00
C122   C     0.47587   0.31225   0.13102   0.00000  Uiso   1.00
N123   N     0.50000   0.28402   0.16667   0.00000  Uiso   1.00
N124   N     0.50000   0.04931   0.16667   0.00000  Uiso   1.00
N125   N     0.37747   0.10055   0.23009   0.00000  Uiso   1.00
H126   H     0.35648   0.09749   0.25498   0.00000  Uiso   1.00
C127   C     0.40176   0.05686   0.22570   0.00000  Uiso   1.00
H128   H     0.38629   0.03445   0.19910   0.00000  Uiso   1.00
H129   H     0.40611   0.03731   0.26138   0.00000  Uiso   1.00
H130   H     0.43320   0.06226   0.21671   0.00000  Uiso   1.00
N131   N     0.62254   0.23281   0.10327   0.00000  Uiso   1.00
H132   H     0.64354   0.23587   0.07839   0.00000  Uiso   1.00
C133   C     0.59823   0.27649   0.10764   0.00000  Uiso   1.00
H134   H     0.61376   0.29900   0.13408   0.00000  Uiso   1.00
H135   H     0.56686   0.27110   0.11685   0.00000  Uiso   1.00
H136   H     0.59372   0.29593   0.07187   0.00000  Uiso   1.00
N137   N     0.63569   0.07965   0.16630   0.00000  Uiso   1.00
H138   H     0.65486   0.05310   0.18405   0.00000  Uiso   1.00
C139   C     0.61979   0.06777   0.11744   0.00000  Uiso   1.00
H140   H     0.64323   0.04394   0.10231   0.00000  Uiso   1.00
H141   H     0.61210   0.09869   0.09235   0.00000  Uiso   1.00
H142   H     0.59103   0.05006   0.11901   0.00000  Uiso   1.00
N143   N     0.36432   0.25371   0.16708   0.00000  Uiso   1.00
H144   H     0.34514   0.28029   0.14941   0.00000  Uiso   1.00
C145   C     0.38038   0.26555   0.21591   0.00000  Uiso   1.00
H146   H     0.35708   0.28951   0.23109   0.00000  Uiso   1.00
H147   H     0.40923   0.28309   0.21425   0.00000  Uiso   1.00
H148   H     0.38798   0.23462   0.24101   0.00000  Uiso   1.00
C149   C     0.44886   0.05627   0.09114   0.00000  Uiso   1.00
C150   C     0.40813   0.07381   0.09688   0.00000  Uiso   1.00
C151   C     0.38410   0.10189   0.06054   0.00000  Uiso   1.00
C152   C     0.39952   0.11041   0.01655   0.00000  Uiso   1.00
C153   C     0.43766   0.08835   0.00787   0.00000  Uiso   1.00
C154   C     0.46206   0.06074   0.04473   0.00000  Uiso   1.00
H155   H     0.39509   0.06672   0.12977   0.00000  Uiso   1.00
H156   H     0.35373   0.11730   0.06669   0.00000  Uiso   1.00
H157   H     0.38171   0.13380   0.32255   0.00000  Uiso   1.00
H158   H     0.44865   0.09391   0.30632   0.00000  Uiso   1.00
H159   H     0.49187   0.04437   0.03812   0.00000  Uiso   1.00
C160   C     0.55116   0.27706   0.24217   0.00000  Uiso   1.00
C161   C     0.53797   0.27257   0.28859   0.00000  Uiso   1.00
C162   C     0.56239   0.24497   0.32543   0.00000  Uiso   1.00
C163   C     0.60055   0.22295   0.31674   0.00000  Uiso   1.00
C164   C     0.61594   0.23150   0.27274   0.00000  Uiso   1.00
C165   C     0.59189   0.25957   0.23641   0.00000  Uiso   1.00
H166   H     0.50815   0.28892   0.29521   0.00000  Uiso   1.00
H167   H     0.55141   0.23939   0.02699   0.00000  Uiso   1.00
H168   H     0.61837   0.19958   0.01074   0.00000  Uiso   1.00
H169   H     0.64632   0.21611   0.26658   0.00000  Uiso   1.00
H170   H     0.60491   0.26669   0.20351   0.00000  Uiso   1.00
C171   C     0.55261   0.04013   0.24102   0.00000  Uiso   1.00
C172   C     0.59541   0.03244   0.23907   0.00000  Uiso   1.00
C173   C     0.62399   0.04160   0.27856   0.00000  Uiso   1.00
C174   C     0.60991   0.05853   0.32090   0.00000  Uiso   1.00
C175   C     0.56732   0.06307   0.32491   0.00000  Uiso   1.00
C176   C     0.53898   0.05191   0.28577   0.00000  Uiso   1.00
H177   H     0.60618   0.01529   0.20822   0.00000  Uiso   1.00
H178   H     0.65694   0.03404   0.27694   0.00000  Uiso   1.00
H179   H     0.63218   0.06631   0.01765   0.00000  Uiso   1.00
H180   H     0.55643   0.07403   0.02532   0.00000  Uiso   1.00
H181   H     0.50646   0.05194   0.29004   0.00000  Uiso   1.00
C182   C     0.44739   0.29321   0.09231   0.00000  Uiso   1.00
C183   C     0.46102   0.28141   0.04757   0.00000  Uiso   1.00
C184   C     0.43268   0.27024   0.00843   0.00000  Uiso   1.00
C185   C     0.39009   0.27479   0.01244   0.00000  Uiso   1.00
C186   C     0.37600   0.29173   0.05477   0.00000  Uiso   1.00
C187   C     0.40459   0.30090   0.09425   0.00000  Uiso   1.00
H188   H     0.49355   0.28137   0.04330   0.00000  Uiso   1.00
H189   H     0.44357   0.25928   0.30803   0.00000  Uiso   1.00
H190   H     0.36782   0.26700   0.31569   0.00000  Uiso   1.00
H191   H     0.34305   0.29930   0.05638   0.00000  Uiso   1.00
H192   H     0.39381   0.31806   0.12510   0.00000  Uiso   1.00
O193   O     0.77321   0.20625   0.16666   0.00000  Uiso   1.00
O194   O     0.89345   0.12709   0.16667   0.00000  Uiso   1.00
O195   O     0.89345   0.20625   0.16667   0.00000  Uiso   1.00
O196   O     0.77321   0.12709   0.16666   0.00000  Uiso   1.00
C197   C     0.75450   0.16789   0.17123   0.00000  Uiso   1.00
C198   C     0.91217   0.16545   0.16211   0.00000  Uiso   1.00
O199   O     0.83333   0.20625   0.09613   0.00000  Uiso   1.00
O200   O     0.83333   0.12708   0.23720   0.00000  Uiso   1.00
O201   O     0.83333   0.20625   0.23720   0.00000  Uiso   1.00
O202   O     0.83333   0.12708   0.09613   0.00000  Uiso   1.00
C203   C     0.83315   0.16710   0.07360   0.00000  Uiso   1.00
C204   C     0.83352   0.16623   0.25973   0.00000  Uiso   1.00
Cu205  Cu    0.83333   0.21355   0.16667   0.00000  Uiso   1.00
Cu206  Cu    0.83333   0.11978   0.16667   0.00000  Uiso   1.00
C207   C     0.83329   0.16723   0.02178   0.00000  Uiso   1.00
C208   C     0.83338   0.16611   0.31156   0.00000  Uiso   1.00
C209   C     0.69246   0.12784   0.18769   0.00000  Uiso   1.00
C210   C     0.97421   0.20552   0.14569   0.00000  Uiso   1.00
C211   C     0.98370   0.12407   0.17117   0.00000  Uiso   1.00
C212   C     0.68297   0.20929   0.16221   0.00000  Uiso   1.00
C213   C     0.95706   0.16406   0.15692   0.00000  Uiso   1.00
C214   C     0.70961   0.16928   0.17644   0.00000  Uiso   1.00
C215   C     0.80895   0.02824   0.13114   0.00000  Uiso   1.00
C216   C     0.85772   0.30510   0.20219   0.00000  Uiso   1.00
C217   C     0.85746   0.02109   0.20232   0.00000  Uiso   1.00
C218   C     0.80920   0.31225   0.13102   0.00000  Uiso   1.00
N219   N     0.83333   0.28402   0.16667   0.00000  Uiso   1.00
N220   N     0.83333   0.04931   0.16667   0.00000  Uiso   1.00
N221   N     0.71080   0.10055   0.23009   0.00000  Uiso   1.00
H222   H     0.68981   0.09749   0.25498   0.00000  Uiso   1.00
C223   C     0.73510   0.05686   0.22570   0.00000  Uiso   1.00
H224   H     0.71963   0.03445   0.19910   0.00000  Uiso   1.00
H225   H     0.73945   0.03731   0.26138   0.00000  Uiso   1.00
H226   H     0.76653   0.06226   0.21671   0.00000  Uiso   1.00
N227   N     0.95587   0.23281   0.10327   0.00000  Uiso   1.00
H228   H     0.97687   0.23587   0.07839   0.00000  Uiso   1.00
C229   C     0.93156   0.27649   0.10764   0.00000  Uiso   1.00
H230   H     0.94710   0.29900   0.13408   0.00000  Uiso   1.00
H231   H     0.90019   0.27110   0.11685   0.00000  Uiso   1.00
H232   H     0.92705   0.29593   0.07187   0.00000  Uiso   1.00
N233   N     0.96903   0.07965   0.16630   0.00000  Uiso   1.00
H234   H     0.98820   0.05310   0.18405   0.00000  Uiso   1.00
C235   C     0.95313   0.06777   0.11744   0.00000  Uiso   1.00
H236   H     0.97656   0.04394   0.10231   0.00000  Uiso   1.00
H237   H     0.94543   0.09869   0.09235   0.00000  Uiso   1.00
H238   H     0.92436   0.05006   0.11901   0.00000  Uiso   1.00
N239   N     0.69765   0.25371   0.16708   0.00000  Uiso   1.00
H240   H     0.67847   0.28029   0.14941   0.00000  Uiso   1.00
C241   C     0.71372   0.26555   0.21591   0.00000  Uiso   1.00
H242   H     0.69042   0.28951   0.23109   0.00000  Uiso   1.00
H243   H     0.74256   0.28309   0.21425   0.00000  Uiso   1.00
H244   H     0.72132   0.23462   0.24101   0.00000  Uiso   1.00
C245   C     0.78219   0.05627   0.09114   0.00000  Uiso   1.00
C246   C     0.74147   0.07381   0.09688   0.00000  Uiso   1.00
C247   C     0.71744   0.10189   0.06054   0.00000  Uiso   1.00
C248   C     0.73285   0.11041   0.01655   0.00000  Uiso   1.00
C249   C     0.77099   0.08835   0.00787   0.00000  Uiso   1.00
C250   C     0.79539   0.06074   0.04473   0.00000  Uiso   1.00
H251   H     0.72842   0.06672   0.12977   0.00000  Uiso   1.00
H252   H     0.68707   0.11730   0.06669   0.00000  Uiso   1.00
H253   H     0.71505   0.13380   0.32255   0.00000  Uiso   1.00
H254   H     0.78198   0.09391   0.30632   0.00000  Uiso   1.00
H255   H     0.82521   0.04437   0.03812   0.00000  Uiso   1.00
C256   C     0.88449   0.27706   0.24217   0.00000  Uiso   1.00
C257   C     0.87130   0.27257   0.28859   0.00000  Uiso   1.00
C258   C     0.89573   0.24497   0.32543   0.00000  Uiso   1.00
C259   C     0.93388   0.22295   0.31674   0.00000  Uiso   1.00
C260   C     0.94928   0.23150   0.27274   0.00000  Uiso   1.00
C261   C     0.92522   0.25957   0.23641   0.00000  Uiso   1.00
H262   H     0.84148   0.28892   0.29521   0.00000  Uiso   1.00
H263   H     0.88474   0.23939   0.02699   0.00000  Uiso   1.00
H264   H     0.95171   0.19958   0.01074   0.00000  Uiso   1.00
H265   H     0.97965   0.21611   0.26658   0.00000  Uiso   1.00
H266   H     0.93825   0.26669   0.20351   0.00000  Uiso   1.00
C267   C     0.88594   0.04013   0.24102   0.00000  Uiso   1.00
C268   C     0.92874   0.03244   0.23907   0.00000  Uiso   1.00
C269   C     0.95733   0.04160   0.27856   0.00000  Uiso   1.00
C270   C     0.94325   0.05853   0.32090   0.00000  Uiso   1.00
C271   C     0.90066   0.06307   0.32491   0.00000  Uiso   1.00
C272   C     0.87232   0.05191   0.28577   0.00000  Uiso   1.00
H273   H     0.93951   0.01529   0.20822   0.00000  Uiso   1.00
H274   H     0.99028   0.03404   0.27694   0.00000  Uiso   1.00
H275   H     0.96551   0.06631   0.01765   0.00000  Uiso   1.00
H276   H     0.88976   0.07403   0.02532   0.00000  Uiso   1.00
H277   H     0.83979   0.05194   0.29004   0.00000  Uiso   1.00
C278   C     0.78072   0.29321   0.09231   0.00000  Uiso   1.00
C279   C     0.79435   0.28141   0.04757   0.00000  Uiso   1.00
C280   C     0.76601   0.27024   0.00843   0.00000  Uiso   1.00
C281   C     0.72342   0.27479   0.01244   0.00000  Uiso   1.00
C282   C     0.70934   0.29173   0.05477   0.00000  Uiso   1.00
C283   C     0.73792   0.30090   0.09425   0.00000  Uiso   1.00
H284   H     0.82688   0.28137   0.04330   0.00000  Uiso   1.00
H285   H     0.77691   0.25928   0.30803   0.00000  Uiso   1.00
H286   H     0.70116   0.26700   0.31569   0.00000  Uiso   1.00
H287   H     0.67639   0.29930   0.05638   0.00000  Uiso   1.00
H288   H     0.72714   0.31806   0.12510   0.00000  Uiso   1.00
O289   O     0.10655   0.53958   0.16666   0.00000  Uiso   1.00
O290   O     0.22679   0.46042   0.16667   0.00000  Uiso   1.00
O291   O     0.22679   0.53958   0.16667   0.00000  Uiso   1.00
O292   O     0.10655   0.46042   0.16666   0.00000  Uiso   1.00
C293   C     0.08783   0.50122   0.17123   0.00000  Uiso   1.00
C294   C     0.24551   0.49878   0.16211   0.00000  Uiso   1.00
O295   O     0.16667   0.53959   0.09613   0.00000  Uiso   1.00
O296   O     0.16667   0.46041   0.23720   0.00000  Uiso   1.00
O297   O     0.16667   0.53959   0.23720   0.00000  Uiso   1.00
O298   O     0.16667   0.46041   0.09613   0.00000  Uiso   1.00
C299   C     0.16648   0.50043   0.07360   0.00000  Uiso   1.00
C300   C     0.16686   0.49957   0.25973   0.00000  Uiso   1.00
Cu301  Cu    0.16667   0.54689   0.16667   0.00000  Uiso   1.00
Cu302  Cu    0.16667   0.45311   0.16667   0.00000  Uiso   1.00
C303   C     0.16662   0.50056   0.02178   0.00000  Uiso   1.00
C304   C     0.16671   0.49944   0.31156   0.00000  Uiso   1.00
C305   C     0.02580   0.46117   0.18769   0.00000  Uiso   1.00
C306   C     0.30754   0.53885   0.14569   0.00000  Uiso   1.00
C307   C     0.31703   0.45740   0.17117   0.00000  Uiso   1.00
C308   C     0.01631   0.54262   0.16221   0.00000  Uiso   1.00
C309   C     0.29040   0.49740   0.15692   0.00000  Uiso   1.00
C310   C     0.04294   0.50262   0.17644   0.00000  Uiso   1.00
C311   C     0.14228   0.36157   0.13114   0.00000  Uiso   1.00
C312   C     0.19105   0.63843   0.20219   0.00000  Uiso   1.00
C313   C     0.19080   0.35442   0.20232   0.00000  Uiso   1.00
C314   C     0.14253   0.64558   0.13102   0.00000  Uiso   1.00
N315   N     0.16667   0.61736   0.16667   0.00000  Uiso   1.00
N316   N     0.16667   0.38264   0.16667   0.00000  Uiso   1.00
N317   N     0.04414   0.43388   0.23009   0.00000  Uiso   1.00
H318   H     0.02315   0.43082   0.25498   0.00000  Uiso   1.00
C319   C     0.06843   0.39019   0.22570   0.00000  Uiso   1.00
H320   H     0.05296   0.36779   0.19910   0.00000  Uiso   1.00
H321   H     0.07278   0.37064   0.26138   0.00000  Uiso   1.00
H322   H     0.09986   0.39559   0.21671   0.00000  Uiso   1.00
N323   N     0.28921   0.56614   0.10327   0.00000  Uiso   1.00
H324   H     0.31020   0.56920   0.07839   0.00000  Uiso   1.00
C325   C     0.26489   0.60982   0.10764   0.00000  Uiso   1.00
H326   H     0.28043   0.63234   0.13408   0.00000  Uiso   1.00
H327   H     0.23352   0.60444   0.11685   0.00000  Uiso   1.00
H328   H     0.26039   0.62927   0.07187   0.00000  Uiso   1.00
N329   N     0.30236   0.41299   0.16630   0.00000  Uiso   1.00
H330   H     0.32153   0.38644   0.18405   0.00000  Uiso   1.00
C331   C     0.28646   0.40110   0.11744   0.00000  Uiso   1.00
H332   H     0.30989   0.37728   0.10231   0.00000  Uiso   1.00
H333   H     0.27877   0.43202   0.09235   0.00000  Uiso   1.00
H334   H     0.25769   0.38340   0.11901   0.00000  Uiso   1.00
N335   N     0.03099   0.58704   0.16708   0.00000  Uiso   1.00
H336   H     0.01180   0.61362   0.14941   0.00000  Uiso   1.00
C337   C     0.04705   0.59888   0.21591   0.00000  Uiso   1.00
H338   H     0.02375   0.62285   0.23109   0.00000  Uiso   1.00
H339   H     0.07590   0.61643   0.21425   0.00000  Uiso   1.00
H340   H     0.05465   0.56795   0.24101   0.00000  Uiso   1.00
C341   C     0.11553   0.38960   0.09114   0.00000  Uiso   1.00
C342   C     0.07480   0.40714   0.09688   0.00000  Uiso   1.00
C343   C     0.05077   0.43522   0.06054   0.00000  Uiso   1.00
C344   C     0.06619   0.44374   0.01655   0.00000  Uiso   1.00
C345   C     0.10432   0.42168   0.00787   0.00000  Uiso   1.00
C346   C     0.12873   0.39407   0.04473   0.00000  Uiso   1.00
H347   H     0.06176   0.40005   0.12977   0.00000  Uiso   1.00
H348   H     0.02040   0.45063   0.06669   0.00000  Uiso   1.00
H349   H     0.04838   0.46713   0.32255   0.00000  Uiso   1.00
H350   H     0.11532   0.42725   0.30632   0.00000  Uiso   1.00
H351   H     0.15854   0.37770   0.03812   0.00000  Uiso   1.00
C352   C     0.21782   0.61040   0.24217   0.00000  Uiso   1.00
C353   C     0.20464   0.60591   0.28859   0.00000  Uiso   1.00
C354   C     0.22906   0.57830   0.32543   0.00000  Uiso   1.00
C355   C     0.26721   0.55629   0.31674   0.00000  Uiso   1.00
C356   C     0.28261   0.56483   0.27274   0.00000  Uiso   1.00
C357   C     0.25856   0.59290   0.23641   0.00000  Uiso   1.00
H358   H     0.17482   0.62225   0.29521   0.00000  Uiso   1.00
H359   H     0.21807   0.57272   0.02699   0.00000  Uiso   1.00
H360   H     0.28504   0.53291   0.01074   0.00000  Uiso   1.00
H361   H     0.31299   0.54945   0.26658   0.00000  Uiso   1.00
H362   H     0.27158   0.60002   0.20351   0.00000  Uiso   1.00
C363   C     0.21928   0.37346   0.24102   0.00000  Uiso   1.00
C364   C     0.26207   0.36577   0.23907   0.00000  Uiso   1.00
C365   C     0.29066   0.37493   0.27856   0.00000  Uiso   1.00
C366   C     0.27658   0.39187   0.32090   0.00000  Uiso   1.00
C367   C     0.23399   0.39641   0.32491   0.00000  Uiso   1.00
C368   C     0.20565   0.38525   0.28577   0.00000  Uiso   1.00
H369   H     0.27285   0.34862   0.20822   0.00000  Uiso   1.00
H370   H     0.32361   0.36737   0.27694   0.00000  Uiso   1.00
H371   H     0.29884   0.39964   0.01765   0.00000  Uiso   1.00
H372   H     0.22310   0.40736   0.02532   0.00000  Uiso   1.00
H373   H     0.17312   0.38528   0.29004   0.00000  Uiso   1.00
C374   C     0.11405   0.62654   0.09231   0.00000  Uiso   1.00
C375   C     0.12768   0.61474   0.04757   0.00000  Uiso   1.00
C376   C     0.09935   0.60358   0.00843   0.00000  Uiso   1.00
C377   C     0.05675   0.60812   0.01244   0.00000  Uiso   1.00
C378   C     0.04267   0.62506   0.05477   0.00000  Uiso   1.00
C379   C     0.07125   0.63424   0.09425   0.00000  Uiso   1.00
H380   H     0.16022   0.61470   0.04330   0.00000  Uiso   1.00
H381   H     0.11024   0.59261   0.30803   0.00000  Uiso   1.00
H382   H     0.03449   0.60034   0.31569   0.00000  Uiso   1.00
H383   H     0.00972   0.63263   0.05638   0.00000  Uiso   1.00
H384   H     0.06048   0.65140   0.12510   0.00000  Uiso   1.00
O385   O     0.43988   0.53958   0.16666   0.00000  Uiso   1.00
O386   O     0.56012   0.46042   0.16667   0.00000  Uiso   1.00
O387   O     0.56012   0.53958   0.16667   0.00000  Uiso   1.00
O388   O     0.43988   0.46042   0.16666   0.00000  Uiso   1.00
C389   C     0.42116   0.50122   0.17123   0.00000  Uiso   1.00
C390   C     0.57884   0.49878   0.16211   0.00000  Uiso   1.00
O391   O     0.50000   0.53959   0.09613   0.00000  Uiso   1.00
O392   O     0.50000   0.46041   0.23720   0.00000  Uiso   1.00
O393   O     0.50000   0.53959   0.23720   0.00000  Uiso   1.00
O394   O     0.50000   0.46041   0.09613   0.00000  Uiso   1.00
C395   C     0.49981   0.50043   0.07360   0.00000  Uiso   1.00
C396   C     0.50019   0.49957   0.25973   0.00000  Uiso   1.00
Cu397  Cu    0.50000   0.54689   0.16667   0.00000  Uiso   1.00
Cu398  Cu    0.50000   0.45311   0.16667   0.00000  Uiso   1.00
C399   C     0.49996   0.50056   0.02178   0.00000  Uiso   1.00
C400   C     0.50005   0.49944   0.31156   0.00000  Uiso   1.00
C401   C     0.35913   0.46117   0.18769   0.00000  Uiso   1.00
C402   C     0.64088   0.53885   0.14569   0.00000  Uiso   1.00
C403   C     0.65037   0.45740   0.17117   0.00000  Uiso   1.00
C404   C     0.34964   0.54262   0.16221   0.00000  Uiso   1.00
C405   C     0.62373   0.49740   0.15692   0.00000  Uiso   1.00
C406   C     0.37628   0.50262   0.17644   0.00000  Uiso   1.00
C407   C     0.47561   0.36157   0.13114   0.00000  Uiso   1.00
C408   C     0.52439   0.63843   0.20219   0.00000  Uiso   1.00
C409   C     0.52413   0.35442   0.20232   0.00000  Uiso   1.00
C410   C     0.47587   0.64558   0.13102   0.00000  Uiso   1.00
N411   N     0.50000   0.61736   0.16667   0.00000  Uiso   1.00
N412   N     0.50000   0.38264   0.16667   0.00000  Uiso   1.00
N413   N     0.37747   0.43388   0.23009   0.00000  Uiso   1.00
H414   H     0.35648   0.43082   0.25498   0.00000  Uiso   1.00
C415   C     0.40176   0.39019   0.22570   0.00000  Uiso   1.00
H416   H     0.38629   0.36779   0.19910   0.00000  Uiso   1.00
H417   H     0.40611   0.37064   0.26138   0.00000  Uiso   1.00
H418   H     0.43320   0.39559   0.21671   0.00000  Uiso   1.00
N419   N     0.62254   0.56614   0.10327   0.00000  Uiso   1.00
H420   H     0.64354   0.56920   0.07839   0.00000  Uiso   1.00
C421   C     0.59823   0.60982   0.10764   0.00000  Uiso   1.00
H422   H     0.61376   0.63234   0.13408   0.00000  Uiso   1.00
H423   H     0.56686   0.60444   0.11685   0.00000  Uiso   1.00
H424   H     0.59372   0.62927   0.07187   0.00000  Uiso   1.00
N425   N     0.63569   0.41299   0.16630   0.00000  Uiso   1.00
H426   H     0.65486   0.38644   0.18405   0.00000  Uiso   1.00
C427   C     0.61979   0.40110   0.11744   0.00000  Uiso   1.00
H428   H     0.64323   0.37728   0.10231   0.00000  Uiso   1.00
H429   H     0.61210   0.43202   0.09235   0.00000  Uiso   1.00
H430   H     0.59103   0.38340   0.11901   0.00000  Uiso   1.00
N431   N     0.36432   0.58704   0.16708   0.00000  Uiso   1.00
H432   H     0.34514   0.61362   0.14941   0.00000  Uiso   1.00
C433   C     0.38038   0.59888   0.21591   0.00000  Uiso   1.00
H434   H     0.35708   0.62285   0.23109   0.00000  Uiso   1.00
H435   H     0.40923   0.61643   0.21425   0.00000  Uiso   1.00
H436   H     0.38798   0.56795   0.24101   0.00000  Uiso   1.00
C437   C     0.44886   0.38960   0.09114   0.00000  Uiso   1.00
C438   C     0.40813   0.40714   0.09688   0.00000  Uiso   1.00
C439   C     0.38410   0.43522   0.06054   0.00000  Uiso   1.00
C440   C     0.39952   0.44374   0.01655   0.00000  Uiso   1.00
C441   C     0.43766   0.42168   0.00787   0.00000  Uiso   1.00
C442   C     0.46206   0.39407   0.04473   0.00000  Uiso   1.00
H443   H     0.39509   0.40005   0.12977   0.00000  Uiso   1.00
H444   H     0.35373   0.45063   0.06669   0.00000  Uiso   1.00
H445   H     0.38171   0.46713   0.32255   0.00000  Uiso   1.00
H446   H     0.44865   0.42725   0.30632   0.00000  Uiso   1.00
H447   H     0.49187   0.37770   0.03812   0.00000  Uiso   1.00
C448   C     0.55116   0.61040   0.24217   0.00000  Uiso   1.00
C449   C     0.53797   0.60591   0.28859   0.00000  Uiso   1.00
C450   C     0.56239   0.57830   0.32543   0.00000  Uiso   1.00
C451   C     0.60055   0.55629   0.31674   0.00000  Uiso   1.00
C452   C     0.61594   0.56483   0.27274   0.00000  Uiso   1.00
C453   C     0.59189   0.59290   0.23641   0.00000  Uiso   1.00
H454   H     0.50815   0.62225   0.29521   0.00000  Uiso   1.00
H455   H     0.55141   0.57272   0.02699   0.00000  Uiso   1.00
H456   H     0.61837   0.53291   0.01074   0.00000  Uiso   1.00
H457   H     0.64632   0.54945   0.26658   0.00000  Uiso   1.00
H458   H     0.60491   0.60002   0.20351   0.00000  Uiso   1.00
C459   C     0.55261   0.37346   0.24102   0.00000  Uiso   1.00
C460   C     0.59541   0.36577   0.23907   0.00000  Uiso   1.00
C461   C     0.62399   0.37493   0.27856   0.00000  Uiso   1.00
C462   C     0.60991   0.39187   0.32090   0.00000  Uiso   1.00
C463   C     0.56732   0.39641   0.32491   0.00000  Uiso   1.00
C464   C     0.53898   0.38525   0.28577   0.00000  Uiso   1.00
H465   H     0.60618   0.34862   0.20822   0.00000  Uiso   1.00
H466   H     0.65694   0.36737   0.27694   0.00000  Uiso   1.00
H467   H     0.63218   0.39964   0.01765   0.00000  Uiso   1.00
H468   H     0.55643   0.40736   0.02532   0.00000  Uiso   1.00
H469   H     0.50646   0.38528   0.29004   0.00000  Uiso   1.00
C470   C     0.44739   0.62654   0.09231   0.00000  Uiso   1.00
C471   C     0.46102   0.61474   0.04757   0.00000  Uiso   1.00
C472   C     0.43268   0.60358   0.00843   0.00000  Uiso   1.00
C473   C     0.39009   0.60812   0.01244   0.00000  Uiso   1.00
C474   C     0.37600   0.62506   0.05477   0.00000  Uiso   1.00
C475   C     0.40459   0.63424   0.09425   0.00000  Uiso   1.00
H476   H     0.49355   0.61470   0.04330   0.00000  Uiso   1.00
H477   H     0.44357   0.59261   0.30803   0.00000  Uiso   1.00
H478   H     0.36782   0.60034   0.31569   0.00000  Uiso   1.00
H479   H     0.34305   0.63263   0.05638   0.00000  Uiso   1.00
H480   H     0.39381   0.65140   0.12510   0.00000  Uiso   1.00
O481   O     0.77321   0.53958   0.16666   0.00000  Uiso   1.00
O482   O     0.89345   0.46042   0.16667   0.00000  Uiso   1.00
O483   O     0.89345   0.53958   0.16667   0.00000  Uiso   1.00
O484   O     0.77321   0.46042   0.16666   0.00000  Uiso   1.00
C485   C     0.75450   0.50122   0.17123   0.00000  Uiso   1.00
C486   C     0.91217   0.49878   0.16211   0.00000  Uiso   1.00
O487   O     0.83333   0.53959   0.09613   0.00000  Uiso   1.00
O488   O     0.83333   0.46041   0.23720   0.00000  Uiso   1.00
O489   O     0.83333   0.53959   0.23720   0.00000  Uiso   1.00
O490   O     0.83333   0.46041   0.09613   0.00000  Uiso   1.00
C491   C     0.83315   0.50043   0.07360   0.00000  Uiso   1.00
C492   C     0.83352   0.49957   0.25973   0.00000  Uiso   1.00
Cu493  Cu    0.83333   0.54689   0.16667   0.00000  Uiso   1.00
Cu494  Cu    0.83333   0.45311   0.16667   0.00000  Uiso   1.00
C495   C     0.83329   0.50056   0.02178   0.00000  Uiso   1.00
C496   C     0.83338   0.49944   0.31156   0.00000  Uiso   1.00
C497   C     0.69246   0.46117   0.18769   0.00000  Uiso   1.00
C498   C     0.97421   0.53885   0.14569   0.00000  Uiso   1.00
C499   C     0.98370   0.45740   0.17117   0.00000  Uiso   1.00
C500   C     0.68297   0.54262   0.16221   0.00000  Uiso   1.00
C501   C     0.95706   0.49740   0.15692   0.00000  Uiso   1.00
C502   C     0.70961   0.50262   0.17644   0.00000  Uiso   1.00
C503   C     0.80895   0.36157   0.13114   0.00000  Uiso   1.00
C504   C     0.85772   0.63843   0.20219   0.00000  Uiso   1.00
C505   C     0.85746   0.35442   0.20232   0.00000  Uiso   1.00
C506   C     0.80920   0.64558   0.13102   0.00000  Uiso   1.00
N507   N     0.83333   0.61736   0.16667   0.00000  Uiso   1.00
N508   N     0.83333   0.38264   0.16667   0.00000  Uiso   1.00
N509   N     0.71080   0.43388   0.23009   0.00000  Uiso   1.00
H510   H     0.68981   0.43082   0.25498   0.00000  Uiso   1.00
C511   C     0.73510   0.39019   0.22570   0.00000  Uiso   1.00
H512   H     0.71963   0.36779   0.19910   0.00000  Uiso   1.00
H513   H     0.73945   0.37064   0.26138   0.00000  Uiso   1.00
H514   H     0.76653   0.39559   0.21671   0.00000  Uiso   1.00
N515   N     0.95587   0.56614   0.10327   0.00000  Uiso   1.00
H516   H     0.97687   0.56920   0.07839   0.00000  Uiso   1.00
C517   C     0.93156   0.60982   0.10764   0.00000  Uiso   1.00
H518   H     0.94710   0.63234   0.13408   0.00000  Uiso   1.00
H519   H     0.90019   0.60444   0.11685   0.00000  Uiso   1.00
H520   H     0.92705   0.62927   0.07187   0.00000  Uiso   1.00
N521   N     0.96903   0.41299   0.16630   0.00000  Uiso   1.00
H522   H     0.98820   0.38644   0.18405   0.00000  Uiso   1.00
C523   C     0.95313   0.40110   0.11744   0.00000  Uiso   1.00
H524   H     0.97656   0.37728   0.10231   0.00000  Uiso   1.00
H525   H     0.94543   0.43202   0.09235   0.00000  Uiso   1.00
H526   H     0.92436   0.38340   0.11901   0.00000  Uiso   1.00
N527   N     0.69765   0.58704   0.16708   0.00000  Uiso   1.00
H528   H     0.67847   0.61362   0.14941   0.00000  Uiso   1.00
C529   C     0.71372   0.59888   0.21591   0.00000  Uiso   1.00
H530   H     0.69042   0.62285   0.23109   0.00000  Uiso   1.00
H531   H     0.74256   0.61643   0.21425   0.00000  Uiso   1.00
H532   H     0.72132   0.56795   0.24101   0.00000  Uiso   1.00
C533   C     0.78219   0.38960   0.09114   0.00000  Uiso   1.00
C534   C     0.74147   0.40714   0.09688   0.00000  Uiso   1.00
C535   C     0.71744   0.43522   0.06054   0.00000  Uiso   1.00
C536   C     0.73285   0.44374   0.01655   0.00000  Uiso   1.00
C537   C     0.77099   0.42168   0.00787   0.00000  Uiso   1.00
C538   C     0.79539   0.39407   0.04473   0.00000  Uiso   1.00
H539   H     0.72842   0.40005   0.12977   0.00000  Uiso   1.00
H540   H     0.68707   0.45063   0.06669   0.00000  Uiso   1.00
H541   H     0.71505   0.46713   0.32255   0.00000  Uiso   1.00
H542   H     0.78198   0.42725   0.30632   0.00000  Uiso   1.00
H543   H     0.82521   0.37770   0.03812   0.00000  Uiso   1.00
C544   C     0.88449   0.61040   0.24217   0.00000  Uiso   1.00
C545   C     0.87130   0.60591   0.28859   0.00000  Uiso   1.00
C546   C     0.89573   0.57830   0.32543   0.00000  Uiso   1.00
C547   C     0.93388   0.55629   0.31674   0.00000  Uiso   1.00
C548   C     0.94928   0.56483   0.27274   0.00000  Uiso   1.00
C549   C     0.92522   0.59290   0.23641   0.00000  Uiso   1.00
H550   H     0.84148   0.62225   0.29521   0.00000  Uiso   1.00
H551   H     0.88474   0.57272   0.02699   0.00000  Uiso   1.00
H552   H     0.95171   0.53291   0.01074   0.00000  Uiso   1.00
H553   H     0.97965   0.54945   0.26658   0.00000  Uiso   1.00
H554   H     0.93825   0.60002   0.20351   0.00000  Uiso   1.00
C555   C     0.88594   0.37346   0.24102   0.00000  Uiso   1.00
C556   C     0.92874   0.36577   0.23907   0.00000  Uiso   1.00
C557   C     0.95733   0.37493   0.27856   0.00000  Uiso   1.00
C558   C     0.94325   0.39187   0.32090   0.00000  Uiso   1.00
C559   C     0.90066   0.39641   0.32491   0.00000  Uiso   1.00
C560   C     0.87232   0.38525   0.28577   0.00000  Uiso   1.00
H561   H     0.93951   0.34862   0.20822   0.00000  Uiso   1.00
H562   H     0.99028   0.36737   0.27694   0.00000  Uiso   1.00
H563   H     0.96551   0.39964   0.01765   0.00000  Uiso   1.00
H564   H     0.88976   0.40736   0.02532   0.00000  Uiso   1.00
H565   H     0.83979   0.38528   0.29004   0.00000  Uiso   1.00
C566   C     0.78072   0.62654   0.09231   0.00000  Uiso   1.00
C567   C     0.79435   0.61474   0.04757   0.00000  Uiso   1.00
C568   C     0.76601   0.60358   0.00843   0.00000  Uiso   1.00
C569   C     0.72342   0.60812   0.01244   0.00000  Uiso   1.00
C570   C     0.70934   0.62506   0.05477   0.00000  Uiso   1.00
C571   C     0.73792   0.63424   0.09425   0.00000  Uiso   1.00
H572   H     0.82688   0.61470   0.04330   0.00000  Uiso   1.00
H573   H     0.77691   0.59261   0.30803   0.00000  Uiso   1.00
H574   H     0.70116   0.60034   0.31569   0.00000  Uiso   1.00
H575   H     0.67639   0.63263   0.05638   0.00000  Uiso   1.00
H576   H     0.72714   0.65140   0.12510   0.00000  Uiso   1.00
O577   O     0.10655   0.87291   0.16666   0.00000  Uiso   1.00
O578   O     0.22679   0.79375   0.16667   0.00000  Uiso   1.00
O579   O     0.22679   0.87291   0.16667   0.00000  Uiso   1.00
O580   O     0.10655   0.79375   0.16666   0.00000  Uiso   1.00
C581   C     0.08783   0.83455   0.17123   0.00000  Uiso   1.00
C582   C     0.24551   0.83211   0.16211   0.00000  Uiso   1.00
O583   O     0.16667   0.87292   0.09613   0.00000  Uiso   1.00
O584   O     0.16667   0.79375   0.23720   0.00000  Uiso   1.00
O585   O     0.16667   0.87292   0.23720   0.00000  Uiso   1.00
O586   O     0.16667   0.79375   0.09613   0.00000  Uiso   1.00
C587   C     0.16648   0.83377   0.07360   0.00000  Uiso   1.00
C588   C     0.16686   0.83290   0.25973   0.00000  Uiso   1.00
Cu589  Cu    0.16667   0.88022   0.16667   0.00000  Uiso   1.00
Cu590  Cu    0.16667   0.78645   0.16667   0.00000  Uiso   1.00
C591   C     0.16662   0.83389   0.02178   0.00000  Uiso   1.00
C592   C     0.16671   0.83278   0.31156   0.00000  Uiso   1.00
C593   C     0.02580   0.79450   0.18769   0.00000  Uiso   1.00
C594   C     0.30754   0.87219   0.14569   0.00000  Uiso   1.00
C595   C     0.31703   0.79073   0.17117   0.00000  Uiso   1.00
C596   C     0.01631   0.87596   0.16221   0.00000  Uiso   1.00
C597   C     0.29040   0.83073   0.15692   0.00000  Uiso   1.00
C598   C     0.04294   0.83595   0.17644   0.00000  Uiso   1.00
C599   C     0.14228   0.69490   0.13114   0.00000  Uiso   1.00
C600   C     0.19105   0.97176   0.20219   0.00000  Uiso   1.00
C601   C     0.19080   0.68775   0.20232   0.00000  Uiso   1.00
C602   C     0.14253   0.97891   0.13102   0.00000  Uiso   1.00
N603   N     0.16667   0.95069   0.16667   0.00000  Uiso   1.00
N604   N     0.16667   0.71598   0.16667   0.00000  Uiso   1.00
N605   N     0.04414   0.76721   0.23009   0.00000  Uiso   1.00
H606   H     0.02315   0.76415   0.25498   0.00000  Uiso   1.00
C607   C     0.06843   0.72353   0.22570   0.00000  Uiso   1.00
H608   H     0.05296   0.70112   0.19910   0.00000  Uiso   1.00
H609   H     0.07278   0.70397   0.26138   0.00000  Uiso   1.00
H610   H     0.09986   0.72892   0.21671   0.00000  Uiso   1.00
N611   N     0.28921   0.89947   0.10327   0.00000  Uiso   1.00
H612   H     0.31020   0.90254   0.07839   0.00000  Uiso   1.00
C613   C     0.26489   0.94316   0.10764   0.00000  Uiso   1.00
H614   H     0.28043   0.96567   0.13408   0.00000  Uiso   1.00
H615   H     0.23352   0.93777   0.11685   0.00000  Uiso   1.00
H616   H     0.26039   0.96260   0.07187   0.00000  Uiso   1.00
N617   N     0.30236   0.74632   0.16630   0.00000  Uiso   1.00
H618   H     0.32153   0.71977   0.18405   0.00000  Uiso   1.00
C619   C     0.28646   0.73443   0.11744   0.00000  Uiso   1.00
H620   H     0.30989   0.71061   0.10231   0.00000  Uiso   1.00
H621   H     0.27877   0.76536   0.09235   0.00000  Uiso   1.00
H622   H     0.25769   0.71673   0.11901   0.00000  Uiso   1.00
N623   N     0.03099   0.92037   0.16708   0.00000  Uiso   1.00
H624   H     0.01180   0.94695   0.14941   0.00000  Uiso   1.00
C625   C     0.04705   0.93221   0.21591   0.00000  Uiso   1.00
H626   H     0.02375   0.95618   0.23109   0.00000  Uiso   1.00
H627   H     0.07590   0.94976   0.21425   0.00000  Uiso   1.00
H628   H     0.05465   0.90129   0.24101   0.00000  Uiso   1.00
C629   C     0.11553   0.72294   0.09114   0.00000  Uiso   1.00
C630   C     0.07480   0.74047   0.09688   0.00000  Uiso   1.00
C631   C     0.05077   0.76855   0.06054   0.00000  Uiso   1.00
C632   C     0.06619   0.77707   0.01655   0.00000  Uiso   1.00
C633   C     0.10432   0.75501   0.00787   0.00000  Uiso   1.00
C634   C     0.12873   0.72740   0.04473   0.00000  Uiso   1.00
H635   H     0.06176   0.73338   0.12977   0.00000  Uiso   1.00
H636   H     0.02040   0.78397   0.06669   0.00000  Uiso   1.00
H637   H     0.04838   0.80046   0.32255   0.00000  Uiso   1.00
H638   H     0.11532   0.76058   0.30632   0.00000  Uiso   1.00
H639   H     0.15854   0.71103   0.03812   0.00000  Uiso   1.00
C640   C     0.21782   0.94373   0.24217   0.00000  Uiso   1.00
C641   C     0.20464   0.93924   0.28859   0.00000  Uiso   1.00
C642   C     0.22906   0.91164   0.32543   0.00000  Uiso   1.00
C643   C     0.26721   0.88962   0.31674   0.00000  Uiso   1.00
C644   C     0.28261   0.89817   0.27274   0.00000  Uiso   1.00
C645   C     0.25856   0.92623   0.23641   0.00000  Uiso   1.00
H646   H     0.17482   0.95559   0.29521   0.00000  Uiso   1.00
H647   H     0.21807   0.90605   0.02699   0.00000  Uiso   1.00
H648   H     0.28504   0.86624   0.01074   0.00000  Uiso   1.00
H649   H     0.31299   0.88278   0.26658   0.00000  Uiso   1.00
H650   H     0.27158   0.93335   0.20351   0.00000  Uiso   1.00
C651   C     0.21928   0.70679   0.24102   0.00000  Uiso   1.00
C652   C     0.26207   0.69910   0.23907   0.00000  Uiso   1.00
C653   C     0.29066   0.70827   0.27856   0.00000  Uiso   1.00
C654   C     0.27658   0.72520   0.32090   0.00000  Uiso   1.00
C655   C     0.23399   0.72974   0.32491   0.00000  Uiso   1.00
C656   C     0.20565   0.71858   0.28577   0.00000  Uiso   1.00
H657   H     0.27285   0.68196   0.20822   0.00000  Uiso   1.00
H658   H     0.32361   0.70070   0.27694   0.00000  Uiso   1.00
H659   H     0.29884   0.73297   0.01765   0.00000  Uiso   1.00
H660   H     0.22310   0.74069   0.02532   0.00000  Uiso   1.00
H661   H     0.17312   0.71861   0.29004   0.00000  Uiso   1.00
C662   C     0.11405   0.95988   0.09231   0.00000  Uiso   1.00
C663   C     0.12768   0.94807   0.04757   0.00000  Uiso   1.00
C664   C     0.09935   0.93691   0.00843   0.00000  Uiso   1.00
C665   C     0.05675   0.94145   0.01244   0.00000  Uiso   1.00
C666   C     0.04267   0.95839   0.05477   0.00000  Uiso   1.00
C667   C     0.07125   0.96757   0.09425   0.00000  Uiso   1.00
H668   H     0.16022   0.94803   0.04330   0.00000  Uiso   1.00
H669   H     0.11024   0.92595   0.30803   0.00000  Uiso   1.00
H670   H     0.03449   0.93367   0.31569   0.00000  Uiso   1.00
H671   H     0.00972   0.96596   0.05638   0.00000  Uiso   1.00
H672   H     0.06048   0.98473   0.12510   0.00000  Uiso   1.00
O673   O     0.43988   0.87291   0.16666   0.00000  Uiso   1.00
O674   O     0.56012   0.79375   0.16667   0.00000  Uiso   1.00
O675   O     0.56012   0.87291   0.16667   0.00000  Uiso   1.00
O676   O     0.43988   0.79375   0.16666   0.00000  Uiso   1.00
C677   C     0.42116   0.83455   0.17123   0.00000  Uiso   1.00
C678   C     0.57884   0.83211   0.16211   0.00000  Uiso   1.00
O679   O     0.50000   0.87292   0.09613   0.00000  Uiso   1.00
O680   O     0.50000   0.79375   0.23720   0.00000  Uiso   1.00
O681   O     0.50000   0.87292   0.23720   0.00000  Uiso   1.00
O682   O     0.50000   0.79375   0.09613   0.00000  Uiso   1.00
C683   C     0.49981   0.83377   0.07360   0.00000  Uiso   1.00
C684   C     0.50019   0.83290   0.25973   0.00000  Uiso   1.00
Cu685  Cu    0.50000   0.88022   0.16667   0.00000  Uiso   1.00
Cu686  Cu    0.50000   0.78645   0.16667   0.00000  Uiso   1.00
C687   C     0.49996   0.83389   0.02178   0.00000  Uiso   1.00
C688   C     0.50005   0.83278   0.31156   0.00000  Uiso   1.00
C689   C     0.35913   0.79450   0.18769   0.00000  Uiso   1.00
C690   C     0.64088   0.87219   0.14569   0.00000  Uiso   1.00
C691   C     0.65037   0.79073   0.17117   0.00000  Uiso   1.00
C692   C     0.34964   0.87596   0.16221   0.00000  Uiso   1.00
C693   C     0.62373   0.83073   0.15692   0.00000  Uiso   1.00
C694   C     0.37628   0.83595   0.17644   0.00000  Uiso   1.00
C695   C     0.47561   0.69490   0.13114   0.00000  Uiso   1.00
C696   C     0.52439   0.97176   0.20219   0.00000  Uiso   1.00
C697   C     0.52413   0.68775   0.20232   0.00000  Uiso   1.00
C698   C     0.47587   0.97891   0.13102   0.00000  Uiso   1.00
N699   N     0.50000   0.95069   0.16667   0.00000  Uiso   1.00
N700   N     0.50000   0.71598   0.16667   0.00000  Uiso   1.00
N701   N     0.37747   0.76721   0.23009   0.00000  Uiso   1.00
H702   H     0.35648   0.76415   0.25498   0.00000  Uiso   1.00
C703   C     0.40176   0.72353   0.22570   0.00000  Uiso   1.00
H704   H     0.38629   0.70112   0.19910   0.00000  Uiso   1.00
H705   H     0.40611   0.70397   0.26138   0.00000  Uiso   1.00
H706   H     0.43320   0.72892   0.21671   0.00000  Uiso   1.00
N707   N     0.62254   0.89947   0.10327   0.00000  Uiso   1.00
H708   H     0.64354   0.90254   0.07839   0.00000  Uiso   1.00
C709   C     0.59823   0.94316   0.10764   0.00000  Uiso   1.00
H710   H     0.61376   0.96567   0.13408   0.00000  Uiso   1.00
H711   H     0.56686   0.93777   0.11685   0.00000  Uiso   1.00
H712   H     0.59372   0.96260   0.07187   0.00000  Uiso   1.00
N713   N     0.63569   0.74632   0.16630   0.00000  Uiso   1.00
H714   H     0.65486   0.71977   0.18405   0.00000  Uiso   1.00
C715   C     0.61979   0.73443   0.11744   0.00000  Uiso   1.00
H716   H     0.64323   0.71061   0.10231   0.00000  Uiso   1.00
H717   H     0.61210   0.76536   0.09235   0.00000  Uiso   1.00
H718   H     0.59103   0.71673   0.11901   0.00000  Uiso   1.00
N719   N     0.36432   0.92037   0.16708   0.00000  Uiso   1.00
H720   H     0.34514   0.94695   0.14941   0.00000  Uiso   1.00
C721   C     0.38038   0.93221   0.21591   0.00000  Uiso   1.00
H722   H     0.35708   0.95618   0.23109   0.00000  Uiso   1.00
H723   H     0.40923   0.94976   0.21425   0.00000  Uiso   1.00
H724   H     0.38798   0.90129   0.24101   0.00000  Uiso   1.00
C725   C     0.44886   0.72294   0.09114   0.00000  Uiso   1.00
C726   C     0.40813   0.74047   0.09688   0.00000  Uiso   1.00
C727   C     0.38410   0.76855   0.06054   0.00000  Uiso   1.00
C728   C     0.39952   0.77707   0.01655   0.00000  Uiso   1.00
C729   C     0.43766   0.75501   0.00787   0.00000  Uiso   1.00
C730   C     0.46206   0.72740   0.04473   0.00000  Uiso   1.00
H731   H     0.39509   0.73338   0.12977   0.00000  Uiso   1.00
H732   H     0.35373   0.78397   0.06669   0.00000  Uiso   1.00
H733   H     0.38171   0.80046   0.32255   0.00000  Uiso   1.00
H734   H     0.44865   0.76058   0.30632   0.00000  Uiso   1.00
H735   H     0.49187   0.71103   0.03812   0.00000  Uiso   1.00
C736   C     0.55116   0.94373   0.24217   0.00000  Uiso   1.00
C737   C     0.53797   0.93924   0.28859   0.00000  Uiso   1.00
C738   C     0.56239   0.91164   0.32543   0.00000  Uiso   1.00
C739   C     0.60055   0.88962   0.31674   0.00000  Uiso   1.00
C740   C     0.61594   0.89817   0.27274   0.00000  Uiso   1.00
C741   C     0.59189   0.92623   0.23641   0.00000  Uiso   1.00
H742   H     0.50815   0.95559   0.29521   0.00000  Uiso   1.00
H743   H     0.55141   0.90605   0.02699   0.00000  Uiso   1.00
H744   H     0.61837   0.86624   0.01074   0.00000  Uiso   1.00
H745   H     0.64632   0.88278   0.26658   0.00000  Uiso   1.00
H746   H     0.60491   0.93335   0.20351   0.00000  Uiso   1.00
C747   C     0.55261   0.70679   0.24102   0.00000  Uiso   1.00
C748   C     0.59541   0.69910   0.23907   0.00000  Uiso   1.00
C749   C     0.62399   0.70827   0.27856   0.00000  Uiso   1.00
C750   C     0.60991   0.72520   0.32090   0.00000  Uiso   1.00
C751   C     0.56732   0.72974   0.32491   0.00000  Uiso   1.00
C752   C     0.53898   0.71858   0.28577   0.00000  Uiso   1.00
H753   H     0.60618   0.68196   0.20822   0.00000  Uiso   1.00
H754   H     0.65694   0.70070   0.27694   0.00000  Uiso   1.00
H755   H     0.63218   0.73297   0.01765   0.00000  Uiso   1.00
H756   H     0.55643   0.74069   0.02532   0.00000  Uiso   1.00
H757   H     0.50646   0.71861   0.29004   0.00000  Uiso   1.00
C758   C     0.44739   0.95988   0.09231   0.00000  Uiso   1.00
C759   C     0.46102   0.94807   0.04757   0.00000  Uiso   1.00
C760   C     0.43268   0.93691   0.00843   0.00000  Uiso   1.00
C761   C     0.39009   0.94145   0.01244   0.00000  Uiso   1.00
C762   C     0.37600   0.95839   0.05477   0.00000  Uiso   1.00
C763   C     0.40459   0.96757   0.09425   0.00000  Uiso   1.00
H764   H     0.49355   0.94803   0.04330   0.00000  Uiso   1.00
H765   H     0.44357   0.92595   0.30803   0.00000  Uiso   1.00
H766   H     0.36782   0.93367   0.31569   0.00000  Uiso   1.00
H767   H     0.34305   0.96596   0.05638   0.00000  Uiso   1.00
H768   H     0.39381   0.98473   0.12510   0.00000  Uiso   1.00
O769   O     0.77321   0.87291   0.16666   0.00000  Uiso   1.00
O770   O     0.89345   0.79375   0.16667   0.00000  Uiso   1.00
O771   O     0.89345   0.87291   0.16667   0.00000  Uiso   1.00
O772   O     0.77321   0.79375   0.16666   0.00000  Uiso   1.00
C773   C     0.75450   0.83455   0.17123   0.00000  Uiso   1.00
C774   C     0.91217   0.83211   0.16211   0.00000  Uiso   1.00
O775   O     0.83333   0.87292   0.09613   0.00000  Uiso   1.00
O776   O     0.83333   0.79375   0.23720   0.00000  Uiso   1.00
O777   O     0.83333   0.87292   0.23720   0.00000  Uiso   1.00
O778   O     0.83333   0.79375   0.09613   0.00000  Uiso   1.00
C779   C     0.83315   0.83377   0.07360   0.00000  Uiso   1.00
C780   C     0.83352   0.83290   0.25973   0.00000  Uiso   1.00
Cu781  Cu    0.83333   0.88022   0.16667   0.00000  Uiso   1.00
Cu782  Cu    0.83333   0.78645   0.16667   0.00000  Uiso   1.00
C783   C     0.83329   0.83389   0.02178   0.00000  Uiso   1.00
C784   C     0.83338   0.83278   0.31156   0.00000  Uiso   1.00
C785   C     0.69246   0.79450   0.18769   0.00000  Uiso   1.00
C786   C     0.97421   0.87219   0.14569   0.00000  Uiso   1.00
C787   C     0.98370   0.79073   0.17117   0.00000  Uiso   1.00
C788   C     0.68297   0.87596   0.16221   0.00000  Uiso   1.00
C789   C     0.95706   0.83073   0.15692   0.00000  Uiso   1.00
C790   C     0.70961   0.83595   0.17644   0.00000  Uiso   1.00
C791   C     0.80895   0.69490   0.13114   0.00000  Uiso   1.00
C792   C     0.85772   0.97176   0.20219   0.00000  Uiso   1.00
C793   C     0.85746   0.68775   0.20232   0.00000  Uiso   1.00
C794   C     0.80920   0.97891   0.13102   0.00000  Uiso   1.00
N795   N     0.83333   0.95069   0.16667   0.00000  Uiso   1.00
N796   N     0.83333   0.71598   0.16667   0.00000  Uiso   1.00
N797   N     0.71080   0.76721   0.23009   0.00000  Uiso   1.00
H798   H     0.68981   0.76415   0.25498   0.00000  Uiso   1.00
C799   C     0.73510   0.72353   0.22570   0.00000  Uiso   1.00
H800   H     0.71963   0.70112   0.19910   0.00000  Uiso   1.00
H801   H     0.73945   0.70397   0.26138   0.00000  Uiso   1.00
H802   H     0.76653   0.72892   0.21671   0.00000  Uiso   1.00
N803   N     0.95587   0.89947   0.10327   0.00000  Uiso   1.00
H804   H     0.97687   0.90254   0.07839   0.00000  Uiso   1.00
C805   C     0.93156   0.94316   0.10764   0.00000  Uiso   1.00
H806   H     0.94710   0.96567   0.13408   0.00000  Uiso   1.00
H807   H     0.90019   0.93777   0.11685   0.00000  Uiso   1.00
H808   H     0.92705   0.96260   0.07187   0.00000  Uiso   1.00
N809   N     0.96903   0.74632   0.16630   0.00000  Uiso   1.00
H810   H     0.98820   0.71977   0.18405   0.00000  Uiso   1.00
C811   C     0.95313   0.73443   0.11744   0.00000  Uiso   1.00
H812   H     0.97656   0.71061   0.10231   0.00000  Uiso   1.00
H813   H     0.94543   0.76536   0.09235   0.00000  Uiso   1.00
H814   H     0.92436   0.71673   0.11901   0.00000  Uiso   1.00
N815   N     0.69765   0.92037   0.16708   0.00000  Uiso   1.00
H816   H     0.67847   0.94695   0.14941   0.00000  Uiso   1.00
C817   C     0.71372   0.93221   0.21591   0.00000  Uiso   1.00
H818   H     0.69042   0.95618   0.23109   0.00000  Uiso   1.00
H819   H     0.74256   0.94976   0.21425   0.00000  Uiso   1.00
H820   H     0.72132   0.90129   0.24101   0.00000  Uiso   1.00
C821   C     0.78219   0.72294   0.09114   0.00000  Uiso   1.00
C822   C     0.74147   0.74047   0.09688   0.00000  Uiso   1.00
C823   C     0.71744   0.76855   0.06054   0.00000  Uiso   1.00
C824   C     0.73285   0.77707   0.01655   0.00000  Uiso   1.00
C825   C     0.77099   0.75501   0.00787   0.00000  Uiso   1.00
C826   C     0.79539   0.72740   0.04473   0.00000  Uiso   1.00
H827   H     0.72842   0.73338   0.12977   0.00000  Uiso   1.00
H828   H     0.68707   0.78397   0.06669   0.00000  Uiso   1.00
H829   H     0.71505   0.80046   0.32255   0.00000  Uiso   1.00
H830   H     0.78198   0.76058   0.30632   0.00000  Uiso   1.00
H831   H     0.82521   0.71103   0.03812   0.00000  Uiso   1.00
C832   C     0.88449   0.94373   0.24217   0.00000  Uiso   1.00
C833   C     0.87130   0.93924   0.28859   0.00000  Uiso   1.00
C834   C     0.89573   0.91164   0.32543   0.00000  Uiso   1.00
C835   C     0.93388   0.88962   0.31674   0.00000  Uiso   1.00
C836   C     0.94928   0.89817   0.27274   0.00000  Uiso   1.00
C837   C     0.92522   0.92623   0.23641   0.00000  Uiso   1.00
H838   H     0.84148   0.95559   0.29521   0.00000  Uiso   1.00
H839   H     0.88474   0.90605   0.02699   0.00000  Uiso   1.00
H840   H     0.95171   0.86624   0.01074   0.00000  Uiso   1.00
H841   H     0.97965   0.88278   0.26658   0.00000  Uiso   1.00
H842   H     0.93825   0.93335   0.20351   0.00000  Uiso   1.00
C843   C     0.88594   0.70679   0.24102   0.00000  Uiso   1.00
C844   C     0.92874   0.69910   0.23907   0.00000  Uiso   1.00
C845   C     0.95733   0.70827   0.27856   0.00000  Uiso   1.00
C846   C     0.94325   0.72520   0.32090   0.00000  Uiso   1.00
C847   C     0.90066   0.72974   0.32491   0.00000  Uiso   1.00
C848   C     0.87232   0.71858   0.28577   0.00000  Uiso   1.00
H849   H     0.93951   0.68196   0.20822   0.00000  Uiso   1.00
H850   H     0.99028   0.70070   0.27694   0.00000  Uiso   1.00
H851   H     0.96551   0.73297   0.01765   0.00000  Uiso   1.00
H852   H     0.88976   0.74069   0.02532   0.00000  Uiso   1.00
H853   H     0.83979   0.71861   0.29004   0.00000  Uiso   1.00
C854   C     0.78072   0.95988   0.09231   0.00000  Uiso   1.00
C855   C     0.79435   0.94807   0.04757   0.00000  Uiso   1.00
C856   C     0.76601   0.93691   0.00843   0.00000  Uiso   1.00
C857   C     0.72342   0.94145   0.01244   0.00000  Uiso   1.00
C858   C     0.70934   0.95839   0.05477   0.00000  Uiso   1.00
C859   C     0.73792   0.96757   0.09425   0.00000  Uiso   1.00
H860   H     0.82688   0.94803   0.04330   0.00000  Uiso   1.00
H861   H     0.77691   0.92595   0.30803   0.00000  Uiso   1.00
H862   H     0.70116   0.93367   0.31569   0.00000  Uiso   1.00
H863   H     0.67639   0.96596   0.05638   0.00000  Uiso   1.00
H864   H     0.72714   0.98473   0.12510   0.00000  Uiso   1.00
O865   O     0.10655   0.20625   0.50000   0.00000  Uiso   1.00
O866   O     0.22679   0.12709   0.50000   0.00000  Uiso   1.00
O867   O     0.22679   0.20625   0.50000   0.00000  Uiso   1.00
O868   O     0.10655   0.12709   0.50000   0.00000  Uiso   1.00
C869   C     0.08783   0.16789   0.50456   0.00000  Uiso   1.00
C870   C     0.24551   0.16545   0.49545   0.00000  Uiso   1.00
O871   O     0.16667   0.20625   0.42946   0.00000  Uiso   1.00
O872   O     0.16667   0.12708   0.57054   0.00000  Uiso   1.00
O873   O     0.16667   0.20625   0.57054   0.00000  Uiso   1.00
O874   O     0.16667   0.12708   0.42946   0.00000  Uiso   1.00
C875   C     0.16648   0.16710   0.40693   0.00000  Uiso   1.00
C876   C     0.16686   0.16623   0.59307   0.00000  Uiso   1.00
Cu877  Cu    0.16667   0.21355   0.50000   0.00000  Uiso   1.00
Cu878  Cu    0.16667   0.11978   0.50000   0.00000  Uiso   1.00
C879   C     0.16662   0.16723   0.35511   0.00000  Uiso   1.00
C880   C     0.16671   0.16611   0.64489   0.00000  Uiso   1.00
C881   C     0.02580   0.12784   0.52102   0.00000  Uiso   1.00
C882   C     0.30754   0.20552   0.47902   0.00000  Uiso   1.00
C883   C     0.31703   0.12407   0.50450   0.00000  Uiso   1.00
C884   C     0.01631   0.20929   0.49555   0.00000  Uiso   1.00
C885   C     0.29040   0.16406   0.49026   0.00000  Uiso   1.00
C886   C     0.04294   0.16928   0.50977   0.00000  Uiso   1.00
C887   C     0.14228   0.02824   0.46447   0.00000  Uiso   1.00
C888   C     0.19105   0.30510   0.53553   0.00000  Uiso   1.00
C889   C     0.19080   0.02109   0.53565   0.00000  Uiso   1.00
C890   C     0.14253   0.31225   0.46435   0.00000  Uiso   1.00
N891   N     0.16667   0.28402   0.50000   0.00000  Uiso   1.00
N892   N     0.16667   0.04931   0.50000   0.00000  Uiso   1.00
N893   N     0.04414   0.10055   0.56343   0.00000  Uiso   1.00
H894   H     0.02315   0.09749   0.58831   0.00000  Uiso   1.00
C895   C     0.06843   0.05686   0.55903   0.00000  Uiso   1.00
H896   H     0.05296   0.03445   0.53243   0.00000  Uiso   1.00
H897   H     0.07278   0.03731   0.59472   0.00000  Uiso   1.00
H898   H     0.09986   0.06226   0.55005   0.00000  Uiso   1.00
N899   N     0.28921   0.23281   0.43660   0.00000  Uiso   1.00
H900   H     0.31020   0.23587   0.41172   0.00000  Uiso   1.00
C901   C     0.26489   0.27649   0.44097   0.00000  Uiso   1.00
H902   H     0.28043   0.29900   0.46742   0.00000  Uiso   1.00
H903   H     0.23352   0.27110   0.45018   0.00000  Uiso   1.00
H904   H     0.26039   0.29593   0.40521   0.00000  Uiso   1.00
N905   N     0.30236   0.07965   0.49963   0.00000  Uiso   1.00
H906   H     0.32153   0.05310   0.51738   0.00000  Uiso   1.00
C907   C     0.28646   0.06777   0.45077   0.00000  Uiso   1.00
H908   H     0.30989   0.04394   0.43565   0.00000  Uiso   1.00
H909   H     0.27877   0.09869   0.42568   0.00000  Uiso   1.00
H910   H     0.25769   0.05006   0.45234   0.00000  Uiso   1.00
N911   N     0.03099   0.25371   0.50042   0.00000  Uiso   1.00
H912   H     0.01180   0.28029   0.48274   0.00000  Uiso   1.00
C913   C     0.04705   0.26555   0.54925   0.00000  Uiso   1.00
H914   H     0.02375   0.28951   0.56443   0.00000  Uiso   1.00
H915   H     0.07590   0.28309   0.54759   0.00000  Uiso   1.00
H916   H     0.05465   0.23462   0.57435   0.00000  Uiso   1.00
C917   C     0.11553   0.05627   0.42447   0.00000  Uiso   1.00
C918   C     0.07480   0.07381   0.43021   0.00000  Uiso   1.00
C919   C     0.05077   0.10189   0.39387   0.00000  Uiso   1.00
C920   C     0.06619   0.11041   0.34988   0.00000  Uiso   1.00
C921   C     0.10432   0.08835   0.34121   0.00000  Uiso   1.00
C922   C     0.12873   0.06074   0.37806   0.00000  Uiso   1.00
H923   H     0.06176   0.06672   0.46310   0.00000  Uiso   1.00
H924   H     0.02040   0.11730   0.40002   0.00000  Uiso   1.00
H925   H     0.04838   0.13380   0.65588   0.00000  Uiso   1.00
H926   H     0.11532   0.09391   0.63965   0.00000  Uiso   1.00
H927   H     0.15854   0.04437   0.37145   0.00000  Uiso   1.00
C928   C     0.21782   0.27706   0.57550   0.00000  Uiso   1.00
C929   C     0.20464   0.27257   0.62192   0.00000  Uiso   1.00
C930   C     0.22906   0.24497   0.65876   0.00000  Uiso   1.00
C931   C     0.26721   0.22295   0.65007   0.00000  Uiso   1.00
C932   C     0.28261   0.23150   0.60608   0.00000  Uiso   1.00
C933   C     0.25856   0.25957   0.56974   0.00000  Uiso   1.00
H934   H     0.17482   0.28892   0.62854   0.00000  Uiso   1.00
H935   H     0.21807   0.23939   0.36032   0.00000  Uiso   1.00
H936   H     0.28504   0.19958   0.34407   0.00000  Uiso   1.00
H937   H     0.31299   0.21611   0.59991   0.00000  Uiso   1.00
H938   H     0.27158   0.26669   0.53684   0.00000  Uiso   1.00
C939   C     0.21928   0.04013   0.57436   0.00000  Uiso   1.00
C940   C     0.26207   0.03244   0.57241   0.00000  Uiso   1.00
C941   C     0.29066   0.04160   0.61190   0.00000  Uiso   1.00
C942   C     0.27658   0.05853   0.65423   0.00000  Uiso   1.00
C943   C     0.23399   0.06307   0.65824   0.00000  Uiso   1.00
C944   C     0.20565   0.05191   0.61911   0.00000  Uiso   1.00
H945   H     0.27285   0.01529   0.54155   0.00000  Uiso   1.00
H946   H     0.32361   0.03404   0.61028   0.00000  Uiso   1.00
H947   H     0.29884   0.06631   0.35099   0.00000  Uiso   1.00
H948   H     0.22310   0.07403   0.35865   0.00000  Uiso   1.00
H949   H     0.17312   0.05194   0.62338   0.00000  Uiso   1.00
C950   C     0.11405   0.29321   0.42565   0.00000  Uiso   1.00
C951   C     0.12768   0.28141   0.38090   0.00000  Uiso   1.00
C952   C     0.09935   0.27024   0.34177   0.00000  Uiso   1.00
C953   C     0.05675   0.27479   0.34577   0.00000  Uiso   1.00
C954   C     0.04267   0.29173   0.38810   0.00000  Uiso   1.00
C955   C     0.07125   0.30090   0.42759   0.00000  Uiso   1.00
H956   H     0.16022   0.28137   0.37663   0.00000  Uiso   1.00
H957   H     0.11024   0.25928   0.64136   0.00000  Uiso   1.00
H958   H     0.03449   0.26700   0.64902   0.00000  Uiso   1.00
H959   H     0.00972   0.29930   0.38972   0.00000  Uiso   1.00
H960   H     0.06048   0.31806   0.45843   0.00000  Uiso   1.00
O961   O     0.43988   0.20625   0.50000   0.00000  Uiso   1.00
O962   O     0.56012   0.12709   0.50000   0.00000  Uiso   1.00
O963   O     0.56012   0.20625   0.50000   0.00000  Uiso   1.00
O964   O     0.43988   0.12709   0.50000   0.00000  Uiso   1.00
C965   C     0.42116   0.16789   0.50456   0.00000  Uiso   1.00
C966   C     0.57884   0.16545   0.49545   0.00000  Uiso   1.00
O967   O     0.50000   0.20625   0.42946   0.00000  Uiso   1.00
O968   O     0.50000   0.12708   0.57054   0.00000  Uiso   1.00
O969   O     0.50000   0.20625   0.57054   0.00000  Uiso   1.00
O970   O     0.50000   0.12708   0.42946   0.00000  Uiso   1.00
C971   C     0.49981   0.16710   0.40693   0.00000  Uiso   1.00
C972   C     0.50019   0.16623   0.59307   0.00000  Uiso   1.00
Cu973  Cu    0.50000   0.21355   0.50000   0.00000  Uiso   1.00
Cu974  Cu    0.50000   0.11978   0.50000   0.00000  Uiso   1.00
C975   C     0.49996   0.16723   0.35511   0.00000  Uiso   1.00
C976   C     0.50005   0.16611   0.64489   0.00000  Uiso   1.00
C977   C     0.35913   0.12784   0.52102   0.00000  Uiso   1.00
C978   C     0.64088   0.20552   0.47902   0.00000  Uiso   1.00
C979   C     0.65037   0.12407   0.50450   0.00000  Uiso   1.00
C980   C     0.34964   0.20929   0.49555   0.00000  Uiso   1.00
C981   C     0.62373   0.16406   0.49026   0.00000  Uiso   1.00
C982   C     0.37628   0.16928   0.50977   0.00000  Uiso   1.00
C983   C     0.47561   0.02824   0.46447   0.00000  Uiso   1.00
C984   C     0.52439   0.30510   0.53553   0.00000  Uiso   1.00
C985   C     0.52413   0.02109   0.53565   0.00000  Uiso   1.00
C986   C     0.47587   0.31225   0.46435   0.00000  Uiso   1.00
N987   N     0.50000   0.28402   0.50000   0.00000  Uiso   1.00
N988   N     0.50000   0.04931   0.50000   0.00000  Uiso   1.00
N989   N     0.37747   0.10055   0.56343   0.00000  Uiso   1.00
H990   H     0.35648   0.09749   0.58831   0.00000  Uiso   1.00
C991   C     0.40176   0.05686   0.55903   0.00000  Uiso   1.00
H992   H     0.38629   0.03445   0.53243   0.00000  Uiso   1.00
H993   H     0.40611   0.03731   0.59472   0.00000  Uiso   1.00
H994   H     0.43320   0.06226   0.55005   0.00000  Uiso   1.00
N995   N     0.62254   0.23281   0.43660   0.00000  Uiso   1.00
H996   H     0.64354   0.23587   0.41172   0.00000  Uiso   1.00
C997   C     0.59823   0.27649   0.44097   0.00000  Uiso   1.00
H998   H     0.61376   0.29900   0.46742   0.00000  Uiso   1.00
H999   H     0.56686   0.27110   0.45018   0.00000  Uiso   1.00
H1000  H     0.59372   0.29593   0.40521   0.00000  Uiso   1.00
N1001  N     0.63569   0.07965   0.49963   0.00000  Uiso   1.00
H1002  H     0.65486   0.05310   0.51738   0.00000  Uiso   1.00
C1003  C     0.61979   0.06777   0.45077   0.00000  Uiso   1.00
H1004  H     0.64323   0.04394   0.43565   0.00000  Uiso   1.00
H1005  H     0.61210   0.09869   0.42568   0.00000  Uiso   1.00
H1006  H     0.59103   0.05006   0.45234   0.00000  Uiso   1.00
N1007  N     0.36432   0.25371   0.50042   0.00000  Uiso   1.00
H1008  H     0.34514   0.28029   0.48274   0.00000  Uiso   1.00
C1009  C     0.38038   0.26555   0.54925   0.00000  Uiso   1.00
H1010  H     0.35708   0.28951   0.56443   0.00000  Uiso   1.00
H1011  H     0.40923   0.28309   0.54759   0.00000  Uiso   1.00
H1012  H     0.38798   0.23462   0.57435   0.00000  Uiso   1.00
C1013  C     0.44886   0.05627   0.42447   0.00000  Uiso   1.00
C1014  C     0.40813   0.07381   0.43021   0.00000  Uiso   1.00
C1015  C     0.38410   0.10189   0.39387   0.00000  Uiso   1.00
C1016  C     0.39952   0.11041   0.34988   0.00000  Uiso   1.00
C1017  C     0.43766   0.08835   0.34121   0.00000  Uiso   1.00
C1018  C     0.46206   0.06074   0.37806   0.00000  Uiso   1.00
H1019  H     0.39509   0.06672   0.46310   0.00000  Uiso   1.00
H1020  H     0.35373   0.11730   0.40002   0.00000  Uiso   1.00
H1021  H     0.38171   0.13380   0.65588   0.00000  Uiso   1.00
H1022  H     0.44865   0.09391   0.63965   0.00000  Uiso   1.00
H1023  H     0.49187   0.04437   0.37145   0.00000  Uiso   1.00
C1024  C     0.55116   0.27706   0.57550   0.00000  Uiso   1.00
C1025  C     0.53797   0.27257   0.62192   0.00000  Uiso   1.00
C1026  C     0.56239   0.24497   0.65876   0.00000  Uiso   1.00
C1027  C     0.60055   0.22295   0.65007   0.00000  Uiso   1.00
C1028  C     0.61594   0.23150   0.60608   0.00000  Uiso   1.00
C1029  C     0.59189   0.25957   0.56974   0.00000  Uiso   1.00
H1030  H     0.50815   0.28892   0.62854   0.00000  Uiso   1.00
H1031  H     0.55141   0.23939   0.36032   0.00000  Uiso   1.00
H1032  H     0.61837   0.19958   0.34407   0.00000  Uiso   1.00
H1033  H     0.64632   0.21611   0.59991   0.00000  Uiso   1.00
H1034  H     0.60491   0.26669   0.53684   0.00000  Uiso   1.00
C1035  C     0.55261   0.04013   0.57436   0.00000  Uiso   1.00
C1036  C     0.59541   0.03244   0.57241   0.00000  Uiso   1.00
C1037  C     0.62399   0.04160   0.61190   0.00000  Uiso   1.00
C1038  C     0.60991   0.05853   0.65423   0.00000  Uiso   1.00
C1039  C     0.56732   0.06307   0.65824   0.00000  Uiso   1.00
C1040  C     0.53898   0.05191   0.61911   0.00000  Uiso   1.00
H1041  H     0.60618   0.01529   0.54155   0.00000  Uiso   1.00
H1042  H     0.65694   0.03404   0.61028   0.00000  Uiso   1.00
H1043  H     0.63218   0.06631   0.35099   0.00000  Uiso   1.00
H1044  H     0.55643   0.07403   0.35865   0.00000  Uiso   1.00
H1045  H     0.50646   0.05194   0.62338   0.00000  Uiso   1.00
C1046  C     0.44739   0.29321   0.42565   0.00000  Uiso   1.00
C1047  C     0.46102   0.28141   0.38090   0.00000  Uiso   1.00
C1048  C     0.43268   0.27024   0.34177   0.00000  Uiso   1.00
C1049  C     0.39009   0.27479   0.34577   0.00000  Uiso   1.00
C1050  C     0.37600   0.29173   0.38810   0.00000  Uiso   1.00
C1051  C     0.40459   0.30090   0.42759   0.00000  Uiso   1.00
H1052  H     0.49355   0.28137   0.37663   0.00000  Uiso   1.00
H1053  H     0.44357   0.25928   0.64136   0.00000  Uiso   1.00
H1054  H     0.36782   0.26700   0.64902   0.00000  Uiso   1.00
H1055  H     0.34305   0.29930   0.38972   0.00000  Uiso   1.00
H1056  H     0.39381   0.31806   0.45843   0.00000  Uiso   1.00
O1057  O     0.77321   0.20625   0.50000   0.00000  Uiso   1.00
O1058  O     0.89345   0.12709   0.50000   0.00000  Uiso   1.00
O1059  O     0.89345   0.20625   0.50000   0.00000  Uiso   1.00
O1060  O     0.77321   0.12709   0.50000   0.00000  Uiso   1.00
C1061  C     0.75450   0.16789   0.50456   0.00000  Uiso   1.00
C1062  C     0.91217   0.16545   0.49545   0.00000  Uiso   1.00
O1063  O     0.83333   0.20625   0.42946   0.00000  Uiso   1.00
O1064  O     0.83333   0.12708   0.57054   0.00000  Uiso   1.00
O1065  O     0.83333   0.20625   0.57054   0.00000  Uiso   1.00
O1066  O     0.83333   0.12708   0.42946   0.00000  Uiso   1.00
C1067  C     0.83315   0.16710   0.40693   0.00000  Uiso   1.00
C1068  C     0.83352   0.16623   0.59307   0.00000  Uiso   1.00
Cu1069 Cu    0.83333   0.21355   0.50000   0.00000  Uiso   1.00
Cu1070 Cu    0.83333   0.11978   0.50000   0.00000  Uiso   1.00
C1071  C     0.83329   0.16723   0.35511   0.00000  Uiso   1.00
C1072  C     0.83338   0.16611   0.64489   0.00000  Uiso   1.00
C1073  C     0.69246   0.12784   0.52102   0.00000  Uiso   1.00
C1074  C     0.97421   0.20552   0.47902   0.00000  Uiso   1.00
C1075  C     0.98370   0.12407   0.50450   0.00000  Uiso   1.00
C1076  C     0.68297   0.20929   0.49555   0.00000  Uiso   1.00
C1077  C     0.95706   0.16406   0.49026   0.00000  Uiso   1.00
C1078  C     0.70961   0.16928   0.50977   0.00000  Uiso   1.00
C1079  C     0.80895   0.02824   0.46447   0.00000  Uiso   1.00
C1080  C     0.85772   0.30510   0.53553   0.00000  Uiso   1.00
C1081  C     0.85746   0.02109   0.53565   0.00000  Uiso   1.00
C1082  C     0.80920   0.31225   0.46435   0.00000  Uiso   1.00
N1083  N     0.83333   0.28402   0.50000   0.00000  Uiso   1.00
N1084  N     0.83333   0.04931   0.50000   0.00000  Uiso   1.00
N1085  N     0.71080   0.10055   0.56343   0.00000  Uiso   1.00
H1086  H     0.68981   0.09749   0.58831   0.00000  Uiso   1.00
C1087  C     0.73510   0.05686   0.55903   0.00000  Uiso   1.00
H1088  H     0.71963   0.03445   0.53243   0.00000  Uiso   1.00
H1089  H     0.73945   0.03731   0.59472   0.00000  Uiso   1.00
H1090  H     0.76653   0.06226   0.55005   0.00000  Uiso   1.00
N1091  N     0.95587   0.23281   0.43660   0.00000  Uiso   1.00
H1092  H     0.97687   0.23587   0.41172   0.00000  Uiso   1.00
C1093  C     0.93156   0.27649   0.44097   0.00000  Uiso   1.00
H1094  H     0.94710   0.29900   0.46742   0.00000  Uiso   1.00
H1095  H     0.90019   0.27110   0.45018   0.00000  Uiso   1.00
H1096  H     0.92705   0.29593   0.40521   0.00000  Uiso   1.00
N1097  N     0.96903   0.07965   0.49963   0.00000  Uiso   1.00
H1098  H     0.98820   0.05310   0.51738   0.00000  Uiso   1.00
C1099  C     0.95313   0.06777   0.45077   0.00000  Uiso   1.00
H1100  H     0.97656   0.04394   0.43565   0.00000  Uiso   1.00
H1101  H     0.94543   0.09869   0.42568   0.00000  Uiso   1.00
H1102  H     0.92436   0.05006   0.45234   0.00000  Uiso   1.00
N1103  N     0.69765   0.25371   0.50042   0.00000  Uiso   1.00
H1104  H     0.67847   0.28029   0.48274   0.00000  Uiso   1.00
C1105  C     0.71372   0.26555   0.54925   0.00000  Uiso   1.00
H1106  H     0.69042   0.28951   0.56443   0.00000  Uiso   1.00
H1107  H     0.74256   0.28309   0.54759   0.00000  Uiso   1.00
H1108  H     0.72132   0.23462   0.57435   0.00000  Uiso   1.00
C1109  C     0.78219   0.05627   0.42447   0.00000  Uiso   1.00
C1110  C     0.74147   0.07381   0.43021   0.00000  Uiso   1.00
C1111  C     0.71744   0.10189   0.39387   0.00000  Uiso   1.00
C1112  C     0.73285   0.11041   0.34988   0.00000  Uiso   1.00
C1113  C     0.77099   0.08835   0.34121   0.00000  Uiso   1.00
C1114  C     0.79539   0.06074   0.37806   0.00000  Uiso   1.00
H1115  H     0.72842   0.06672   0.46310   0.00000  Uiso   1.00
H1116  H     0.68707   0.11730   0.40002   0.00000  Uiso   1.00
H1117  H     0.71505   0.13380   0.65588   0.00000  Uiso   1.00
H1118  H     0.78198   0.09391   0.63965   0.00000  Uiso   1.00
H1119  H     0.82521   0.04437   0.37145   0.00000  Uiso   1.00
C1120  C     0.88449   0.27706   0.57550   0.00000  Uiso   1.00
C1121  C     0.87130   0.27257   0.62192   0.00000  Uiso   1.00
C1122  C     0.89573   0.24497   0.65876   0.00000  Uiso   1.00
C1123  C     0.93388   0.22295   0.65007   0.00000  Uiso   1.00
C1124  C     0.94928   0.23150   0.60608   0.00000  Uiso   1.00
C1125  C     0.92522   0.25957   0.56974   0.00000  Uiso   1.00
H1126  H     0.84148   0.28892   0.62854   0.00000  Uiso   1.00
H1127  H     0.88474   0.23939   0.36032   0.00000  Uiso   1.00
H1128  H     0.95171   0.19958   0.34407   0.00000  Uiso   1.00
H1129  H     0.97965   0.21611   0.59991   0.00000  Uiso   1.00
H1130  H     0.93825   0.26669   0.53684   0.00000  Uiso   1.00
C1131  C     0.88594   0.04013   0.57436   0.00000  Uiso   1.00
C1132  C     0.92874   0.03244   0.57241   0.00000  Uiso   1.00
C1133  C     0.95733   0.04160   0.61190   0.00000  Uiso   1.00
C1134  C     0.94325   0.05853   0.65423   0.00000  Uiso   1.00
C1135  C     0.90066   0.06307   0.65824   0.00000  Uiso   1.00
C1136  C     0.87232   0.05191   0.61911   0.00000  Uiso   1.00
H1137  H     0.93951   0.01529   0.54155   0.00000  Uiso   1.00
H1138  H     0.99028   0.03404   0.61028   0.00000  Uiso   1.00
H1139  H     0.96551   0.06631   0.35099   0.00000  Uiso   1.00
H1140  H     0.88976   0.07403   0.35865   0.00000  Uiso   1.00
H1141  H     0.83979   0.05194   0.62338   0.00000  Uiso   1.00
C1142  C     0.78072   0.29321   0.42565   0.00000  Uiso   1.00
C1143  C     0.79435   0.28141   0.38090   0.00000  Uiso   1.00
C1144  C     0.76601   0.27024   0.34177   0.00000  Uiso   1.00
C1145  C     0.72342   0.27479   0.34577   0.00000  Uiso   1.00
C1146  C     0.70934   0.29173   0.38810   0.00000  Uiso   1.00
C1147  C     0.73792   0.30090   0.42759   0.00000  Uiso   1.00
H1148  H     0.82688   0.28137   0.37663   0.00000  Uiso   1.00
H1149  H     0.77691   0.25928   0.64136   0.00000  Uiso   1.00
H1150  H     0.70116   0.26700   0.64902   0.00000  Uiso   1.00
H1151  H     0.67639   0.29930   0.38972   0.00000  Uiso   1.00
H1152  H     0.72714   0.31806   0.45843   0.00000  Uiso   1.00
O1153  O     0.10655   0.53958   0.50000   0.00000  Uiso   1.00
O1154  O     0.22679   0.46042   0.50000   0.00000  Uiso   1.00
O1155  O     0.22679   0.53958   0.50000   0.00000  Uiso   1.00
O1156  O     0.10655   0.46042   0.50000   0.00000  Uiso   1.00
C1157  C     0.08783   0.50122   0.50456   0.00000  Uiso   1.00
C1158  C     0.24551   0.49878   0.49545   0.00000  Uiso   1.00
O1159  O     0.16667   0.53959   0.42946   0.00000  Uiso   1.00
O1160  O     0.16667   0.46041   0.57054   0.00000  Uiso   1.00
O1161  O     0.16667   0.53959   0.57054   0.00000  Uiso   1.00
O1162  O     0.16667   0.46041   0.42946   0.00000  Uiso   1.00
C1163  C     0.16648   0.50043   0.40693   0.00000  Uiso   1.00
C1164  C     0.16686   0.49957   0.59307   0.00000  Uiso   1.00
Cu1165 Cu    0.16667   0.54689   0.50000   0.00000  Uiso   1.00
Cu1166 Cu    0.16667   0.45311   0.50000   0.00000  Uiso   1.00
C1167  C     0.16662   0.50056   0.35511   0.00000  Uiso   1.00
C1168  C     0.16671   0.49944   0.64489   0.00000  Uiso   1.00
C1169  C     0.02580   0.46117   0.52102   0.00000  Uiso   1.00
C1170  C     0.30754   0.53885   0.47902   0.00000  Uiso   1.00
C1171  C     0.31703   0.45740   0.50450   0.00000  Uiso   1.00
C1172  C     0.01631   0.54262   0.49555   0.00000  Uiso   1.00
C1173  C     0.29040   0.49740   0.49026   0.00000  Uiso   1.00
C1174  C     0.04294   0.50262   0.50977   0.00000  Uiso   1.00
C1175  C     0.14228   0.36157   0.46447   0.00000  Uiso   1.00
C1176  C     0.19105   0.63843   0.53553   0.00000  Uiso   1.00
C1177  C     0.19080   0.35442   0.53565   0.00000  Uiso   1.00
C1178  C     0.14253   0.64558   0.46435   0.00000  Uiso   1.00
N1179  N     0.16667   0.61736   0.50000   0.00000  Uiso   1.00
N1180  N     0.16667   0.38264   0.50000   0.00000  Uiso   1.00
N1181  N     0.04414   0.43388   0.56343   0.00000  Uiso   1.00
H1182  H     0.02315   0.43082   0.58831   0.00000  Uiso   1.00
C1183  C     0.06843   0.39019   0.55903   0.00000  Uiso   1.00
H1184  H     0.05296   0.36779   0.53243   0.00000  Uiso   1.00
H1185  H     0.07278   0.37064   0.59472   0.00000  Uiso   1.00
H1186  H     0.09986   0.39559   0.55005   0.00000  Uiso   1.00
N1187  N     0.28921   0.56614   0.43660   0.00000  Uiso   1.00
H1188  H     0.31020   0.56920   0.41172   0.00000  Uiso   1.00
C1189  C     0.26489   0.60982   0.44097   0.00000  Uiso   1.00
H1190  H     0.28043   0.63234   0.46742   0.00000  Uiso   1.00
H1191  H     0.23352   0.60444   0.45018   0.00000  Uiso   1.00
H1192  H     0.26039   0.62927   0.40521   0.00000  Uiso   1.00
N1193  N     0.30236   0.41299   0.49963   0.00000  Uiso   1.00
H1194  H     0.32153   0.38644   0.51738   0.00000  Uiso   1.00
C1195  C     0.28646   0.40110   0.45077   0.00000  Uiso   1.00
H1196  H     0.30989   0.37728   0.43565   0.00000  Uiso   1.00
H1197  H     0.27877   0.43202   0.42568   0.00000  Uiso   1.00
H1198  H     0.25769   0.38340   0.45234   0.00000  Uiso   1.00
N1199  N     0.03099   0.58704   0.50042   0.00000  Uiso   1.00
H1200  H     0.01180   0.61362   0.48274   0.00000  Uiso   1.00
C1201  C     0.04705   0.59888   0.54925   0.00000  Uiso   1.00
H1202  H     0.02375   0.62285   0.56443   0.00000  Uiso   1.00
H1203  H     0.07590   0.61643   0.54759   0.00000  Uiso   1.00
H1204  H     0.05465   0.56795   0.57435   0.00000  Uiso   1.00
C1205  C     0.11553   0.38960   0.42447   0.00000  Uiso   1.00
C1206  C     0.07480   0.40714   0.43021   0.00000  Uiso   1.00
C1207  C     0.05077   0.43522   0.39387   0.00000  Uiso   1.00
C1208  C     0.06619   0.44374   0.34988   0.00000  Uiso   1.00
C1209  C     0.10432   0.42168   0.34121   0.00000  Uiso   1.00
C1210  C     0.12873   0.39407   0.37806   0.00000  Uiso   1.00
H1211  H     0.06176   0.40005   0.46310   0.00000  Uiso   1.00
H1212  H     0.02040   0.45063   0.40002   0.00000  Uiso   1.00
H1213  H     0.04838   0.46713   0.65588   0.00000  Uiso   1.00
H1214  H     0.11532   0.42725   0.63965   0.00000  Uiso   1.00
H1215  H     0.15854   0.37770   0.37145   0.00000  Uiso   1.00
C1216  C     0.21782   0.61040   0.57550   0.00000  Uiso   1.00
C1217  C     0.20464   0.60591   0.62192   0.00000  Uiso   1.00
C1218  C     0.22906   0.57830   0.65876   0.00000  Uiso   1.00
C1219  C     0.26721   0.55629   0.65007   0.00000  Uiso   1.00
C1220  C     0.28261   0.56483   0.60608   0.00000  Uiso   1.00
C1221  C     0.25856   0.59290   0.56974   0.00000  Uiso   1.00
H1222  H     0.17482   0.62225   0.62854   0.00000  Uiso   1.00
H1223  H     0.21807   0.57272   0.36032   0.00000  Uiso   1.00
H1224  H     0.28504   0.53291   0.34407   0.00000  Uiso   1.00
H1225  H     0.31299   0.54945   0.59991   0.00000  Uiso   1.00
H1226  H     0.27158   0.60002   0.53684   0.00000  Uiso   1.00
C1227  C     0.21928   0.37346   0.57436   0.00000  Uiso   1.00
C1228  C     0.26207   0.36577   0.57241   0.00000  Uiso   1.00
C1229  C     0.29066   0.37493   0.61190   0.00000  Uiso   1.00
C1230  C     0.27658   0.39187   0.65423   0.00000  Uiso   1.00
C1231  C     0.23399   0.39641   0.65824   0.00000  Uiso   1.00
C1232  C     0.20565   0.38525   0.61911   0.00000  Uiso   1.00
H1233  H     0.27285   0.34862   0.54155   0.00000  Uiso   1.00
H1234  H     0.32361   0.36737   0.61028   0.00000  Uiso   1.00
H1235  H     0.29884   0.39964   0.35099   0.00000  Uiso   1.00
H1236  H     0.22310   0.40736   0.35865   0.00000  Uiso   1.00
H1237  H     0.17312   0.38528   0.62338   0.00000  Uiso   1.00
C1238  C     0.11405   0.62654   0.42565   0.00000  Uiso   1.00
C1239  C     0.12768   0.61474   0.38090   0.00000  Uiso   1.00
C1240  C     0.09935   0.60358   0.34177   0.00000  Uiso   1.00
C1241  C     0.05675   0.60812   0.34577   0.00000  Uiso   1.00
C1242  C     0.04267   0.62506   0.38810   0.00000  Uiso   1.00
C1243  C     0.07125   0.63424   0.42759   0.00000  Uiso   1.00
H1244  H     0.16022   0.61470   0.37663   0.00000  Uiso   1.00
H1245  H     0.11024   0.59261   0.64136   0.00000  Uiso   1.00
H1246  H     0.03449   0.60034   0.64902   0.00000  Uiso   1.00
H1247  H     0.00972   0.63263   0.38972   0.00000  Uiso   1.00
H1248  H     0.06048   0.65140   0.45843   0.00000  Uiso   1.00
O1249  O     0.43988   0.53958   0.50000   0.00000  Uiso   1.00
O1250  O     0.56012   0.46042   0.50000   0.00000  Uiso   1.00
O1251  O     0.56012   0.53958   0.50000   0.00000  Uiso   1.00
O1252  O     0.43988   0.46042   0.50000   0.00000  Uiso   1.00
C1253  C     0.42116   0.50122   0.50456   0.00000  Uiso   1.00
C1254  C     0.57884   0.49878   0.49545   0.00000  Uiso   1.00
O1255  O     0.50000   0.53959   0.42946   0.00000  Uiso   1.00
O1256  O     0.50000   0.46041   0.57054   0.00000  Uiso   1.00
O1257  O     0.50000   0.53959   0.57054   0.00000  Uiso   1.00
O1258  O     0.50000   0.46041   0.42946   0.00000  Uiso   1.00
C1259  C     0.49981   0.50043   0.40693   0.00000  Uiso   1.00
C1260  C     0.50019   0.49957   0.59307   0.00000  Uiso   1.00
Cu1261 Cu    0.50000   0.54689   0.50000   0.00000  Uiso   1.00
Cu1262 Cu    0.50000   0.45311   0.50000   0.00000  Uiso   1.00
C1263  C     0.49996   0.50056   0.35511   0.00000  Uiso   1.00
C1264  C     0.50005   0.49944   0.64489   0.00000  Uiso   1.00
C1265  C     0.35913   0.46117   0.52102   0.00000  Uiso   1.00
C1266  C     0.64088   0.53885   0.47902   0.00000  Uiso   1.00
C1267  C     0.65037   0.45740   0.50450   0.00000  Uiso   1.00
C1268  C     0.34964   0.54262   0.49555   0.00000  Uiso   1.00
C1269  C     0.62373   0.49740   0.49026   0.00000  Uiso   1.00
C1270  C     0.37628   0.50262   0.50977   0.00000  Uiso   1.00
C1271  C     0.47561   0.36157   0.46447   0.00000  Uiso   1.00
C1272  C     0.52439   0.63843   0.53553   0.00000  Uiso   1.00
C1273  C     0.52413   0.35442   0.53565   0.00000  Uiso   1.00
C1274  C     0.47587   0.64558   0.46435   0.00000  Uiso   1.00
N1275  N     0.50000   0.61736   0.50000   0.00000  Uiso   1.00
N1276  N     0.50000   0.38264   0.50000   0.00000  Uiso   1.00
N1277  N     0.37747   0.43388   0.56343   0.00000  Uiso   1.00
H1278  H     0.35648   0.43082   0.58831   0.00000  Uiso   1.00
C1279  C     0.40176   0.39019   0.55903   0.00000  Uiso   1.00
H1280  H     0.38629   0.36779   0.53243   0.00000  Uiso   1.00
H1281  H     0.40611   0.37064   0.59472   0.00000  Uiso   1.00
H1282  H     0.43320   0.39559   0.55005   0.00000  Uiso   1.00
N1283  N     0.62254   0.56614   0.43660   0.00000  Uiso   1.00
H1284  H     0.64354   0.56920   0.41172   0.00000  Uiso   1.00
C1285  C     0.59823   0.60982   0.44097   0.00000  Uiso   1.00
H1286  H     0.61376   0.63234   0.46742   0.00000  Uiso   1.00
H1287  H     0.56686   0.60444   0.45018   0.00000  Uiso   1.00
H1288  H     0.59372   0.62927   0.40521   0.00000  Uiso   1.00
N1289  N     0.63569   0.41299   0.49963   0.00000  Uiso   1.00
H1290  H     0.65486   0.38644   0.51738   0.00000  Uiso   1.00
C1291  C     0.61979   0.40110   0.45077   0.00000  Uiso   1.00
H1292  H     0.64323   0.37728   0.43565   0.00000  Uiso   1.00
H1293  H     0.61210   0.43202   0.42568   0.00000  Uiso   1.00
H1294  H     0.59103   0.38340   0.45234   0.00000  Uiso   1.00
N1295  N     0.36432   0.58704   0.50042   0.00000  Uiso   1.00
H1296  H     0.34514   0.61362   0.48274   0.00000  Uiso   1.00
C1297  C     0.38038   0.59888   0.54925   0.00000  Uiso   1.00
H1298  H     0.35708   0.62285   0.56443   0.00000  Uiso   1.00
H1299  H     0.40923   0.61643   0.54759   0.00000  Uiso   1.00
H1300  H     0.38798   0.56795   0.57435   0.00000  Uiso   1.00
C1301  C     0.44886   0.38960   0.42447   0.00000  Uiso   1.00
C1302  C     0.40813   0.40714   0.43021   0.00000  Uiso   1.00
C1303  C     0.38410   0.43522   0.39387   0.00000  Uiso   1.00
C1304  C     0.39952   0.44374   0.34988   0.00000  Uiso   1.00
C1305  C     0.43766   0.42168   0.34121   0.00000  Uiso   1.00
C1306  C     0.46206   0.39407   0.37806   0.00000  Uiso   1.00
H1307  H     0.39509   0.40005   0.46310   0.00000  Uiso   1.00
H1308  H     0.35373   0.45063   0.40002   0.00000  Uiso   1.00
H1309  H     0.38171   0.46713   0.65588   0.00000  Uiso   1.00
H1310  H     0.44865   0.42725   0.63965   0.00000  Uiso   1.00
H1311  H     0.49187   0.37770   0.37145   0.00000  Uiso   1.00
C1312  C     0.55116   0.61040   0.57550   0.00000  Uiso   1.00
C1313  C     0.53797   0.60591   0.62192   0.00000  Uiso   1.00
C1314  C     0.56239   0.57830   0.65876   0.00000  Uiso   1.00
C1315  C     0.60055   0.55629   0.65007   0.00000  Uiso   1.00
C1316  C     0.61594   0.56483   0.60608   0.00000  Uiso   1.00
C1317  C     0.59189   0.59290   0.56974   0.00000  Uiso   1.00
H1318  H     0.50815   0.62225   0.62854   0.00000  Uiso   1.00
H1319  H     0.55141   0.57272   0.36032   0.00000  Uiso   1.00
H1320  H     0.61837   0.53291   0.34407   0.00000  Uiso   1.00
H1321  H     0.64632   0.54945   0.59991   0.00000  Uiso   1.00
H1322  H     0.60491   0.60002   0.53684   0.00000  Uiso   1.00
C1323  C     0.55261   0.37346   0.57436   0.00000  Uiso   1.00
C1324  C     0.59541   0.36577   0.57241   0.00000  Uiso   1.00
C1325  C     0.62399   0.37493   0.61190   0.00000  Uiso   1.00
C1326  C     0.60991   0.39187   0.65423   0.00000  Uiso   1.00
C1327  C     0.56732   0.39641   0.65824   0.00000  Uiso   1.00
C1328  C     0.53898   0.38525   0.61911   0.00000  Uiso   1.00
H1329  H     0.60618   0.34862   0.54155   0.00000  Uiso   1.00
H1330  H     0.65694   0.36737   0.61028   0.00000  Uiso   1.00
H1331  H     0.63218   0.39964   0.35099   0.00000  Uiso   1.00
H1332  H     0.55643   0.40736   0.35865   0.00000  Uiso   1.00
H1333  H     0.50646   0.38528   0.62338   0.00000  Uiso   1.00
C1334  C     0.44739   0.62654   0.42565   0.00000  Uiso   1.00
C1335  C     0.46102   0.61474   0.38090   0.00000  Uiso   1.00
C1336  C     0.43268   0.60358   0.34177   0.00000  Uiso   1.00
C1337  C     0.39009   0.60812   0.34577   0.00000  Uiso   1.00
C1338  C     0.37600   0.62506   0.38810   0.00000  Uiso   1.00
C1339  C     0.40459   0.63424   0.42759   0.00000  Uiso   1.00
H1340  H     0.49355   0.61470   0.37663   0.00000  Uiso   1.00
H1341  H     0.44357   0.59261   0.64136   0.00000  Uiso   1.00
H1342  H     0.36782   0.60034   0.64902   0.00000  Uiso   1.00
H1343  H     0.34305   0.63263   0.38972   0.00000  Uiso   1.00
H1344  H     0.39381   0.65140   0.45843   0.00000  Uiso   1.00
O1345  O     0.77321   0.53958   0.50000   0.00000  Uiso   1.00
O1346  O     0.89345   0.46042   0.50000   0.00000  Uiso   1.00
O1347  O     0.89345   0.53958   0.50000   0.00000  Uiso   1.00
O1348  O     0.77321   0.46042   0.50000   0.00000  Uiso   1.00
C1349  C     0.75450   0.50122   0.50456   0.00000  Uiso   1.00
C1350  C     0.91217   0.49878   0.49545   0.00000  Uiso   1.00
O1351  O     0.83333   0.53959   0.42946   0.00000  Uiso   1.00
O1352  O     0.83333   0.46041   0.57054   0.00000  Uiso   1.00
O1353  O     0.83333   0.53959   0.57054   0.00000  Uiso   1.00
O1354  O     0.83333   0.46041   0.42946   0.00000  Uiso   1.00
C1355  C     0.83315   0.50043   0.40693   0.00000  Uiso   1.00
C1356  C     0.83352   0.49957   0.59307   0.00000  Uiso   1.00
Cu1357 Cu    0.83333   0.54689   0.50000   0.00000  Uiso   1.00
Cu1358 Cu    0.83333   0.45311   0.50000   0.00000  Uiso   1.00
C1359  C     0.83329   0.50056   0.35511   0.00000  Uiso   1.00
C1360  C     0.83338   0.49944   0.64489   0.00000  Uiso   1.00
C1361  C     0.69246   0.46117   0.52102   0.00000  Uiso   1.00
C1362  C     0.97421   0.53885   0.47902   0.00000  Uiso   1.00
C1363  C     0.98370   0.45740   0.50450   0.00000  Uiso   1.00
C1364  C     0.68297   0.54262   0.49555   0.00000  Uiso   1.00
C1365  C     0.95706   0.49740   0.49026   0.00000  Uiso   1.00
C1366  C     0.70961   0.50262   0.50977   0.00000  Uiso   1.00
C1367  C     0.80895   0.36157   0.46447   0.00000  Uiso   1.00
C1368  C     0.85772   0.63843   0.53553   0.00000  Uiso   1.00
C1369  C     0.85746   0.35442   0.53565   0.00000  Uiso   1.00
C1370  C     0.80920   0.64558   0.46435   0.00000  Uiso   1.00
N1371  N     0.83333   0.61736   0.50000   0.00000  Uiso   1.00
N1372  N     0.83333   0.38264   0.50000   0.00000  Uiso   1.00
N1373  N     0.71080   0.43388   0.56343   0.00000  Uiso   1.00
H1374  H     0.68981   0.43082   0.58831   0.00000  Uiso   1.00
C1375  C     0.73510   0.39019   0.55903   0.00000  Uiso   1.00
H1376  H     0.71963   0.36779   0.53243   0.00000  Uiso   1.00
H1377  H     0.73945   0.37064   0.59472   0.00000  Uiso   1.00
H1378  H     0.76653   0.39559   0.55005   0.00000  Uiso   1.00
N1379  N     0.95587   0.56614   0.43660   0.00000  Uiso   1.00
H1380  H     0.97687   0.56920   0.41172   0.00000  Uiso   1.00
C1381  C     0.93156   0.60982   0.44097   0.00000  Uiso   1.00
H1382  H     0.94710   0.63234   0.46742   0.00000  Uiso   1.00
H1383  H     0.90019   0.60444   0.45018   0.00000  Uiso   1.00
H1384  H     0.92705   0.62927   0.40521   0.00000  Uiso   1.00
N1385  N     0.96903   0.41299   0.49963   0.00000  Uiso   1.00
H1386  H     0.98820   0.38644   0.51738   0.00000  Uiso   1.00
C1387  C     0.95313   0.40110   0.45077   0.00000  Uiso   1.00
H1388  H     0.97656   0.37728   0.43565   0.00000  Uiso   1.00
H1389  H     0.94543   0.43202   0.42568   0.00000  Uiso   1.00
H1390  H     0.92436   0.38340   0.45234   0.00000  Uiso   1.00
N1391  N     0.69765   0.58704   0.50042   0.00000  Uiso   1.00
H1392  H     0.67847   0.61362   0.48274   0.00000  Uiso   1.00
C1393  C     0.71372   0.59888   0.54925   0.00000  Uiso   1.00
H1394  H     0.69042   0.62285   0.56443   0.00000  Uiso   1.00
H1395  H     0.74256   0.61643   0.54759   0.00000  Uiso   1.00
H1396  H     0.72132   0.56795   0.57435   0.00000  Uiso   1.00
C1397  C     0.78219   0.38960   0.42447   0.00000  Uiso   1.00
C1398  C     0.74147   0.40714   0.43021   0.00000  Uiso   1.00
C1399  C     0.71744   0.43522   0.39387   0.00000  Uiso   1.00
C1400  C     0.73285   0.44374   0.34988   0.00000  Uiso   1.00
C1401  C     0.77099   0.42168   0.34121   0.00000  Uiso   1.00
C1402  C     0.79539   0.39407   0.37806   0.00000  Uiso   1.00
H1403  H     0.72842   0.40005   0.46310   0.00000  Uiso   1.00
H1404  H     0.68707   0.45063   0.40002   0.00000  Uiso   1.00
H1405  H     0.71505   0.46713   0.65588   0.00000  Uiso   1.00
H1406  H     0.78198   0.42725   0.63965   0.00000  Uiso   1.00
H1407  H     0.82521   0.37770   0.37145   0.00000  Uiso   1.00
C1408  C     0.88449   0.61040   0.57550   0.00000  Uiso   1.00
C1409  C     0.87130   0.60591   0.62192   0.00000  Uiso   1.00
C1410  C     0.89573   0.57830   0.65876   0.00000  Uiso   1.00
C1411  C     0.93388   0.55629   0.65007   0.00000  Uiso   1.00
C1412  C     0.94928   0.56483   0.60608   0.00000  Uiso   1.00
C1413  C     0.92522   0.59290   0.56974   0.00000  Uiso   1.00
H1414  H     0.84148   0.62225   0.62854   0.00000  Uiso   1.00
H1415  H     0.88474   0.57272   0.36032   0.00000  Uiso   1.00
H1416  H     0.95171   0.53291   0.34407   0.00000  Uiso   1.00
H1417  H     0.97965   0.54945   0.59991   0.00000  Uiso   1.00
H1418  H     0.93825   0.60002   0.53684   0.00000  Uiso   1.00
C1419  C     0.88594   0.37346   0.57436   0.00000  Uiso   1.00
C1420  C     0.92874   0.36577   0.57241   0.00000  Uiso   1.00
C1421  C     0.95733   0.37493   0.61190   0.00000  Uiso   1.00
C1422  C     0.94325   0.39187   0.65423   0.00000  Uiso   1.00
C1423  C     0.90066   0.39641   0.65824   0.00000  Uiso   1.00
C1424  C     0.87232   0.38525   0.61911   0.00000  Uiso   1.00
H1425  H     0.93951   0.34862   0.54155   0.00000  Uiso   1.00
H1426  H     0.99028   0.36737   0.61028   0.00000  Uiso   1.00
H1427  H     0.96551   0.39964   0.35099   0.00000  Uiso   1.00
H1428  H     0.88976   0.40736   0.35865   0.00000  Uiso   1.00
H1429  H     0.83979   0.38528   0.62338   0.00000  Uiso   1.00
C1430  C     0.78072   0.62654   0.42565   0.00000  Uiso   1.00
C1431  C     0.79435   0.61474   0.38090   0.00000  Uiso   1.00
C1432  C     0.76601   0.60358   0.34177   0.00000  Uiso   1.00
C1433  C     0.72342   0.60812   0.34577   0.00000  Uiso   1.00
C1434  C     0.70934   0.62506   0.38810   0.00000  Uiso   1.00
C1435  C     0.73792   0.63424   0.42759   0.00000  Uiso   1.00
H1436  H     0.82688   0.61470   0.37663   0.00000  Uiso   1.00
H1437  H     0.77691   0.59261   0.64136   0.00000  Uiso   1.00
H1438  H     0.70116   0.60034   0.64902   0.00000  Uiso   1.00
H1439  H     0.67639   0.63263   0.38972   0.00000  Uiso   1.00
H1440  H     0.72714   0.65140   0.45843   0.00000  Uiso   1.00
O1441  O     0.10655   0.87291   0.50000   0.00000  Uiso   1.00
O1442  O     0.22679   0.79375   0.50000   0.00000  Uiso   1.00
O1443  O     0.22679   0.87291   0.50000   0.00000  Uiso   1.00
O1444  O     0.10655   0.79375   0.50000   0.00000  Uiso   1.00
C1445  C     0.08783   0.83455   0.50456   0.00000  Uiso   1.00
C1446  C     0.24551   0.83211   0.49545   0.00000  Uiso   1.00
O1447  O     0.16667   0.87292   0.42946   0.00000  Uiso   1.00
O1448  O     0.16667   0.79375   0.57054   0.00000  Uiso   1.00
O1449  O     0.16667   0.87292   0.57054   0.00000  Uiso   1.00
O1450  O     0.16667   0.79375   0.42946   0.00000  Uiso   1.00
C1451  C     0.16648   0.83377   0.40693   0.00000  Uiso   1.00
C1452  C     0.16686   0.83290   0.59307   0.00000  Uiso   1.00
Cu1453 Cu    0.16667   0.88022   0.50000   0.00000  Uiso   1.00
Cu1454 Cu    0.16667   0.78645   0.50000   0.00000  Uiso   1.00
C1455  C     0.16662   0.83389   0.35511   0.00000  Uiso   1.00
C1456  C     0.16671   0.83278   0.64489   0.00000  Uiso   1.00
C1457  C     0.02580   0.79450   0.52102   0.00000  Uiso   1.00
C1458  C     0.30754   0.87219   0.47902   0.00000  Uiso   1.00
C1459  C     0.31703   0.79073   0.50450   0.00000  Uiso   1.00
C1460  C     0.01631   0.87596   0.49555   0.00000  Uiso   1.00
C1461  C     0.29040   0.83073   0.49026   0.00000  Uiso   1.00
C1462  C     0.04294   0.83595   0.50977   0.00000  Uiso   1.00
C1463  C     0.14228   0.69490   0.46447   0.00000  Uiso   1.00
C1464  C     0.19105   0.97176   0.53553   0.00000  Uiso   1.00
C1465  C     0.19080   0.68775   0.53565   0.00000  Uiso   1.00
C1466  C     0.14253   0.97891   0.46435   0.00000  Uiso   1.00
N1467  N     0.16667   0.95069   0.50000   0.00000  Uiso   1.00
N1468  N     0.16667   0.71598   0.50000   0.00000  Uiso   1.00
N1469  N     0.04414   0.76721   0.56343   0.00000  Uiso   1.00
H1470  H     0.02315   0.76415   0.58831   0.00000  Uiso   1.00
C1471  C     0.06843   0.72353   0.55903   0.00000  Uiso   1.00
H1472  H     0.05296   0.70112   0.53243   0.00000  Uiso   1.00
H1473  H     0.07278   0.70397   0.59472   0.00000  Uiso   1.00
H1474  H     0.09986   0.72892   0.55005   0.00000  Uiso   1.00
N1475  N     0.28921   0.89947   0.43660   0.00000  Uiso   1.00
H1476  H     0.31020   0.90254   0.41172   0.00000  Uiso   1.00
C1477  C     0.26489   0.94316   0.44097   0.00000  Uiso   1.00
H1478  H     0.28043   0.96567   0.46742   0.00000  Uiso   1.00
H1479  H     0.23352   0.93777   0.45018   0.00000  Uiso   1.00
H1480  H     0.26039   0.96260   0.40521   0.00000  Uiso   1.00
N1481  N     0.30236   0.74632   0.49963   0.00000  Uiso   1.00
H1482  H     0.32153   0.71977   0.51738   0.00000  Uiso   1.00
C1483  C     0.28646   0.73443   0.45077   0.00000  Uiso   1.00
H1484  H     0.30989   0.71061   0.43565   0.00000  Uiso   1.00
H1485  H     0.27877   0.76536   0.42568   0.00000  Uiso   1.00
H1486  H     0.25769   0.71673   0.45234   0.00000  Uiso   1.00
N1487  N     0.03099   0.92037   0.50042   0.00000  Uiso   1.00
H1488  H     0.01180   0.94695   0.48274   0.00000  Uiso   1.00
C1489  C     0.04705   0.93221   0.54925   0.00000  Uiso   1.00
H1490  H     0.02375   0.95618   0.56443   0.00000  Uiso   1.00
H1491  H     0.07590   0.94976   0.54759   0.00000  Uiso   1.00
H1492  H     0.05465   0.90129   0.57435   0.00000  Uiso   1.00
C1493  C     0.11553   0.72294   0.42447   0.00000  Uiso   1.00
C1494  C     0.07480   0.74047   0.43021   0.00000  Uiso   1.00
C1495  C     0.05077   0.76855   0.39387   0.00000  Uiso   1.00
C1496  C     0.06619   0.77707   0.34988   0.00000  Uiso   1.00
C1497  C     0.10432   0.75501   0.34121   0.00000  Uiso   1.00
C1498  C     0.12873   0.72740   0.37806   0.00000  Uiso   1.00
H1499  H     0.06176   0.73338   0.46310   0.00000  Uiso   1.00
H1500  H     0.02040   0.78397   0.40002   0.00000  Uiso   1.00
H1501  H     0.04838   0.80046   0.65588   0.00000  Uiso   1.00
H1502  H     0.11532   0.76058   0.63965   0.00000  Uiso   1.00
H1503  H     0.15854   0.71103   0.37145   0.00000  Uiso   1.00
C1504  C     0.21782   0.94373   0.57550   0.00000  Uiso   1.00
C1505  C     0.20464   0.93924   0.62192   0.00000  Uiso   1.00
C1506  C     0.22906   0.91164   0.65876   0.00000  Uiso   1.00
C1507  C     0.26721   0.88962   0.65007   0.00000  Uiso   1.00
C1508  C     0.28261   0.89817   0.60608   0.00000  Uiso   1.00
C1509  C     0.25856   0.92623   0.56974   0.00000  Uiso   1.00
H1510  H     0.17482   0.95559   0.62854   0.00000  Uiso   1.00
H1511  H     0.21807   0.90605   0.36032   0.00000  Uiso   1.00
H1512  H     0.28504   0.86624   0.34407   0.00000  Uiso   1.00
H1513  H     0.31299   0.88278   0.59991   0.00000  Uiso   1.00
H1514  H     0.27158   0.93335   0.53684   0.00000  Uiso   1.00
C1515  C     0.21928   0.70679   0.57436   0.00000  Uiso   1.00
C1516  C     0.26207   0.69910   0.57241   0.00000  Uiso   1.00
C1517  C     0.29066   0.70827   0.61190   0.00000  Uiso   1.00
C1518  C     0.27658   0.72520   0.65423   0.00000  Uiso   1.00
C1519  C     0.23399   0.72974   0.65824   0.00000  Uiso   1.00
C1520  C     0.20565   0.71858   0.61911   0.00000  Uiso   1.00
H1521  H     0.27285   0.68196   0.54155   0.00000  Uiso   1.00
H1522  H     0.32361   0.70070   0.61028   0.00000  Uiso   1.00
H1523  H     0.29884   0.73297   0.35099   0.00000  Uiso   1.00
H1524  H     0.22310   0.74069   0.35865   0.00000  Uiso   1.00
H1525  H     0.17312   0.71861   0.62338   0.00000  Uiso   1.00
C1526  C     0.11405   0.95988   0.42565   0.00000  Uiso   1.00
C1527  C     0.12768   0.94807   0.38090   0.00000  Uiso   1.00
C1528  C     0.09935   0.93691   0.34177   0.00000  Uiso   1.00
C1529  C     0.05675   0.94145   0.34577   0.00000  Uiso   1.00
C1530  C     0.04267   0.95839   0.38810   0.00000  Uiso   1.00
C1531  C     0.07125   0.96757   0.42759   0.00000  Uiso   1.00
H1532  H     0.16022   0.94803   0.37663   0.00000  Uiso   1.00
H1533  H     0.11024   0.92595   0.64136   0.00000  Uiso   1.00
H1534  H     0.03449   0.93367   0.64902   0.00000  Uiso   1.00
H1535  H     0.00972   0.96596   0.38972   0.00000  Uiso   1.00
H1536  H     0.06048   0.98473   0.45843   0.00000  Uiso   1.00
O1537  O     0.43988   0.87291   0.50000   0.00000  Uiso   1.00
O1538  O     0.56012   0.79375   0.50000   0.00000  Uiso   1.00
O1539  O     0.56012   0.87291   0.50000   0.00000  Uiso   1.00
O1540  O     0.43988   0.79375   0.50000   0.00000  Uiso   1.00
C1541  C     0.42116   0.83455   0.50456   0.00000  Uiso   1.00
C1542  C     0.57884   0.83211   0.49545   0.00000  Uiso   1.00
O1543  O     0.50000   0.87292   0.42946   0.00000  Uiso   1.00
O1544  O     0.50000   0.79375   0.57054   0.00000  Uiso   1.00
O1545  O     0.50000   0.87292   0.57054   0.00000  Uiso   1.00
O1546  O     0.50000   0.79375   0.42946   0.00000  Uiso   1.00
C1547  C     0.49981   0.83377   0.40693   0.00000  Uiso   1.00
C1548  C     0.50019   0.83290   0.59307   0.00000  Uiso   1.00
Cu1549 Cu    0.50000   0.88022   0.50000   0.00000  Uiso   1.00
Cu1550 Cu    0.50000   0.78645   0.50000   0.00000  Uiso   1.00
C1551  C     0.49996   0.83389   0.35511   0.00000  Uiso   1.00
C1552  C     0.50005   0.83278   0.64489   0.00000  Uiso   1.00
C1553  C     0.35913   0.79450   0.52102   0.00000  Uiso   1.00
C1554  C     0.64088   0.87219   0.47902   0.00000  Uiso   1.00
C1555  C     0.65037   0.79073   0.50450   0.00000  Uiso   1.00
C1556  C     0.34964   0.87596   0.49555   0.00000  Uiso   1.00
C1557  C     0.62373   0.83073   0.49026   0.00000  Uiso   1.00
C1558  C     0.37628   0.83595   0.50977   0.00000  Uiso   1.00
C1559  C     0.47561   0.69490   0.46447   0.00000  Uiso   1.00
C1560  C     0.52439   0.97176   0.53553   0.00000  Uiso   1.00
C1561  C     0.52413   0.68775   0.53565   0.00000  Uiso   1.00
C1562  C     0.47587   0.97891   0.46435   0.00000  Uiso   1.00
N1563  N     0.50000   0.95069   0.50000   0.00000  Uiso   1.00
N1564  N     0.50000   0.71598   0.50000   0.00000  Uiso   1.00
N1565  N     0.37747   0.76721   0.56343   0.00000  Uiso   1.00
H1566  H     0.35648   0.76415   0.58831   0.00000  Uiso   1.00
C1567  C     0.40176   0.72353   0.55903   0.00000  Uiso   1.00
H1568  H     0.38629   0.70112   0.53243   0.00000  Uiso   1.00
H1569  H     0.40611   0.70397   0.59472   0.00000  Uiso   1.00
H1570  H     0.43320   0.72892   0.55005   0.00000  Uiso   1.00
N1571  N     0.62254   0.89947   0.43660   0.00000  Uiso   1.00
H1572  H     0.64354   0.90254   0.41172   0.00000  Uiso   1.00
C1573  C     0.59823   0.94316   0.44097   0.00000  Uiso   1.00
H1574  H     0.61376   0.96567   0.46742   0.00000  Uiso   1.00
H1575  H     0.56686   0.93777   0.45018   0.00000  Uiso   1.00
H1576  H     0.59372   0.96260   0.40521   0.00000  Uiso   1.00
N1577  N     0.63569   0.74632   0.49963   0.00000  Uiso   1.00
H1578  H     0.65486   0.71977   0.51738   0.00000  Uiso   1.00
C1579  C     0.61979   0.73443   0.45077   0.00000  Uiso   1.00
H1580  H     0.64323   0.71061   0.43565   0.00000  Uiso   1.00
H1581  H     0.61210   0.76536   0.42568   0.00000  Uiso   1.00
H1582  H     0.59103   0.71673   0.45234   0.00000  Uiso   1.00
N1583  N     0.36432   0.92037   0.50042   0.00000  Uiso   1.00
H1584  H     0.34514   0.94695   0.48274   0.00000  Uiso   1.00
C1585  C     0.38038   0.93221   0.54925   0.00000  Uiso   1.00
H1586  H     0.35708   0.95618   0.56443   0.00000  Uiso   1.00
H1587  H     0.40923   0.94976   0.54759   0.00000  Uiso   1.00
H1588  H     0.38798   0.90129   0.57435   0.00000  Uiso   1.00
C1589  C     0.44886   0.72294   0.42447   0.00000  Uiso   1.00
C1590  C     0.40813   0.74047   0.43021   0.00000  Uiso   1.00
C1591  C     0.38410   0.76855   0.39387   0.00000  Uiso   1.00
C1592  C     0.39952   0.77707   0.34988   0.00000  Uiso   1.00
C1593  C     0.43766   0.75501   0.34121   0.00000  Uiso   1.00
C1594  C     0.46206   0.72740   0.37806   0.00000  Uiso   1.00
H1595  H     0.39509   0.73338   0.46310   0.00000  Uiso   1.00
H1596  H     0.35373   0.78397   0.40002   0.00000  Uiso   1.00
H1597  H     0.38171   0.80046   0.65588   0.00000  Uiso   1.00
H1598  H     0.44865   0.76058   0.63965   0.00000  Uiso   1.00
H1599  H     0.49187   0.71103   0.37145   0.00000  Uiso   1.00
C1600  C     0.55116   0.94373   0.57550   0.00000  Uiso   1.00
C1601  C     0.53797   0.93924   0.62192   0.00000  Uiso   1.00
C1602  C     0.56239   0.91164   0.65876   0.00000  Uiso   1.00
C1603  C     0.60055   0.88962   0.65007   0.00000  Uiso   1.00
C1604  C     0.61594   0.89817   0.60608   0.00000  Uiso   1.00
C1605  C     0.59189   0.92623   0.56974   0.00000  Uiso   1.00
H1606  H     0.50815   0.95559   0.62854   0.00000  Uiso   1.00
H1607  H     0.55141   0.90605   0.36032   0.00000  Uiso   1.00
H1608  H     0.61837   0.86624   0.34407   0.00000  Uiso   1.00
H1609  H     0.64632   0.88278   0.59991   0.00000  Uiso   1.00
H1610  H     0.60491   0.93335   0.53684   0.00000  Uiso   1.00
C1611  C     0.55261   0.70679   0.57436   0.00000  Uiso   1.00
C1612  C     0.59541   0.69910   0.57241   0.00000  Uiso   1.00
C1613  C     0.62399   0.70827   0.61190   0.00000  Uiso   1.00
C1614  C     0.60991   0.72520   0.65423   0.00000  Uiso   1.00
C1615  C     0.56732   0.72974   0.65824   0.00000  Uiso   1.00
C1616  C     0.53898   0.71858   0.61911   0.00000  Uiso   1.00
H1617  H     0.60618   0.68196   0.54155   0.00000  Uiso   1.00
H1618  H     0.65694   0.70070   0.61028   0.00000  Uiso   1.00
H1619  H     0.63218   0.73297   0.35099   0.00000  Uiso   1.00
H1620  H     0.55643   0.74069   0.35865   0.00000  Uiso   1.00
H1621  H     0.50646   0.71861   0.62338   0.00000  Uiso   1.00
C1622  C     0.44739   0.95988   0.42565   0.00000  Uiso   1.00
C1623  C     0.46102   0.94807   0.38090   0.00000  Uiso   1.00
C1624  C     0.43268   0.93691   0.34177   0.00000  Uiso   1.00
C1625  C     0.39009   0.94145   0.34577   0.00000  Uiso   1.00
C1626  C     0.37600   0.95839   0.38810   0.00000  Uiso   1.00
C1627  C     0.40459   0.96757   0.42759   0.00000  Uiso   1.00
H1628  H     0.49355   0.94803   0.37663   0.00000  Uiso   1.00
H1629  H     0.44357   0.92595   0.64136   0.00000  Uiso   1.00
H1630  H     0.36782   0.93367   0.64902   0.00000  Uiso   1.00
H1631  H     0.34305   0.96596   0.38972   0.00000  Uiso   1.00
H1632  H     0.39381   0.98473   0.45843   0.00000  Uiso   1.00
O1633  O     0.77321   0.87291   0.50000   0.00000  Uiso   1.00
O1634  O     0.89345   0.79375   0.50000   0.00000  Uiso   1.00
O1635  O     0.89345   0.87291   0.50000   0.00000  Uiso   1.00
O1636  O     0.77321   0.79375   0.50000   0.00000  Uiso   1.00
C1637  C     0.75450   0.83455   0.50456   0.00000  Uiso   1.00
C1638  C     0.91217   0.83211   0.49545   0.00000  Uiso   1.00
O1639  O     0.83333   0.87292   0.42946   0.00000  Uiso   1.00
O1640  O     0.83333   0.79375   0.57054   0.00000  Uiso   1.00
O1641  O     0.83333   0.87292   0.57054   0.00000  Uiso   1.00
O1642  O     0.83333   0.79375   0.42946   0.00000  Uiso   1.00
C1643  C     0.83315   0.83377   0.40693   0.00000  Uiso   1.00
C1644  C     0.83352   0.83290   0.59307   0.00000  Uiso   1.00
Cu1645 Cu    0.83333   0.88022   0.50000   0.00000  Uiso   1.00
Cu1646 Cu    0.83333   0.78645   0.50000   0.00000  Uiso   1.00
C1647  C     0.83329   0.83389   0.35511   0.00000  Uiso   1.00
C1648  C     0.83338   0.83278   0.64489   0.00000  Uiso   1.00
C1649  C     0.69246   0.79450   0.52102   0.00000  Uiso   1.00
C1650  C     0.97421   0.87219   0.47902   0.00000  Uiso   1.00
C1651  C     0.98370   0.79073   0.50450   0.00000  Uiso   1.00
C1652  C     0.68297   0.87596   0.49555   0.00000  Uiso   1.00
C1653  C     0.95706   0.83073   0.49026   0.00000  Uiso   1.00
C1654  C     0.70961   0.83595   0.50977   0.00000  Uiso   1.00
C1655  C     0.80895   0.69490   0.46447   0.00000  Uiso   1.00
C1656  C     0.85772   0.97176   0.53553   0.00000  Uiso   1.00
C1657  C     0.85746   0.68775   0.53565   0.00000  Uiso   1.00
C1658  C     0.80920   0.97891   0.46435   0.00000  Uiso   1.00
N1659  N     0.83333   0.95069   0.50000   0.00000  Uiso   1.00
N1660  N     0.83333   0.71598   0.50000   0.00000  Uiso   1.00
N1661  N     0.71080   0.76721   0.56343   0.00000  Uiso   1.00
H1662  H     0.68981   0.76415   0.58831   0.00000  Uiso   1.00
C1663  C     0.73510   0.72353   0.55903   0.00000  Uiso   1.00
H1664  H     0.71963   0.70112   0.53243   0.00000  Uiso   1.00
H1665  H     0.73945   0.70397   0.59472   0.00000  Uiso   1.00
H1666  H     0.76653   0.72892   0.55005   0.00000  Uiso   1.00
N1667  N     0.95587   0.89947   0.43660   0.00000  Uiso   1.00
H1668  H     0.97687   0.90254   0.41172   0.00000  Uiso   1.00
C1669  C     0.93156   0.94316   0.44097   0.00000  Uiso   1.00
H1670  H     0.94710   0.96567   0.46742   0.00000  Uiso   1.00
H1671  H     0.90019   0.93777   0.45018   0.00000  Uiso   1.00
H1672  H     0.92705   0.96260   0.40521   0.00000  Uiso   1.00
N1673  N     0.96903   0.74632   0.49963   0.00000  Uiso   1.00
H1674  H     0.98820   0.71977   0.51738   0.00000  Uiso   1.00
C1675  C     0.95313   0.73443   0.45077   0.00000  Uiso   1.00
H1676  H     0.97656   0.71061   0.43565   0.00000  Uiso   1.00
H1677  H     0.94543   0.76536   0.42568   0.00000  Uiso   1.00
H1678  H     0.92436   0.71673   0.45234   0.00000  Uiso   1.00
N1679  N     0.69765   0.92037   0.50042   0.00000  Uiso   1.00
H1680  H     0.67847   0.94695   0.48274   0.00000  Uiso   1.00
C1681  C     0.71372   0.93221   0.54925   0.00000  Uiso   1.00
H1682  H     0.69042   0.95618   0.56443   0.00000  Uiso   1.00
H1683  H     0.74256   0.94976   0.54759   0.00000  Uiso   1.00
H1684  H     0.72132   0.90129   0.57435   0.00000  Uiso   1.00
C1685  C     0.78219   0.72294   0.42447   0.00000  Uiso   1.00
C1686  C     0.74147   0.74047   0.43021   0.00000  Uiso   1.00
C1687  C     0.71744   0.76855   0.39387   0.00000  Uiso   1.00
C1688  C     0.73285   0.77707   0.34988   0.00000  Uiso   1.00
C1689  C     0.77099   0.75501   0.34121   0.00000  Uiso   1.00
C1690  C     0.79539   0.72740   0.37806   0.00000  Uiso   1.00
H1691  H     0.72842   0.73338   0.46310   0.00000  Uiso   1.00
H1692  H     0.68707   0.78397   0.40002   0.00000  Uiso   1.00
H1693  H     0.71505   0.80046   0.65588   0.00000  Uiso   1.00
H1694  H     0.78198   0.76058   0.63965   0.00000  Uiso   1.00
H1695  H     0.82521   0.71103   0.37145   0.00000  Uiso   1.00
C1696  C     0.88449   0.94373   0.57550   0.00000  Uiso   1.00
C1697  C     0.87130   0.93924   0.62192   0.00000  Uiso   1.00
C1698  C     0.89573   0.91164   0.65876   0.00000  Uiso   1.00
C1699  C     0.93388   0.88962   0.65007   0.00000  Uiso   1.00
C1700  C     0.94928   0.89817   0.60608   0.00000  Uiso   1.00
C1701  C     0.92522   0.92623   0.56974   0.00000  Uiso   1.00
H1702  H     0.84148   0.95559   0.62854   0.00000  Uiso   1.00
H1703  H     0.88474   0.90605   0.36032   0.00000  Uiso   1.00
H1704  H     0.95171   0.86624   0.34407   0.00000  Uiso   1.00
H1705  H     0.97965   0.88278   0.59991   0.00000  Uiso   1.00
H1706  H     0.93825   0.93335   0.53684   0.00000  Uiso   1.00
C1707  C     0.88594   0.70679   0.57436   0.00000  Uiso   1.00
C1708  C     0.92874   0.69910   0.57241   0.00000  Uiso   1.00
C1709  C     0.95733   0.70827   0.61190   0.00000  Uiso   1.00
C1710  C     0.94325   0.72520   0.65423   0.00000  Uiso   1.00
C1711  C     0.90066   0.72974   0.65824   0.00000  Uiso   1.00
C1712  C     0.87232   0.71858   0.61911   0.00000  Uiso   1.00
H1713  H     0.93951   0.68196   0.54155   0.00000  Uiso   1.00
H1714  H     0.99028   0.70070   0.61028   0.00000  Uiso   1.00
H1715  H     0.96551   0.73297   0.35099   0.00000  Uiso   1.00
H1716  H     0.88976   0.74069   0.35865   0.00000  Uiso   1.00
H1717  H     0.83979   0.71861   0.62338   0.00000  Uiso   1.00
C1718  C     0.78072   0.95988   0.42565   0.00000  Uiso   1.00
C1719  C     0.79435   0.94807   0.38090   0.00000  Uiso   1.00
C1720  C     0.76601   0.93691   0.34177   0.00000  Uiso   1.00
C1721  C     0.72342   0.94145   0.34577   0.00000  Uiso   1.00
C1722  C     0.70934   0.95839   0.38810   0.00000  Uiso   1.00
C1723  C     0.73792   0.96757   0.42759   0.00000  Uiso   1.00
H1724  H     0.82688   0.94803   0.37663   0.00000  Uiso   1.00
H1725  H     0.77691   0.92595   0.64136   0.00000  Uiso   1.00
H1726  H     0.70116   0.93367   0.64902   0.00000  Uiso   1.00
H1727  H     0.67639   0.96596   0.38972   0.00000  Uiso   1.00
H1728  H     0.72714   0.98473   0.45843   0.00000  Uiso   1.00
O1729  O     0.10655   0.20625   0.83333   0.00000  Uiso   1.00
O1730  O     0.22679   0.12709   0.83334   0.00000  Uiso   1.00
O1731  O     0.22679   0.20625   0.83334   0.00000  Uiso   1.00
O1732  O     0.10655   0.12709   0.83333   0.00000  Uiso   1.00
C1733  C     0.08783   0.16789   0.83789   0.00000  Uiso   1.00
C1734  C     0.24551   0.16545   0.82878   0.00000  Uiso   1.00
O1735  O     0.16667   0.20625   0.76280   0.00000  Uiso   1.00
O1736  O     0.16667   0.12708   0.90387   0.00000  Uiso   1.00
O1737  O     0.16667   0.20625   0.90387   0.00000  Uiso   1.00
O1738  O     0.16667   0.12708   0.76280   0.00000  Uiso   1.00
C1739  C     0.16648   0.16710   0.74026   0.00000  Uiso   1.00
C1740  C     0.16686   0.16623   0.92640   0.00000  Uiso   1.00
Cu1741 Cu    0.16667   0.21355   0.83333   0.00000  Uiso   1.00
Cu1742 Cu    0.16667   0.11978   0.83333   0.00000  Uiso   1.00
C1743  C     0.16662   0.16723   0.68844   0.00000  Uiso   1.00
C1744  C     0.16671   0.16611   0.97822   0.00000  Uiso   1.00
C1745  C     0.02580   0.12784   0.85435   0.00000  Uiso   1.00
C1746  C     0.30754   0.20552   0.81235   0.00000  Uiso   1.00
C1747  C     0.31703   0.12407   0.83783   0.00000  Uiso   1.00
C1748  C     0.01631   0.20929   0.82888   0.00000  Uiso   1.00
C1749  C     0.29040   0.16406   0.82359   0.00000  Uiso   1.00
C1750  C     0.04294   0.16928   0.84310   0.00000  Uiso   1.00
C1751  C     0.14228   0.02824   0.79780   0.00000  Uiso   1.00
C1752  C     0.19105   0.30510   0.86886   0.00000  Uiso   1.00
C1753  C     0.19080   0.02109   0.86898   0.00000  Uiso   1.00
C1754  C     0.14253   0.31225   0.79768   0.00000  Uiso   1.00
N1755  N     0.16667   0.28402   0.83333   0.00000  Uiso   1.00
N1756  N     0.16667   0.04931   0.83333   0.00000  Uiso   1.00
N1757  N     0.04414   0.10055   0.89676   0.00000  Uiso   1.00
H1758  H     0.02315   0.09749   0.92164   0.00000  Uiso   1.00
C1759  C     0.06843   0.05686   0.89237   0.00000  Uiso   1.00
H1760  H     0.05296   0.03445   0.86577   0.00000  Uiso   1.00
H1761  H     0.07278   0.03731   0.92805   0.00000  Uiso   1.00
H1762  H     0.09986   0.06226   0.88338   0.00000  Uiso   1.00
N1763  N     0.28921   0.23281   0.76994   0.00000  Uiso   1.00
H1764  H     0.31020   0.23587   0.74506   0.00000  Uiso   1.00
C1765  C     0.26489   0.27649   0.77430   0.00000  Uiso   1.00
H1766  H     0.28043   0.29900   0.80075   0.00000  Uiso   1.00
H1767  H     0.23352   0.27110   0.78352   0.00000  Uiso   1.00
H1768  H     0.26039   0.29593   0.73854   0.00000  Uiso   1.00
N1769  N     0.30236   0.07965   0.83297   0.00000  Uiso   1.00
H1770  H     0.32153   0.05310   0.85071   0.00000  Uiso   1.00
C1771  C     0.28646   0.06777   0.78411   0.00000  Uiso   1.00
H1772  H     0.30989   0.04394   0.76898   0.00000  Uiso   1.00
H1773  H     0.27877   0.09869   0.75901   0.00000  Uiso   1.00
H1774  H     0.25769   0.05006   0.78567   0.00000  Uiso   1.00
N1775  N     0.03099   0.25371   0.83375   0.00000  Uiso   1.00
H1776  H     0.01180   0.28029   0.81607   0.00000  Uiso   1.00
C1777  C     0.04705   0.26555   0.88258   0.00000  Uiso   1.00
H1778  H     0.02375   0.28951   0.89776   0.00000  Uiso   1.00
H1779  H     0.07590   0.28309   0.88092   0.00000  Uiso   1.00
H1780  H     0.05465   0.23462   0.90768   0.00000  Uiso   1.00
C1781  C     0.11553   0.05627   0.75781   0.00000  Uiso   1.00
C1782  C     0.07480   0.07381   0.76354   0.00000  Uiso   1.00
C1783  C     0.05077   0.10189   0.72720   0.00000  Uiso   1.00
C1784  C     0.06619   0.11041   0.68321   0.00000  Uiso   1.00
C1785  C     0.10432   0.08835   0.67454   0.00000  Uiso   1.00
C1786  C     0.12873   0.06074   0.71139   0.00000  Uiso   1.00
H1787  H     0.06176   0.06672   0.79644   0.00000  Uiso   1.00
H1788  H     0.02040   0.11730   0.73336   0.00000  Uiso   1.00
H1789  H     0.04838   0.13380   0.98921   0.00000  Uiso   1.00
H1790  H     0.11532   0.09391   0.97298   0.00000  Uiso   1.00
H1791  H     0.15854   0.04437   0.70479   0.00000  Uiso   1.00
C1792  C     0.21782   0.27706   0.90884   0.00000  Uiso   1.00
C1793  C     0.20464   0.27257   0.95525   0.00000  Uiso   1.00
C1794  C     0.22906   0.24497   0.99210   0.00000  Uiso   1.00
C1795  C     0.26721   0.22295   0.98341   0.00000  Uiso   1.00
C1796  C     0.28261   0.23150   0.93941   0.00000  Uiso   1.00
C1797  C     0.25856   0.25957   0.90308   0.00000  Uiso   1.00
H1798  H     0.17482   0.28892   0.96188   0.00000  Uiso   1.00
H1799  H     0.21807   0.23939   0.69365   0.00000  Uiso   1.00
H1800  H     0.28504   0.19958   0.67741   0.00000  Uiso   1.00
H1801  H     0.31299   0.21611   0.93324   0.00000  Uiso   1.00
H1802  H     0.27158   0.26669   0.87017   0.00000  Uiso   1.00
C1803  C     0.21928   0.04013   0.90769   0.00000  Uiso   1.00
C1804  C     0.26207   0.03244   0.90574   0.00000  Uiso   1.00
C1805  C     0.29066   0.04160   0.94523   0.00000  Uiso   1.00
C1806  C     0.27658   0.05853   0.98757   0.00000  Uiso   1.00
C1807  C     0.23399   0.06307   0.99158   0.00000  Uiso   1.00
C1808  C     0.20565   0.05191   0.95244   0.00000  Uiso   1.00
H1809  H     0.27285   0.01529   0.87489   0.00000  Uiso   1.00
H1810  H     0.32361   0.03404   0.94361   0.00000  Uiso   1.00
H1811  H     0.29884   0.06631   0.68432   0.00000  Uiso   1.00
H1812  H     0.22310   0.07403   0.69199   0.00000  Uiso   1.00
H1813  H     0.17312   0.05194   0.95671   0.00000  Uiso   1.00
C1814  C     0.11405   0.29321   0.75898   0.00000  Uiso   1.00
C1815  C     0.12768   0.28141   0.71423   0.00000  Uiso   1.00
C1816  C     0.09935   0.27024   0.67510   0.00000  Uiso   1.00
C1817  C     0.05675   0.27479   0.67911   0.00000  Uiso   1.00
C1818  C     0.04267   0.29173   0.72143   0.00000  Uiso   1.00
C1819  C     0.07125   0.30090   0.76092   0.00000  Uiso   1.00
H1820  H     0.16022   0.28137   0.70996   0.00000  Uiso   1.00
H1821  H     0.11024   0.25928   0.97469   0.00000  Uiso   1.00
H1822  H     0.03449   0.26700   0.98235   0.00000  Uiso   1.00
H1823  H     0.00972   0.29930   0.72305   0.00000  Uiso   1.00
H1824  H     0.06048   0.31806   0.79177   0.00000  Uiso   1.00
O1825  O     0.43988   0.20625   0.83333   0.00000  Uiso   1.00
O1826  O     0.56012   0.12709   0.83334   0.00000  Uiso   1.00
O1827  O     0.56012   0.20625   0.83334   0.00000  Uiso   1.00
O1828  O     0.43988   0.12709   0.83333   0.00000  Uiso   1.00
C1829  C     0.42116   0.16789   0.83789   0.00000  Uiso   1.00
C1830  C     0.57884   0.16545   0.82878   0.00000  Uiso   1.00
O1831  O     0.50000   0.20625   0.76280   0.00000  Uiso   1.00
O1832  O     0.50000   0.12708   0.90387   0.00000  Uiso   1.00
O1833  O     0.50000   0.20625   0.90387   0.00000  Uiso   1.00
O1834  O     0.50000   0.12708   0.76280   0.00000  Uiso   1.00
C1835  C     0.49981   0.16710   0.74026   0.00000  Uiso   1.00
C1836  C     0.50019   0.16623   0.92640   0.00000  Uiso   1.00
Cu1837 Cu    0.50000   0.21355   0.83333   0.00000  Uiso   1.00
Cu1838 Cu    0.50000   0.11978   0.83333   0.00000  Uiso   1.00
C1839  C     0.49996   0.16723   0.68844   0.00000  Uiso   1.00
C1840  C     0.50005   0.16611   0.97822   0.00000  Uiso   1.00
C1841  C     0.35913   0.12784   0.85435   0.00000  Uiso   1.00
C1842  C     0.64088   0.20552   0.81235   0.00000  Uiso   1.00
C1843  C     0.65037   0.12407   0.83783   0.00000  Uiso   1.00
C1844  C     0.34964   0.20929   0.82888   0.00000  Uiso   1.00
C1845  C     0.62373   0.16406   0.82359   0.00000  Uiso   1.00
C1846  C     0.37628   0.16928   0.84310   0.00000  Uiso   1.00
C1847  C     0.47561   0.02824   0.79780   0.00000  Uiso   1.00
C1848  C     0.52439   0.30510   0.86886   0.00000  Uiso   1.00
C1849  C     0.52413   0.02109   0.86898   0.00000  Uiso   1.00
C1850  C     0.47587   0.31225   0.79768   0.00000  Uiso   1.00
N1851  N     0.50000   0.28402   0.83333   0.00000  Uiso   1.00
N1852  N     0.50000   0.04931   0.83333   0.00000  Uiso   1.00
N1853  N     0.37747   0.10055   0.89676   0.00000  Uiso   1.00
H1854  H     0.35648   0.09749   0.92164   0.00000  Uiso   1.00
C1855  C     0.40176   0.05686   0.89237   0.00000  Uiso   1.00
H1856  H     0.38629   0.03445   0.86577   0.00000  Uiso   1.00
H1857  H     0.40611   0.03731   0.92805   0.00000  Uiso   1.00
H1858  H     0.43320   0.06226   0.88338   0.00000  Uiso   1.00
N1859  N     0.62254   0.23281   0.76994   0.00000  Uiso   1.00
H1860  H     0.64354   0.23587   0.74506   0.00000  Uiso   1.00
C1861  C     0.59823   0.27649   0.77430   0.00000  Uiso   1.00
H1862  H     0.61376   0.29900   0.80075   0.00000  Uiso   1.00
H1863  H     0.56686   0.27110   0.78352   0.00000  Uiso   1.00
H1864  H     0.59372   0.29593   0.73854   0.00000  Uiso   1.00
N1865  N     0.63569   0.07965   0.83297   0.00000  Uiso   1.00
H1866  H     0.65486   0.05310   0.85071   0.00000  Uiso   1.00
C1867  C     0.61979   0.06777   0.78411   0.00000  Uiso   1.00
H1868  H     0.64323   0.04394   0.76898   0.00000  Uiso   1.00
H1869  H     0.61210   0.09869   0.75901   0.00000  Uiso   1.00
H1870  H     0.59103   0.05006   0.78567   0.00000  Uiso   1.00
N1871  N     0.36432   0.25371   0.83375   0.00000  Uiso   1.00
H1872  H     0.34514   0.28029   0.81607   0.00000  Uiso   1.00
C1873  C     0.38038   0.26555   0.88258   0.00000  Uiso   1.00
H1874  H     0.35708   0.28951   0.89776   0.00000  Uiso   1.00
H1875  H     0.40923   0.28309   0.88092   0.00000  Uiso   1.00
H1876  H     0.38798   0.23462   0.90768   0.00000  Uiso   1.00
C1877  C     0.44886   0.05627   0.75781   0.00000  Uiso   1.00
C1878  C     0.40813   0.07381   0.76354   0.00000  Uiso   1.00
C1879  C     0.38410   0.10189   0.72720   0.00000  Uiso   1.00
C1880  C     0.39952   0.11041   0.68321   0.00000  Uiso   1.00
C1881  C     0.43766   0.08835   0.67454   0.00000  Uiso   1.00
C1882  C     0.46206   0.06074   0.71139   0.00000  Uiso   1.00
H1883  H     0.39509   0.06672   0.79644   0.00000  Uiso   1.00
H1884  H     0.35373   0.11730   0.73336   0.00000  Uiso   1.00
H1885  H     0.38171   0.13380   0.98921   0.00000  Uiso   1.00
H1886  H     0.44865   0.09391   0.97298   0.00000  Uiso   1.00
H1887  H     0.49187   0.04437   0.70479   0.00000  Uiso   1.00
C1888  C     0.55116   0.27706   0.90884   0.00000  Uiso   1.00
C1889  C     0.53797   0.27257   0.95525   0.00000  Uiso   1.00
C1890  C     0.56239   0.24497   0.99210   0.00000  Uiso   1.00
C1891  C     0.60055   0.22295   0.98341   0.00000  Uiso   1.00
C1892  C     0.61594   0.23150   0.93941   0.00000  Uiso   1.00
C1893  C     0.59189   0.25957   0.90308   0.00000  Uiso   1.00
H1894  H     0.50815   0.28892   0.96188   0.00000  Uiso   1.00
H1895  H     0.55141   0.23939   0.69365   0.00000  Uiso   1.00
H1896  H     0.61837   0.19958   0.67741   0.00000  Uiso   1.00
H1897  H     0.64632   0.21611   0.93324   0.00000  Uiso   1.00
H1898  H     0.60491   0.26669   0.87017   0.00000  Uiso   1.00
C1899  C     0.55261   0.04013   0.90769   0.00000  Uiso   1.00
C1900  C     0.59541   0.03244   0.90574   0.00000  Uiso   1.00
C1901  C     0.62399   0.04160   0.94523   0.00000  Uiso   1.00
C1902  C     0.60991   0.05853   0.98757   0.00000  Uiso   1.00
C1903  C     0.56732   0.06307   0.99158   0.00000  Uiso   1.00
C1904  C     0.53898   0.05191   0.95244   0.00000  Uiso   1.00
H1905  H     0.60618   0.01529   0.87489   0.00000  Uiso   1.00
H1906  H     0.65694   0.03404   0.94361   0.00000  Uiso   1.00
H1907  H     0.63218   0.06631   0.68432   0.00000  Uiso   1.00
H1908  H     0.55643   0.07403   0.69199   0.00000  Uiso   1.00
H1909  H     0.50646   0.05194   0.95671   0.00000  Uiso   1.00
C1910  C     0.44739   0.29321   0.75898   0.00000  Uiso   1.00
C1911  C     0.46102   0.28141   0.71423   0.00000  Uiso   1.00
C1912  C     0.43268   0.27024   0.67510   0.00000  Uiso   1.00
C1913  C     0.39009   0.27479   0.67911   0.00000  Uiso   1.00
C1914  C     0.37600   0.29173   0.72143   0.00000  Uiso   1.00
C1915  C     0.40459   0.30090   0.76092   0.00000  Uiso   1.00
H1916  H     0.49355   0.28137   0.70996   0.00000  Uiso   1.00
H1917  H     0.44357   0.25928   0.97469   0.00000  Uiso   1.00
H1918  H     0.36782   0.26700   0.98235   0.00000  Uiso   1.00
H1919  H     0.34305   0.29930   0.72305   0.00000  Uiso   1.00
H1920  H     0.39381   0.31806   0.79177   0.00000  Uiso   1.00
O1921  O     0.77321   0.20625   0.83333   0.00000  Uiso   1.00
O1922  O     0.89345   0.12709   0.83334   0.00000  Uiso   1.00
O1923  O     0.89345   0.20625   0.83334   0.00000  Uiso   1.00
O1924  O     0.77321   0.12709   0.83333   0.00000  Uiso   1.00
C1925  C     0.75450   0.16789   0.83789   0.00000  Uiso   1.00
C1926  C     0.91217   0.16545   0.82878   0.00000  Uiso   1.00
O1927  O     0.83333   0.20625   0.76280   0.00000  Uiso   1.00
O1928  O     0.83333   0.12708   0.90387   0.00000  Uiso   1.00
O1929  O     0.83333   0.20625   0.90387   0.00000  Uiso   1.00
O1930  O     0.83333   0.12708   0.76280   0.00000  Uiso   1.00
C1931  C     0.83315   0.16710   0.74026   0.00000  Uiso   1.00
C1932  C     0.83352   0.16623   0.92640   0.00000  Uiso   1.00
Cu1933 Cu    0.83333   0.21355   0.83333   0.00000  Uiso   1.00
Cu1934 Cu    0.83333   0.11978   0.83333   0.00000  Uiso   1.00
C1935  C     0.83329   0.16723   0.68844   0.00000  Uiso   1.00
C1936  C     0.83338   0.16611   0.97822   0.00000  Uiso   1.00
C1937  C     0.69246   0.12784   0.85435   0.00000  Uiso   1.00
C1938  C     0.97421   0.20552   0.81235   0.00000  Uiso   1.00
C1939  C     0.98370   0.12407   0.83783   0.00000  Uiso   1.00
C1940  C     0.68297   0.20929   0.82888   0.00000  Uiso   1.00
C1941  C     0.95706   0.16406   0.82359   0.00000  Uiso   1.00
C1942  C     0.70961   0.16928   0.84310   0.00000  Uiso   1.00
C1943  C     0.80895   0.02824   0.79780   0.00000  Uiso   1.00
C1944  C     0.85772   0.30510   0.86886   0.00000  Uiso   1.00
C1945  C     0.85746   0.02109   0.86898   0.00000  Uiso   1.00
C1946  C     0.80920   0.31225   0.79768   0.00000  Uiso   1.00
N1947  N     0.83333   0.28402   0.83333   0.00000  Uiso   1.00
N1948  N     0.83333   0.04931   0.83333   0.00000  Uiso   1.00
N1949  N     0.71080   0.10055   0.89676   0.00000  Uiso   1.00
H1950  H     0.68981   0.09749   0.92164   0.00000  Uiso   1.00
C1951  C     0.73510   0.05686   0.89237   0.00000  Uiso   1.00
H1952  H     0.71963   0.03445   0.86577   0.00000  Uiso   1.00
H1953  H     0.73945   0.03731   0.92805   0.00000  Uiso   1.00
H1954  H     0.76653   0.06226   0.88338   0.00000  Uiso   1.00
N1955  N     0.95587   0.23281   0.76994   0.00000  Uiso   1.00
H1956  H     0.97687   0.23587   0.74506   0.00000  Uiso   1.00
C1957  C     0.93156   0.27649   0.77430   0.00000  Uiso   1.00
H1958  H     0.94710   0.29900   0.80075   0.00000  Uiso   1.00
H1959  H     0.90019   0.27110   0.78352   0.00000  Uiso   1.00
H1960  H     0.92705   0.29593   0.73854   0.00000  Uiso   1.00
N1961  N     0.96903   0.07965   0.83297   0.00000  Uiso   1.00
H1962  H     0.98820   0.05310   0.85071   0.00000  Uiso   1.00
C1963  C     0.95313   0.06777   0.78411   0.00000  Uiso   1.00
H1964  H     0.97656   0.04394   0.76898   0.00000  Uiso   1.00
H1965  H     0.94543   0.09869   0.75901   0.00000  Uiso   1.00
H1966  H     0.92436   0.05006   0.78567   0.00000  Uiso   1.00
N1967  N     0.69765   0.25371   0.83375   0.00000  Uiso   1.00
H1968  H     0.67847   0.28029   0.81607   0.00000  Uiso   1.00
C1969  C     0.71372   0.26555   0.88258   0.00000  Uiso   1.00
H1970  H     0.69042   0.28951   0.89776   0.00000  Uiso   1.00
H1971  H     0.74256   0.28309   0.88092   0.00000  Uiso   1.00
H1972  H     0.72132   0.23462   0.90768   0.00000  Uiso   1.00
C1973  C     0.78219   0.05627   0.75781   0.00000  Uiso   1.00
C1974  C     0.74147   0.07381   0.76354   0.00000  Uiso   1.00
C1975  C     0.71744   0.10189   0.72720   0.00000  Uiso   1.00
C1976  C     0.73285   0.11041   0.68321   0.00000  Uiso   1.00
C1977  C     0.77099   0.08835   0.67454   0.00000  Uiso   1.00
C1978  C     0.79539   0.06074   0.71139   0.00000  Uiso   1.00
H1979  H     0.72842   0.06672   0.79644   0.00000  Uiso   1.00
H1980  H     0.68707   0.11730   0.73336   0.00000  Uiso   1.00
H1981  H     0.71505   0.13380   0.98921   0.00000  Uiso   1.00
H1982  H     0.78198   0.09391   0.97298   0.00000  Uiso   1.00
H1983  H     0.82521   0.04437   0.70479   0.00000  Uiso   1.00
C1984  C     0.88449   0.27706   0.90884   0.00000  Uiso   1.00
C1985  C     0.87130   0.27257   0.95525   0.00000  Uiso   1.00
C1986  C     0.89573   0.24497   0.99210   0.00000  Uiso   1.00
C1987  C     0.93388   0.22295   0.98341   0.00000  Uiso   1.00
C1988  C     0.94928   0.23150   0.93941   0.00000  Uiso   1.00
C1989  C     0.92522   0.25957   0.90308   0.00000  Uiso   1.00
H1990  H     0.84148   0.28892   0.96188   0.00000  Uiso   1.00
H1991  H     0.88474   0.23939   0.69365   0.00000  Uiso   1.00
H1992  H     0.95171   0.19958   0.67741   0.00000  Uiso   1.00
H1993  H     0.97965   0.21611   0.93324   0.00000  Uiso   1.00
H1994  H     0.93825   0.26669   0.87017   0.00000  Uiso   1.00
C1995  C     0.88594   0.04013   0.90769   0.00000  Uiso   1.00
C1996  C     0.92874   0.03244   0.90574   0.00000  Uiso   1.00
C1997  C     0.95733   0.04160   0.94523   0.00000  Uiso   1.00
C1998  C     0.94325   0.05853   0.98757   0.00000  Uiso   1.00
C1999  C     0.90066   0.06307   0.99158   0.00000  Uiso   1.00
C2000  C     0.87232   0.05191   0.95244   0.00000  Uiso   1.00
H2001  H     0.93951   0.01529   0.87489   0.00000  Uiso   1.00
H2002  H     0.99028   0.03404   0.94361   0.00000  Uiso   1.00
H2003  H     0.96551   0.06631   0.68432   0.00000  Uiso   1.00
H2004  H     0.88976   0.07403   0.69199   0.00000  Uiso   1.00
H2005  H     0.83979   0.05194   0.95671   0.00000  Uiso   1.00
C2006  C     0.78072   0.29321   0.75898   0.00000  Uiso   1.00
C2007  C     0.79435   0.28141   0.71423   0.00000  Uiso   1.00
C2008  C     0.76601   0.27024   0.67510   0.00000  Uiso   1.00
C2009  C     0.72342   0.27479   0.67911   0.00000  Uiso   1.00
C2010  C     0.70934   0.29173   0.72143   0.00000  Uiso   1.00
C2011  C     0.73792   0.30090   0.76092   0.00000  Uiso   1.00
H2012  H     0.82688   0.28137   0.70996   0.00000  Uiso   1.00
H2013  H     0.77691   0.25928   0.97469   0.00000  Uiso   1.00
H2014  H     0.70116   0.26700   0.98235   0.00000  Uiso   1.00
H2015  H     0.67639   0.29930   0.72305   0.00000  Uiso   1.00
H2016  H     0.72714   0.31806   0.79177   0.00000  Uiso   1.00
O2017  O     0.10655   0.53958   0.83333   0.00000  Uiso   1.00
O2018  O     0.22679   0.46042   0.83334   0.00000  Uiso   1.00
O2019  O     0.22679   0.53958   0.83334   0.00000  Uiso   1.00
O2020  O     0.10655   0.46042   0.83333   0.00000  Uiso   1.00
C2021  C     0.08783   0.50122   0.83789   0.00000  Uiso   1.00
C2022  C     0.24551   0.49878   0.82878   0.00000  Uiso   1.00
O2023  O     0.16667   0.53959   0.76280   0.00000  Uiso   1.00
O2024  O     0.16667   0.46041   0.90387   0.00000  Uiso   1.00
O2025  O     0.16667   0.53959   0.90387   0.00000  Uiso   1.00
O2026  O     0.16667   0.46041   0.76280   0.00000  Uiso   1.00
C2027  C     0.16648   0.50043   0.74026   0.00000  Uiso   1.00
C2028  C     0.16686   0.49957   0.92640   0.00000  Uiso   1.00
Cu2029 Cu    0.16667   0.54689   0.83333   0.00000  Uiso   1.00
Cu2030 Cu    0.16667   0.45311   0.83333   0.00000  Uiso   1.00
C2031  C     0.16662   0.50056   0.68844   0.00000  Uiso   1.00
C2032  C     0.16671   0.49944   0.97822   0.00000  Uiso   1.00
C2033  C     0.02580   0.46117   0.85435   0.00000  Uiso   1.00
C2034  C     0.30754   0.53885   0.81235   0.00000  Uiso   1.00
C2035  C     0.31703   0.45740   0.83783   0.00000  Uiso   1.00
C2036  C     0.01631   0.54262   0.82888   0.00000  Uiso   1.00
C2037  C     0.29040   0.49740   0.82359   0.00000  Uiso   1.00
C2038  C     0.04294   0.50262   0.84310   0.00000  Uiso   1.00
C2039  C     0.14228   0.36157   0.79780   0.00000  Uiso   1.00
C2040  C     0.19105   0.63843   0.86886   0.00000  Uiso   1.00
C2041  C     0.19080   0.35442   0.86898   0.00000  Uiso   1.00
C2042  C     0.14253   0.64558   0.79768   0.00000  Uiso   1.00
N2043  N     0.16667   0.61736   0.83333   0.00000  Uiso   1.00
N2044  N     0.16667   0.38264   0.83333   0.00000  Uiso   1.00
N2045  N     0.04414   0.43388   0.89676   0.00000  Uiso   1.00
H2046  H     0.02315   0.43082   0.92164   0.00000  Uiso   1.00
C2047  C     0.06843   0.39019   0.89237   0.00000  Uiso   1.00
H2048  H     0.05296   0.36779   0.86577   0.00000  Uiso   1.00
H2049  H     0.07278   0.37064   0.92805   0.00000  Uiso   1.00
H2050  H     0.09986   0.39559   0.88338   0.00000  Uiso   1.00
N2051  N     0.28921   0.56614   0.76994   0.00000  Uiso   1.00
H2052  H     0.31020   0.56920   0.74506   0.00000  Uiso   1.00
C2053  C     0.26489   0.60982   0.77430   0.00000  Uiso   1.00
H2054  H     0.28043   0.63234   0.80075   0.00000  Uiso   1.00
H2055  H     0.23352   0.60444   0.78352   0.00000  Uiso   1.00
H2056  H     0.26039   0.62927   0.73854   0.00000  Uiso   1.00
N2057  N     0.30236   0.41299   0.83297   0.00000  Uiso   1.00
H2058  H     0.32153   0.38644   0.85071   0.00000  Uiso   1.00
C2059  C     0.28646   0.40110   0.78411   0.00000  Uiso   1.00
H2060  H     0.30989   0.37728   0.76898   0.00000  Uiso   1.00
H2061  H     0.27877   0.43202   0.75901   0.00000  Uiso   1.00
H2062  H     0.25769   0.38340   0.78567   0.00000  Uiso   1.00
N2063  N     0.03099   0.58704   0.83375   0.00000  Uiso   1.00
H2064  H     0.01180   0.61362   0.81607   0.00000  Uiso   1.00
C2065  C     0.04705   0.59888   0.88258   0.00000  Uiso   1.00
H2066  H     0.02375   0.62285   0.89776   0.00000  Uiso   1.00
H2067  H     0.07590   0.61643   0.88092   0.00000  Uiso   1.00
H2068  H     0.05465   0.56795   0.90768   0.00000  Uiso   1.00
C2069  C     0.11553   0.38960   0.75781   0.00000  Uiso   1.00
C2070  C     0.07480   0.40714   0.76354   0.00000  Uiso   1.00
C2071  C     0.05077   0.43522   0.72720   0.00000  Uiso   1.00
C2072  C     0.06619   0.44374   0.68321   0.00000  Uiso   1.00
C2073  C     0.10432   0.42168   0.67454   0.00000  Uiso   1.00
C2074  C     0.12873   0.39407   0.71139   0.00000  Uiso   1.00
H2075  H     0.06176   0.40005   0.79644   0.00000  Uiso   1.00
H2076  H     0.02040   0.45063   0.73336   0.00000  Uiso   1.00
H2077  H     0.04838   0.46713   0.98921   0.00000  Uiso   1.00
H2078  H     0.11532   0.42725   0.97298   0.00000  Uiso   1.00
H2079  H     0.15854   0.37770   0.70479   0.00000  Uiso   1.00
C2080  C     0.21782   0.61040   0.90884   0.00000  Uiso   1.00
C2081  C     0.20464   0.60591   0.95525   0.00000  Uiso   1.00
C2082  C     0.22906   0.57830   0.99210   0.00000  Uiso   1.00
C2083  C     0.26721   0.55629   0.98341   0.00000  Uiso   1.00
C2084  C     0.28261   0.56483   0.93941   0.00000  Uiso   1.00
C2085  C     0.25856   0.59290   0.90308   0.00000  Uiso   1.00
H2086  H     0.17482   0.62225   0.96188   0.00000  Uiso   1.00
H2087  H     0.21807   0.57272   0.69365   0.00000  Uiso   1.00
H2088  H     0.28504   0.53291   0.67741   0.00000  Uiso   1.00
H2089  H     0.31299   0.54945   0.93324   0.00000  Uiso   1.00
H2090  H     0.27158   0.60002   0.87017   0.00000  Uiso   1.00
C2091  C     0.21928   0.37346   0.90769   0.00000  Uiso   1.00
C2092  C     0.26207   0.36577   0.90574   0.00000  Uiso   1.00
C2093  C     0.29066   0.37493   0.94523   0.00000  Uiso   1.00
C2094  C     0.27658   0.39187   0.98757   0.00000  Uiso   1.00
C2095  C     0.23399   0.39641   0.99158   0.00000  Uiso   1.00
C2096  C     0.20565   0.38525   0.95244   0.00000  Uiso   1.00
H2097  H     0.27285   0.34862   0.87489   0.00000  Uiso   1.00
H2098  H     0.32361   0.36737   0.94361   0.00000  Uiso   1.00
H2099  H     0.29884   0.39964   0.68432   0.00000  Uiso   1.00
H2100  H     0.22310   0.40736   0.69199   0.00000  Uiso   1.00
H2101  H     0.17312   0.38528   0.95671   0.00000  Uiso   1.00
C2102  C     0.11405   0.62654   0.75898   0.00000  Uiso   1.00
C2103  C     0.12768   0.61474   0.71423   0.00000  Uiso   1.00
C2104  C     0.09935   0.60358   0.67510   0.00000  Uiso   1.00
C2105  C     0.05675   0.60812   0.67911   0.00000  Uiso   1.00
C2106  C     0.04267   0.62506   0.72143   0.00000  Uiso   1.00
C2107  C     0.07125   0.63424   0.76092   0.00000  Uiso   1.00
H2108  H     0.16022   0.61470   0.70996   0.00000  Uiso   1.00
H2109  H     0.11024   0.59261   0.97469   0.00000  Uiso   1.00
H2110  H     0.03449   0.60034   0.98235   0.00000  Uiso   1.00
H2111  H     0.00972   0.63263   0.72305   0.00000  Uiso   1.00
H2112  H     0.06048   0.65140   0.79177   0.00000  Uiso   1.00
O2113  O     0.43988   0.53958   0.83333   0.00000  Uiso   1.00
O2114  O     0.56012   0.46042   0.83334   0.00000  Uiso   1.00
O2115  O     0.56012   0.53958   0.83334   0.00000  Uiso   1.00
O2116  O     0.43988   0.46042   0.83333   0.00000  Uiso   1.00
C2117  C     0.42116   0.50122   0.83789   0.00000  Uiso   1.00
C2118  C     0.57884   0.49878   0.82878   0.00000  Uiso   1.00
O2119  O     0.50000   0.53959   0.76280   0.00000  Uiso   1.00
O2120  O     0.50000   0.46041   0.90387   0.00000  Uiso   1.00
O2121  O     0.50000   0.53959   0.90387   0.00000  Uiso   1.00
O2122  O     0.50000   0.46041   0.76280   0.00000  Uiso   1.00
C2123  C     0.49981   0.50043   0.74026   0.00000  Uiso   1.00
C2124  C     0.50019   0.49957   0.92640   0.00000  Uiso   1.00
Cu2125 Cu    0.50000   0.54689   0.83333   0.00000  Uiso   1.00
Cu2126 Cu    0.50000   0.45311   0.83333   0.00000  Uiso   1.00
C2127  C     0.49996   0.50056   0.68844   0.00000  Uiso   1.00
C2128  C     0.50005   0.49944   0.97822   0.00000  Uiso   1.00
C2129  C     0.35913   0.46117   0.85435   0.00000  Uiso   1.00
C2130  C     0.64088   0.53885   0.81235   0.00000  Uiso   1.00
C2131  C     0.65037   0.45740   0.83783   0.00000  Uiso   1.00
C2132  C     0.34964   0.54262   0.82888   0.00000  Uiso   1.00
C2133  C     0.62373   0.49740   0.82359   0.00000  Uiso   1.00
C2134  C     0.37628   0.50262   0.84310   0.00000  Uiso   1.00
C2135  C     0.47561   0.36157   0.79780   0.00000  Uiso   1.00
C2136  C     0.52439   0.63843   0.86886   0.00000  Uiso   1.00
C2137  C     0.52413   0.35442   0.86898   0.00000  Uiso   1.00
C2138  C     0.47587   0.64558   0.79768   0.00000  Uiso   1.00
N2139  N     0.50000   0.61736   0.83333   0.00000  Uiso   1.00
N2140  N     0.50000   0.38264   0.83333   0.00000  Uiso   1.00
N2141  N     0.37747   0.43388   0.89676   0.00000  Uiso   1.00
H2142  H     0.35648   0.43082   0.92164   0.00000  Uiso   1.00
C2143  C     0.40176   0.39019   0.89237   0.00000  Uiso   1.00
H2144  H     0.38629   0.36779   0.86577   0.00000  Uiso   1.00
H2145  H     0.40611   0.37064   0.92805   0.00000  Uiso   1.00
H2146  H     0.43320   0.39559   0.88338   0.00000  Uiso   1.00
N2147  N     0.62254   0.56614   0.76994   0.00000  Uiso   1.00
H2148  H     0.64354   0.56920   0.74506   0.00000  Uiso   1.00
C2149  C     0.59823   0.60982   0.77430   0.00000  Uiso   1.00
H2150  H     0.61376   0.63234   0.80075   0.00000  Uiso   1.00
H2151  H     0.56686   0.60444   0.78352   0.00000  Uiso   1.00
H2152  H     0.59372   0.62927   0.73854   0.00000  Uiso   1.00
N2153  N     0.63569   0.41299   0.83297   0.00000  Uiso   1.00
H2154  H     0.65486   0.38644   0.85071   0.00000  Uiso   1.00
C2155  C     0.61979   0.40110   0.78411   0.00000  Uiso   1.00
H2156  H     0.64323   0.37728   0.76898   0.00000  Uiso   1.00
H2157  H     0.61210   0.43202   0.75901   0.00000  Uiso   1.00
H2158  H     0.59103   0.38340   0.78567   0.00000  Uiso   1.00
N2159  N     0.36432   0.58704   0.83375   0.00000  Uiso   1.00
H2160  H     0.34514   0.61362   0.81607   0.00000  Uiso   1.00
C2161  C     0.38038   0.59888   0.88258   0.00000  Uiso   1.00
H2162  H     0.35708   0.62285   0.89776   0.00000  Uiso   1.00
H2163  H     0.40923   0.61643   0.88092   0.00000  Uiso   1.00
H2164  H     0.38798   0.56795   0.90768   0.00000  Uiso   1.00
C2165  C     0.44886   0.38960   0.75781   0.00000  Uiso   1.00
C2166  C     0.40813   0.40714   0.76354   0.00000  Uiso   1.00
C2167  C     0.38410   0.43522   0.72720   0.00000  Uiso   1.00
C2168  C     0.39952   0.44374   0.68321   0.00000  Uiso   1.00
C2169  C     0.43766   0.42168   0.67454   0.00000  Uiso   1.00
C2170  C     0.46206   0.39407   0.71139   0.00000  Uiso   1.00
H2171  H     0.39509   0.40005   0.79644   0.00000  Uiso   1.00
H2172  H     0.35373   0.45063   0.73336   0.00000  Uiso   1.00
H2173  H     0.38171   0.46713   0.98921   0.00000  Uiso   1.00
H2174  H     0.44865   0.42725   0.97298   0.00000  Uiso   1.00
H2175  H     0.49187   0.37770   0.70479   0.00000  Uiso   1.00
C2176  C     0.55116   0.61040   0.90884   0.00000  Uiso   1.00
C2177  C     0.53797   0.60591   0.95525   0.00000  Uiso   1.00
C2178  C     0.56239   0.57830   0.99210   0.00000  Uiso   1.00
C2179  C     0.60055   0.55629   0.98341   0.00000  Uiso   1.00
C2180  C     0.61594   0.56483   0.93941   0.00000  Uiso   1.00
C2181  C     0.59189   0.59290   0.90308   0.00000  Uiso   1.00
H2182  H     0.50815   0.62225   0.96188   0.00000  Uiso   1.00
H2183  H     0.55141   0.57272   0.69365   0.00000  Uiso   1.00
H2184  H     0.61837   0.53291   0.67741   0.00000  Uiso   1.00
H2185  H     0.64632   0.54945   0.93324   0.00000  Uiso   1.00
H2186  H     0.60491   0.60002   0.87017   0.00000  Uiso   1.00
C2187  C     0.55261   0.37346   0.90769   0.00000  Uiso   1.00
C2188  C     0.59541   0.36577   0.90574   0.00000  Uiso   1.00
C2189  C     0.62399   0.37493   0.94523   0.00000  Uiso   1.00
C2190  C     0.60991   0.39187   0.98757   0.00000  Uiso   1.00
C2191  C     0.56732   0.39641   0.99158   0.00000  Uiso   1.00
C2192  C     0.53898   0.38525   0.95244   0.00000  Uiso   1.00
H2193  H     0.60618   0.34862   0.87489   0.00000  Uiso   1.00
H2194  H     0.65694   0.36737   0.94361   0.00000  Uiso   1.00
H2195  H     0.63218   0.39964   0.68432   0.00000  Uiso   1.00
H2196  H     0.55643   0.40736   0.69199   0.00000  Uiso   1.00
H2197  H     0.50646   0.38528   0.95671   0.00000  Uiso   1.00
C2198  C     0.44739   0.62654   0.75898   0.00000  Uiso   1.00
C2199  C     0.46102   0.61474   0.71423   0.00000  Uiso   1.00
C2200  C     0.43268   0.60358   0.67510   0.00000  Uiso   1.00
C2201  C     0.39009   0.60812   0.67911   0.00000  Uiso   1.00
C2202  C     0.37600   0.62506   0.72143   0.00000  Uiso   1.00
C2203  C     0.40459   0.63424   0.76092   0.00000  Uiso   1.00
H2204  H     0.49355   0.61470   0.70996   0.00000  Uiso   1.00
H2205  H     0.44357   0.59261   0.97469   0.00000  Uiso   1.00
H2206  H     0.36782   0.60034   0.98235   0.00000  Uiso   1.00
H2207  H     0.34305   0.63263   0.72305   0.00000  Uiso   1.00
H2208  H     0.39381   0.65140   0.79177   0.00000  Uiso   1.00
O2209  O     0.77321   0.53958   0.83333   0.00000  Uiso   1.00
O2210  O     0.89345   0.46042   0.83334   0.00000  Uiso   1.00
O2211  O     0.89345   0.53958   0.83334   0.00000  Uiso   1.00
O2212  O     0.77321   0.46042   0.83333   0.00000  Uiso   1.00
C2213  C     0.75450   0.50122   0.83789   0.00000  Uiso   1.00
C2214  C     0.91217   0.49878   0.82878   0.00000  Uiso   1.00
O2215  O     0.83333   0.53959   0.76280   0.00000  Uiso   1.00
O2216  O     0.83333   0.46041   0.90387   0.00000  Uiso   1.00
O2217  O     0.83333   0.53959   0.90387   0.00000  Uiso   1.00
O2218  O     0.83333   0.46041   0.76280   0.00000  Uiso   1.00
C2219  C     0.83315   0.50043   0.74026   0.00000  Uiso   1.00
C2220  C     0.83352   0.49957   0.92640   0.00000  Uiso   1.00
Cu2221 Cu    0.83333   0.54689   0.83333   0.00000  Uiso   1.00
Cu2222 Cu    0.83333   0.45311   0.83333   0.00000  Uiso   1.00
C2223  C     0.83329   0.50056   0.68844   0.00000  Uiso   1.00
C2224  C     0.83338   0.49944   0.97822   0.00000  Uiso   1.00
C2225  C     0.69246   0.46117   0.85435   0.00000  Uiso   1.00
C2226  C     0.97421   0.53885   0.81235   0.00000  Uiso   1.00
C2227  C     0.98370   0.45740   0.83783   0.00000  Uiso   1.00
C2228  C     0.68297   0.54262   0.82888   0.00000  Uiso   1.00
C2229  C     0.95706   0.49740   0.82359   0.00000  Uiso   1.00
C2230  C     0.70961   0.50262   0.84310   0.00000  Uiso   1.00
C2231  C     0.80895   0.36157   0.79780   0.00000  Uiso   1.00
C2232  C     0.85772   0.63843   0.86886   0.00000  Uiso   1.00
C2233  C     0.85746   0.35442   0.86898   0.00000  Uiso   1.00
C2234  C     0.80920   0.64558   0.79768   0.00000  Uiso   1.00
N2235  N     0.83333   0.61736   0.83333   0.00000  Uiso   1.00
N2236  N     0.83333   0.38264   0.83333   0.00000  Uiso   1.00
N2237  N     0.71080   0.43388   0.89676   0.00000  Uiso   1.00
H2238  H     0.68981   0.43082   0.92164   0.00000  Uiso   1.00
C2239  C     0.73510   0.39019   0.89237   0.00000  Uiso   1.00
H2240  H     0.71963   0.36779   0.86577   0.00000  Uiso   1.00
H2241  H     0.73945   0.37064   0.92805   0.00000  Uiso   1.00
H2242  H     0.76653   0.39559   0.88338   0.00000  Uiso   1.00
N2243  N     0.95587   0.56614   0.76994   0.00000  Uiso   1.00
H2244  H     0.97687   0.56920   0.74506   0.00000  Uiso   1.00
C2245  C     0.93156   0.60982   0.77430   0.00000  Uiso   1.00
H2246  H     0.94710   0.63234   0.80075   0.00000  Uiso   1.00
H2247  H     0.90019   0.60444   0.78352   0.00000  Uiso   1.00
H2248  H     0.92705   0.62927   0.73854   0.00000  Uiso   1.00
N2249  N     0.96903   0.41299   0.83297   0.00000  Uiso   1.00
H2250  H     0.98820   0.38644   0.85071   0.00000  Uiso   1.00
C2251  C     0.95313   0.40110   0.78411   0.00000  Uiso   1.00
H2252  H     0.97656   0.37728   0.76898   0.00000  Uiso   1.00
H2253  H     0.94543   0.43202   0.75901   0.00000  Uiso   1.00
H2254  H     0.92436   0.38340   0.78567   0.00000  Uiso   1.00
N2255  N     0.69765   0.58704   0.83375   0.00000  Uiso   1.00
H2256  H     0.67847   0.61362   0.81607   0.00000  Uiso   1.00
C2257  C     0.71372   0.59888   0.88258   0.00000  Uiso   1.00
H2258  H     0.69042   0.62285   0.89776   0.00000  Uiso   1.00
H2259  H     0.74256   0.61643   0.88092   0.00000  Uiso   1.00
H2260  H     0.72132   0.56795   0.90768   0.00000  Uiso   1.00
C2261  C     0.78219   0.38960   0.75781   0.00000  Uiso   1.00
C2262  C     0.74147   0.40714   0.76354   0.00000  Uiso   1.00
C2263  C     0.71744   0.43522   0.72720   0.00000  Uiso   1.00
C2264  C     0.73285   0.44374   0.68321   0.00000  Uiso   1.00
C2265  C     0.77099   0.42168   0.67454   0.00000  Uiso   1.00
C2266  C     0.79539   0.39407   0.71139   0.00000  Uiso   1.00
H2267  H     0.72842   0.40005   0.79644   0.00000  Uiso   1.00
H2268  H     0.68707   0.45063   0.73336   0.00000  Uiso   1.00
H2269  H     0.71505   0.46713   0.98921   0.00000  Uiso   1.00
H2270  H     0.78198   0.42725   0.97298   0.00000  Uiso   1.00
H2271  H     0.82521   0.37770   0.70479   0.00000  Uiso   1.00
C2272  C     0.88449   0.61040   0.90884   0.00000  Uiso   1.00
C2273  C     0.87130   0.60591   0.95525   0.00000  Uiso   1.00
C2274  C     0.89573   0.57830   0.99210   0.00000  Uiso   1.00
C2275  C     0.93388   0.55629   0.98341   0.00000  Uiso   1.00
C2276  C     0.94928   0.56483   0.93941   0.00000  Uiso   1.00
C2277  C     0.92522   0.59290   0.90308   0.00000  Uiso   1.00
H2278  H     0.84148   0.62225   0.96188   0.00000  Uiso   1.00
H2279  H     0.88474   0.57272   0.69365   0.00000  Uiso   1.00
H2280  H     0.95171   0.53291   0.67741   0.00000  Uiso   1.00
H2281  H     0.97965   0.54945   0.93324   0.00000  Uiso   1.00
H2282  H     0.93825   0.60002   0.87017   0.00000  Uiso   1.00
C2283  C     0.88594   0.37346   0.90769   0.00000  Uiso   1.00
C2284  C     0.92874   0.36577   0.90574   0.00000  Uiso   1.00
C2285  C     0.95733   0.37493   0.94523   0.00000  Uiso   1.00
C2286  C     0.94325   0.39187   0.98757   0.00000  Uiso   1.00
C2287  C     0.90066   0.39641   0.99158   0.00000  Uiso   1.00
C2288  C     0.87232   0.38525   0.95244   0.00000  Uiso   1.00
H2289  H     0.93951   0.34862   0.87489   0.00000  Uiso   1.00
H2290  H     0.99028   0.36737   0.94361   0.00000  Uiso   1.00
H2291  H     0.96551   0.39964   0.68432   0.00000  Uiso   1.00
H2292  H     0.88976   0.40736   0.69199   0.00000  Uiso   1.00
H2293  H     0.83979   0.38528   0.95671   0.00000  Uiso   1.00
C2294  C     0.78072   0.62654   0.75898   0.00000  Uiso   1.00
C2295  C     0.79435   0.61474   0.71423   0.00000  Uiso   1.00
C2296  C     0.76601   0.60358   0.67510   0.00000  Uiso   1.00
C2297  C     0.72342   0.60812   0.67911   0.00000  Uiso   1.00
C2298  C     0.70934   0.62506   0.72143   0.00000  Uiso   1.00
C2299  C     0.73792   0.63424   0.76092   0.00000  Uiso   1.00
H2300  H     0.82688   0.61470   0.70996   0.00000  Uiso   1.00
H2301  H     0.77691   0.59261   0.97469   0.00000  Uiso   1.00
H2302  H     0.70116   0.60034   0.98235   0.00000  Uiso   1.00
H2303  H     0.67639   0.63263   0.72305   0.00000  Uiso   1.00
H2304  H     0.72714   0.65140   0.79177   0.00000  Uiso   1.00
O2305  O     0.10655   0.87291   0.83333   0.00000  Uiso   1.00
O2306  O     0.22679   0.79375   0.83334   0.00000  Uiso   1.00
O2307  O     0.22679   0.87291   0.83334   0.00000  Uiso   1.00
O2308  O     0.10655   0.79375   0.83333   0.00000  Uiso   1.00
C2309  C     0.08783   0.83455   0.83789   0.00000  Uiso   1.00
C2310  C     0.24551   0.83211   0.82878   0.00000  Uiso   1.00
O2311  O     0.16667   0.87292   0.76280   0.00000  Uiso   1.00
O2312  O     0.16667   0.79375   0.90387   0.00000  Uiso   1.00
O2313  O     0.16667   0.87292   0.90387   0.00000  Uiso   1.00
O2314  O     0.16667   0.79375   0.76280   0.00000  Uiso   1.00
C2315  C     0.16648   0.83377   0.74026   0.00000  Uiso   1.00
C2316  C     0.16686   0.83290   0.92640   0.00000  Uiso   1.00
Cu2317 Cu    0.16667   0.88022   0.83333   0.00000  Uiso   1.00
Cu2318 Cu    0.16667   0.78645   0.83333   0.00000  Uiso   1.00
C2319  C     0.16662   0.83389   0.68844   0.00000  Uiso   1.00
C2320  C     0.16671   0.83278   0.97822   0.00000  Uiso   1.00
C2321  C     0.02580   0.79450   0.85435   0.00000  Uiso   1.00
C2322  C     0.30754   0.87219   0.81235   0.00000  Uiso   1.00
C2323  C     0.31703   0.79073   0.83783   0.00000  Uiso   1.00
C2324  C     0.01631   0.87596   0.82888   0.00000  Uiso   1.00
C2325  C     0.29040   0.83073   0.82359   0.00000  Uiso   1.00
C2326  C     0.04294   0.83595   0.84310   0.00000  Uiso   1.00
C2327  C     0.14228   0.69490   0.79780   0.00000  Uiso   1.00
C2328  C     0.19105   0.97176   0.86886   0.00000  Uiso   1.00
C2329  C     0.19080   0.68775   0.86898   0.00000  Uiso   1.00
C2330  C     0.14253   0.97891   0.79768   0.00000  Uiso   1.00
N2331  N     0.16667   0.95069   0.83333   0.00000  Uiso   1.00
N2332  N     0.16667   0.71598   0.83333   0.00000  Uiso   1.00
N2333  N     0.04414   0.76721   0.89676   0.00000  Uiso   1.00
H2334  H     0.02315   0.76415   0.92164   0.00000  Uiso   1.00
C2335  C     0.06843   0.72353   0.89237   0.00000  Uiso   1.00
H2336  H     0.05296   0.70112   0.86577   0.00000  Uiso   1.00
H2337  H     0.07278   0.70397   0.92805   0.00000  Uiso   1.00
H2338  H     0.09986   0.72892   0.88338   0.00000  Uiso   1.00
N2339  N     0.28921   0.89947   0.76994   0.00000  Uiso   1.00
H2340  H     0.31020   0.90254   0.74506   0.00000  Uiso   1.00
C2341  C     0.26489   0.94316   0.77430   0.00000  Uiso   1.00
H2342  H     0.28043   0.96567   0.80075   0.00000  Uiso   1.00
H2343  H     0.23352   0.93777   0.78352   0.00000  Uiso   1.00
H2344  H     0.26039   0.96260   0.73854   0.00000  Uiso   1.00
N2345  N     0.30236   0.74632   0.83297   0.00000  Uiso   1.00
H2346  H     0.32153   0.71977   0.85071   0.00000  Uiso   1.00
C2347  C     0.28646   0.73443   0.78411   0.00000  Uiso   1.00
H2348  H     0.30989   0.71061   0.76898   0.00000  Uiso   1.00
H2349  H     0.27877   0.76536   0.75901   0.00000  Uiso   1.00
H2350  H     0.25769   0.71673   0.78567   0.00000  Uiso   1.00
N2351  N     0.03099   0.92037   0.83375   0.00000  Uiso   1.00
H2352  H     0.01180   0.94695   0.81607   0.00000  Uiso   1.00
C2353  C     0.04705   0.93221   0.88258   0.00000  Uiso   1.00
H2354  H     0.02375   0.95618   0.89776   0.00000  Uiso   1.00
H2355  H     0.07590   0.94976   0.88092   0.00000  Uiso   1.00
H2356  H     0.05465   0.90129   0.90768   0.00000  Uiso   1.00
C2357  C     0.11553   0.72294   0.75781   0.00000  Uiso   1.00
C2358  C     0.07480   0.74047   0.76354   0.00000  Uiso   1.00
C2359  C     0.05077   0.76855   0.72720   0.00000  Uiso   1.00
C2360  C     0.06619   0.77707   0.68321   0.00000  Uiso   1.00
C2361  C     0.10432   0.75501   0.67454   0.00000  Uiso   1.00
C2362  C     0.12873   0.72740   0.71139   0.00000  Uiso   1.00
H2363  H     0.06176   0.73338   0.79644   0.00000  Uiso   1.00
H2364  H     0.02040   0.78397   0.73336   0.00000  Uiso   1.00
H2365  H     0.04838   0.80046   0.98921   0.00000  Uiso   1.00
H2366  H     0.11532   0.76058   0.97298   0.00000  Uiso   1.00
H2367  H     0.15854   0.71103   0.70479   0.00000  Uiso   1.00
C2368  C     0.21782   0.94373   0.90884   0.00000  Uiso   1.00
C2369  C     0.20464   0.93924   0.95525   0.00000  Uiso   1.00
C2370  C     0.22906   0.91164   0.99210   0.00000  Uiso   1.00
C2371  C     0.26721   0.88962   0.98341   0.00000  Uiso   1.00
C2372  C     0.28261   0.89817   0.93941   0.00000  Uiso   1.00
C2373  C     0.25856   0.92623   0.90308   0.00000  Uiso   1.00
H2374  H     0.17482   0.95559   0.96188   0.00000  Uiso   1.00
H2375  H     0.21807   0.90605   0.69365   0.00000  Uiso   1.00
H2376  H     0.28504   0.86624   0.67741   0.00000  Uiso   1.00
H2377  H     0.31299   0.88278   0.93324   0.00000  Uiso   1.00
H2378  H     0.27158   0.93335   0.87017   0.00000  Uiso   1.00
C2379  C     0.21928   0.70679   0.90769   0.00000  Uiso   1.00
C2380  C     0.26207   0.69910   0.90574   0.00000  Uiso   1.00
C2381  C     0.29066   0.70827   0.94523   0.00000  Uiso   1.00
C2382  C     0.27658   0.72520   0.98757   0.00000  Uiso   1.00
C2383  C     0.23399   0.72974   0.99158   0.00000  Uiso   1.00
C2384  C     0.20565   0.71858   0.95244   0.00000  Uiso   1.00
H2385  H     0.27285   0.68196   0.87489   0.00000  Uiso   1.00
H2386  H     0.32361   0.70070   0.94361   0.00000  Uiso   1.00
H2387  H     0.29884   0.73297   0.68432   0.00000  Uiso   1.00
H2388  H     0.22310   0.74069   0.69199   0.00000  Uiso   1.00
H2389  H     0.17312   0.71861   0.95671   0.00000  Uiso   1.00
C2390  C     0.11405   0.95988   0.75898   0.00000  Uiso   1.00
C2391  C     0.12768   0.94807   0.71423   0.00000  Uiso   1.00
C2392  C     0.09935   0.93691   0.67510   0.00000  Uiso   1.00
C2393  C     0.05675   0.94145   0.67911   0.00000  Uiso   1.00
C2394  C     0.04267   0.95839   0.72143   0.00000  Uiso   1.00
C2395  C     0.07125   0.96757   0.76092   0.00000  Uiso   1.00
H2396  H     0.16022   0.94803   0.70996   0.00000  Uiso   1.00
H2397  H     0.11024   0.92595   0.97469   0.00000  Uiso   1.00
H2398  H     0.03449   0.93367   0.98235   0.00000  Uiso   1.00
H2399  H     0.00972   0.96596   0.72305   0.00000  Uiso   1.00
H2400  H     0.06048   0.98473   0.79177   0.00000  Uiso   1.00
O2401  O     0.43988   0.87291   0.83333   0.00000  Uiso   1.00
O2402  O     0.56012   0.79375   0.83334   0.00000  Uiso   1.00
O2403  O     0.56012   0.87291   0.83334   0.00000  Uiso   1.00
O2404  O     0.43988   0.79375   0.83333   0.00000  Uiso   1.00
C2405  C     0.42116   0.83455   0.83789   0.00000  Uiso   1.00
C2406  C     0.57884   0.83211   0.82878   0.00000  Uiso   1.00
O2407  O     0.50000   0.87292   0.76280   0.00000  Uiso   1.00
O2408  O     0.50000   0.79375   0.90387   0.00000  Uiso   1.00
O2409  O     0.50000   0.87292   0.90387   0.00000  Uiso   1.00
O2410  O     0.50000   0.79375   0.76280   0.00000  Uiso   1.00
C2411  C     0.49981   0.83377   0.74026   0.00000  Uiso   1.00
C2412  C     0.50019   0.83290   0.92640   0.00000  Uiso   1.00
Cu2413 Cu    0.50000   0.88022   0.83333   0.00000  Uiso   1.00
Cu2414 Cu    0.50000   0.78645   0.83333   0.00000  Uiso   1.00
C2415  C     0.49996   0.83389   0.68844   0.00000  Uiso   1.00
C2416  C     0.50005   0.83278   0.97822   0.00000  Uiso   1.00
C2417  C     0.35913   0.79450   0.85435   0.00000  Uiso   1.00
C2418  C     0.64088   0.87219   0.81235   0.00000  Uiso   1.00
C2419  C     0.65037   0.79073   0.83783   0.00000  Uiso   1.00
C2420  C     0.34964   0.87596   0.82888   0.00000  Uiso   1.00
C2421  C     0.62373   0.83073   0.82359   0.00000  Uiso   1.00
C2422  C     0.37628   0.83595   0.84310   0.00000  Uiso   1.00
C2423  C     0.47561   0.69490   0.79780   0.00000  Uiso   1.00
C2424  C     0.52439   0.97176   0.86886   0.00000  Uiso   1.00
C2425  C     0.52413   0.68775   0.86898   0.00000  Uiso   1.00
C2426  C     0.47587   0.97891   0.79768   0.00000  Uiso   1.00
N2427  N     0.50000   0.95069   0.83333   0.00000  Uiso   1.00
N2428  N     0.50000   0.71598   0.83333   0.00000  Uiso   1.00
N2429  N     0.37747   0.76721   0.89676   0.00000  Uiso   1.00
H2430  H     0.35648   0.76415   0.92164   0.00000  Uiso   1.00
C2431  C     0.40176   0.72353   0.89237   0.00000  Uiso   1.00
H2432  H     0.38629   0.70112   0.86577   0.00000  Uiso   1.00
H2433  H     0.40611   0.70397   0.92805   0.00000  Uiso   1.00
H2434  H     0.43320   0.72892   0.88338   0.00000  Uiso   1.00
N2435  N     0.62254   0.89947   0.76994   0.00000  Uiso   1.00
H2436  H     0.64354   0.90254   0.74506   0.00000  Uiso   1.00
C2437  C     0.59823   0.94316   0.77430   0.00000  Uiso   1.00
H2438  H     0.61376   0.96567   0.80075   0.00000  Uiso   1.00
H2439  H     0.56686   0.93777   0.78352   0.00000  Uiso   1.00
H2440  H     0.59372   0.96260   0.73854   0.00000  Uiso   1.00
N2441  N     0.63569   0.74632   0.83297   0.00000  Uiso   1.00
H2442  H     0.65486   0.71977   0.85071   0.00000  Uiso   1.00
C2443  C     0.61979   0.73443   0.78411   0.00000  Uiso   1.00
H2444  H     0.64323   0.71061   0.76898   0.00000  Uiso   1.00
H2445  H     0.61210   0.76536   0.75901   0.00000  Uiso   1.00
H2446  H     0.59103   0.71673   0.78567   0.00000  Uiso   1.00
N2447  N     0.36432   0.92037   0.83375   0.00000  Uiso   1.00
H2448  H     0.34514   0.94695   0.81607   0.00000  Uiso   1.00
C2449  C     0.38038   0.93221   0.88258   0.00000  Uiso   1.00
H2450  H     0.35708   0.95618   0.89776   0.00000  Uiso   1.00
H2451  H     0.40923   0.94976   0.88092   0.00000  Uiso   1.00
H2452  H     0.38798   0.90129   0.90768   0.00000  Uiso   1.00
C2453  C     0.44886   0.72294   0.75781   0.00000  Uiso   1.00
C2454  C     0.40813   0.74047   0.76354   0.00000  Uiso   1.00
C2455  C     0.38410   0.76855   0.72720   0.00000  Uiso   1.00
C2456  C     0.39952   0.77707   0.68321   0.00000  Uiso   1.00
C2457  C     0.43766   0.75501   0.67454   0.00000  Uiso   1.00
C2458  C     0.46206   0.72740   0.71139   0.00000  Uiso   1.00
H2459  H     0.39509   0.73338   0.79644   0.00000  Uiso   1.00
H2460  H     0.35373   0.78397   0.73336   0.00000  Uiso   1.00
H2461  H     0.38171   0.80046   0.98921   0.00000  Uiso   1.00
H2462  H     0.44865   0.76058   0.97298   0.00000  Uiso   1.00
H2463  H     0.49187   0.71103   0.70479   0.00000  Uiso   1.00
C2464  C     0.55116   0.94373   0.90884   0.00000  Uiso   1.00
C2465  C     0.53797   0.93924   0.95525   0.00000  Uiso   1.00
C2466  C     0.56239   0.91164   0.99210   0.00000  Uiso   1.00
C2467  C     0.60055   0.88962   0.98341   0.00000  Uiso   1.00
C2468  C     0.61594   0.89817   0.93941   0.00000  Uiso   1.00
C2469  C     0.59189   0.92623   0.90308   0.00000  Uiso   1.00
H2470  H     0.50815   0.95559   0.96188   0.00000  Uiso   1.00
H2471  H     0.55141   0.90605   0.69365   0.00000  Uiso   1.00
H2472  H     0.61837   0.86624   0.67741   0.00000  Uiso   1.00
H2473  H     0.64632   0.88278   0.93324   0.00000  Uiso   1.00
H2474  H     0.60491   0.93335   0.87017   0.00000  Uiso   1.00
C2475  C     0.55261   0.70679   0.90769   0.00000  Uiso   1.00
C2476  C     0.59541   0.69910   0.90574   0.00000  Uiso   1.00
C2477  C     0.62399   0.70827   0.94523   0.00000  Uiso   1.00
C2478  C     0.60991   0.72520   0.98757   0.00000  Uiso   1.00
C2479  C     0.56732   0.72974   0.99158   0.00000  Uiso   1.00
C2480  C     0.53898   0.71858   0.95244   0.00000  Uiso   1.00
H2481  H     0.60618   0.68196   0.87489   0.00000  Uiso   1.00
H2482  H     0.65694   0.70070   0.94361   0.00000  Uiso   1.00
H2483  H     0.63218   0.73297   0.68432   0.00000  Uiso   1.00
H2484  H     0.55643   0.74069   0.69199   0.00000  Uiso   1.00
H2485  H     0.50646   0.71861   0.95671   0.00000  Uiso   1.00
C2486  C     0.44739   0.95988   0.75898   0.00000  Uiso   1.00
C2487  C     0.46102   0.94807   0.71423   0.00000  Uiso   1.00
C2488  C     0.43268   0.93691   0.67510   0.00000  Uiso   1.00
C2489  C     0.39009   0.94145   0.67911   0.00000  Uiso   1.00
C2490  C     0.37600   0.95839   0.72143   0.00000  Uiso   1.00
C2491  C     0.40459   0.96757   0.76092   0.00000  Uiso   1.00
H2492  H     0.49355   0.94803   0.70996   0.00000  Uiso   1.00
H2493  H     0.44357   0.92595   0.97469   0.00000  Uiso   1.00
H2494  H     0.36782   0.93367   0.98235   0.00000  Uiso   1.00
H2495  H     0.34305   0.96596   0.72305   0.00000  Uiso   1.00
H2496  H     0.39381   0.98473   0.79177   0.00000  Uiso   1.00
O2497  O     0.77321   0.87291   0.83333   0.00000  Uiso   1.00
O2498  O     0.89345   0.79375   0.83334   0.00000  Uiso   1.00
O2499  O     0.89345   0.87291   0.83334   0.00000  Uiso   1.00
O2500  O     0.77321   0.79375   0.83333   0.00000  Uiso   1.00
C2501  C     0.75450   0.83455   0.83789   0.00000  Uiso   1.00
C2502  C     0.91217   0.83211   0.82878   0.00000  Uiso   1.00
O2503  O     0.83333   0.87292   0.76280   0.00000  Uiso   1.00
O2504  O     0.83333   0.79375   0.90387   0.00000  Uiso   1.00
O2505  O     0.83333   0.87292   0.90387   0.00000  Uiso   1.00
O2506  O     0.83333   0.79375   0.76280   0.00000  Uiso   1.00
C2507  C     0.83315   0.83377   0.74026   0.00000  Uiso   1.00
C2508  C     0.83352   0.83290   0.92640   0.00000  Uiso   1.00
Cu2509 Cu    0.83333   0.88022   0.83333   0.00000  Uiso   1.00
Cu2510 Cu    0.83333   0.78645   0.83333   0.00000  Uiso   1.00
C2511  C     0.83329   0.83389   0.68844   0.00000  Uiso   1.00
C2512  C     0.83338   0.83278   0.97822   0.00000  Uiso   1.00
C2513  C     0.69246   0.79450   0.85435   0.00000  Uiso   1.00
C2514  C     0.97421   0.87219   0.81235   0.00000  Uiso   1.00
C2515  C     0.98370   0.79073   0.83783   0.00000  Uiso   1.00
C2516  C     0.68297   0.87596   0.82888   0.00000  Uiso   1.00
C2517  C     0.95706   0.83073   0.82359   0.00000  Uiso   1.00
C2518  C     0.70961   0.83595   0.84310   0.00000  Uiso   1.00
C2519  C     0.80895   0.69490   0.79780   0.00000  Uiso   1.00
C2520  C     0.85772   0.97176   0.86886   0.00000  Uiso   1.00
C2521  C     0.85746   0.68775   0.86898   0.00000  Uiso   1.00
C2522  C     0.80920   0.97891   0.79768   0.00000  Uiso   1.00
N2523  N     0.83333   0.95069   0.83333   0.00000  Uiso   1.00
N2524  N     0.83333   0.71598   0.83333   0.00000  Uiso   1.00
N2525  N     0.71080   0.76721   0.89676   0.00000  Uiso   1.00
H2526  H     0.68981   0.76415   0.92164   0.00000  Uiso   1.00
C2527  C     0.73510   0.72353   0.89237   0.00000  Uiso   1.00
H2528  H     0.71963   0.70112   0.86577   0.00000  Uiso   1.00
H2529  H     0.73945   0.70397   0.92805   0.00000  Uiso   1.00
H2530  H     0.76653   0.72892   0.88338   0.00000  Uiso   1.00
N2531  N     0.95587   0.89947   0.76994   0.00000  Uiso   1.00
H2532  H     0.97687   0.90254   0.74506   0.00000  Uiso   1.00
C2533  C     0.93156   0.94316   0.77430   0.00000  Uiso   1.00
H2534  H     0.94710   0.96567   0.80075   0.00000  Uiso   1.00
H2535  H     0.90019   0.93777   0.78352   0.00000  Uiso   1.00
H2536  H     0.92705   0.96260   0.73854   0.00000  Uiso   1.00
N2537  N     0.96903   0.74632   0.83297   0.00000  Uiso   1.00
H2538  H     0.98820   0.71977   0.85071   0.00000  Uiso   1.00
C2539  C     0.95313   0.73443   0.78411   0.00000  Uiso   1.00
H2540  H     0.97656   0.71061   0.76898   0.00000  Uiso   1.00
H2541  H     0.94543   0.76536   0.75901   0.00000  Uiso   1.00
H2542  H     0.92436   0.71673   0.78567   0.00000  Uiso   1.00
N2543  N     0.69765   0.92037   0.83375   0.00000  Uiso   1.00
H2544  H     0.67847   0.94695   0.81607   0.00000  Uiso   1.00
C2545  C     0.71372   0.93221   0.88258   0.00000  Uiso   1.00
H2546  H     0.69042   0.95618   0.89776   0.00000  Uiso   1.00
H2547  H     0.74256   0.94976   0.88092   0.00000  Uiso   1.00
H2548  H     0.72132   0.90129   0.90768   0.00000  Uiso   1.00
C2549  C     0.78219   0.72294   0.75781   0.00000  Uiso   1.00
C2550  C     0.74147   0.74047   0.76354   0.00000  Uiso   1.00
C2551  C     0.71744   0.76855   0.72720   0.00000  Uiso   1.00
C2552  C     0.73285   0.77707   0.68321   0.00000  Uiso   1.00
C2553  C     0.77099   0.75501   0.67454   0.00000  Uiso   1.00
C2554  C     0.79539   0.72740   0.71139   0.00000  Uiso   1.00
H2555  H     0.72842   0.73338   0.79644   0.00000  Uiso   1.00
H2556  H     0.68707   0.78397   0.73336   0.00000  Uiso   1.00
H2557  H     0.71505   0.80046   0.98921   0.00000  Uiso   1.00
H2558  H     0.78198   0.76058   0.97298   0.00000  Uiso   1.00
H2559  H     0.82521   0.71103   0.70479   0.00000  Uiso   1.00
C2560  C     0.88449   0.94373   0.90884   0.00000  Uiso   1.00
C2561  C     0.87130   0.93924   0.95525   0.00000  Uiso   1.00
C2562  C     0.89573   0.91164   0.99210   0.00000  Uiso   1.00
C2563  C     0.93388   0.88962   0.98341   0.00000  Uiso   1.00
C2564  C     0.94928   0.89817   0.93941   0.00000  Uiso   1.00
C2565  C     0.92522   0.92623   0.90308   0.00000  Uiso   1.00
H2566  H     0.84148   0.95559   0.96188   0.00000  Uiso   1.00
H2567  H     0.88474   0.90605   0.69365   0.00000  Uiso   1.00
H2568  H     0.95171   0.86624   0.67741   0.00000  Uiso   1.00
H2569  H     0.97965   0.88278   0.93324   0.00000  Uiso   1.00
H2570  H     0.93825   0.93335   0.87017   0.00000  Uiso   1.00
C2571  C     0.88594   0.70679   0.90769   0.00000  Uiso   1.00
C2572  C     0.92874   0.69910   0.90574   0.00000  Uiso   1.00
C2573  C     0.95733   0.70827   0.94523   0.00000  Uiso   1.00
C2574  C     0.94325   0.72520   0.98757   0.00000  Uiso   1.00
C2575  C     0.90066   0.72974   0.99158   0.00000  Uiso   1.00
C2576  C     0.87232   0.71858   0.95244   0.00000  Uiso   1.00
H2577  H     0.93951   0.68196   0.87489   0.00000  Uiso   1.00
H2578  H     0.99028   0.70070   0.94361   0.00000  Uiso   1.00
H2579  H     0.96551   0.73297   0.68432   0.00000  Uiso   1.00
H2580  H     0.88976   0.74069   0.69199   0.00000  Uiso   1.00
H2581  H     0.83979   0.71861   0.95671   0.00000  Uiso   1.00
C2582  C     0.78072   0.95988   0.75898   0.00000  Uiso   1.00
C2583  C     0.79435   0.94807   0.71423   0.00000  Uiso   1.00
C2584  C     0.76601   0.93691   0.67510   0.00000  Uiso   1.00
C2585  C     0.72342   0.94145   0.67911   0.00000  Uiso   1.00
C2586  C     0.70934   0.95839   0.72143   0.00000  Uiso   1.00
C2587  C     0.73792   0.96757   0.76092   0.00000  Uiso   1.00
H2588  H     0.82688   0.94803   0.70996   0.00000  Uiso   1.00
H2589  H     0.77691   0.92595   0.97469   0.00000  Uiso   1.00
H2590  H     0.70116   0.93367   0.98235   0.00000  Uiso   1.00
H2591  H     0.67639   0.96596   0.72305   0.00000  Uiso   1.00
H2592  H     0.72714   0.98473   0.79177   0.00000  Uiso   1.00
loop_
_geom_bond_atom_site_label_1
_geom_bond_atom_site_label_2
_geom_bond_distance
_geom_bond_site_symmetry_2
_ccdc_geom_bond_type
O1     C5      1.325   .     A
O1     Cu13    1.983   .     S
O2     C6      1.325   .     A
O2     Cu14    1.983   .     S
O3     C6      1.303   .     A
O3     Cu13    1.947   .     S
O4     C5      1.303   .     A
O4     Cu14    1.947   .     S
C5     C22     1.480   .     S
C6     C21     1.480   .     S
O7     C11     1.314   .     A
O7     Cu13    1.964   .     S
O8     C12     1.314   .     A
O8     Cu14    1.964   .     S
O9     Cu13    1.952   .     S
O9     C12     1.302   .     A
O10    Cu14    1.952   .     S
O10    C11     1.302   .     A
C11    C15     1.431   .     S
C12    C16     1.431   .     S
Cu13   N27     2.049   .     S
Cu13   Cu14    2.727   .     S
Cu14   N28     2.049   .     S
C15    C1744   1.204   1_554 S
C16    C879    1.204   .     S
C17    N29     1.434   .     S
C17    C22     1.412   .     A
C17    C211    1.405   1_455 S
C18    C21     1.412   .     A
C18    N35     1.434   .     S
C18    C116    1.406   .     S
C19    C21     1.407   .     A
C19    N41     1.419   .     S
C19    C113    1.405   .     S
C20    C22     1.407   .     A
C20    N47     1.419   .     S
C20    C210    1.406   1_455 S
C23    C53     1.497   .     S
C23    N28     1.380   .     A
C23    C602    1.434   1_545 S
C24    N27     1.380   .     A
C24    C64     1.497   .     S
C24    C313    1.434   .     S
C25    N28     1.385   .     A
C25    C75     1.482   .     S
C25    C600    1.434   1_545 S
C26    N27     1.385   .     A
C26    C86     1.482   .     S
C26    C311    1.434   .     S
N29    H30     1.030   .     S
N29    C31     1.453   .     S
C31    H33     1.111   .     S
C31    H34     1.102   .     S
C31    H32     1.102   .     S
N35    H36     1.030   .     S
N35    C37     1.453   .     S
C37    H40     1.111   .     S
C37    H38     1.103   .     S
C37    H39     1.102   .     S
N41    H42     1.024   .     S
N41    C43     1.450   .     S
C43    H44     1.111   .     S
C43    H46     1.110   .     S
C43    H45     1.111   .     S
N47    C49     1.450   .     S
N47    H48     1.024   .     S
C49    H51     1.110   .     S
C49    H52     1.111   .     S
C49    H50     1.112   .     S
C53    C54     1.405   .     A
C53    C58     1.403   .     A
C54    C55     1.394   .     A
C54    H59     1.067   .     S
C55    C56     1.389   .     A
C55    H60     1.082   .     S
C56    C57     1.396   .     A
C56    H1789   1.080   1_554 S
C57    C58     1.401   .     A
C57    H1790   1.078   1_554 S
C58    H63     1.080   .     S
H61    C920    1.080   .     S
H62    C921    1.078   .     S
C64    C69     1.405   .     A
C64    C65     1.403   .     A
C65    H70     1.080   .     S
C65    C66     1.401   .     A
C66    C67     1.396   .     A
C66    H935    1.078   .     S
C67    C68     1.389   .     A
C67    H936    1.080   .     S
C68    C69     1.394   .     A
C68    H73     1.082   .     S
C69    H74     1.067   .     S
H71    C1794   1.078   1_554 S
H72    C1795   1.080   1_554 S
C75    C80     1.402   .     A
C75    C76     1.397   .     A
C76    C77     1.395   .     A
C76    H81     1.077   .     S
C77    C78     1.392   .     A
C77    H82     1.081   .     S
C78    C79     1.397   .     A
C78    H947    1.079   .     S
C79    C80     1.400   .     A
C79    H948    1.081   .     S
C80    H85     1.077   .     S
H83    C1806   1.079   1_554 S
H84    C1807   1.081   1_554 S
C86    C91     1.397   .     A
C86    C87     1.402   .     A
C87    H92     1.077   .     S
C87    C88     1.400   .     A
C88    C89     1.397   .     A
C88    H1821   1.081   1_554 S
C89    C90     1.392   .     A
C89    H1822   1.079   1_554 S
C90    C91     1.395   .     A
C90    H95     1.081   .     S
C91    H96     1.077   .     S
H93    C952    1.081   .     S
H94    C953    1.079   .     S
O97    C101    1.325   .     A
O97    Cu109   1.983   .     S
O98    C102    1.325   .     A
O98    Cu110   1.983   .     S
O99    C102    1.303   .     A
O99    Cu109   1.947   .     S
O100   C101    1.303   .     A
O100   Cu110   1.947   .     S
C101   C118    1.480   .     S
C102   C117    1.480   .     S
O103   C107    1.314   .     A
O103   Cu109   1.964   .     S
O104   C108    1.314   .     A
O104   Cu110   1.964   .     S
O105   Cu109   1.952   .     S
O105   C108    1.302   .     A
O106   Cu110   1.952   .     S
O106   C107    1.302   .     A
C107   C111    1.431   .     S
C108   C112    1.431   .     S
Cu109  N123    2.049   .     S
Cu109  Cu110   2.727   .     S
Cu110  N124    2.049   .     S
C111   C1840   1.204   1_554 S
C112   C975    1.204   .     S
C113   N125    1.434   .     S
C113   C118    1.412   .     A
C114   C117    1.412   .     A
C114   N131    1.434   .     S
C114   C212    1.406   .     S
C115   C117    1.407   .     A
C115   N137    1.419   .     S
C115   C209    1.405   .     S
C116   C118    1.407   .     A
C116   N143    1.419   .     S
C119   C149    1.497   .     S
C119   N124    1.380   .     A
C119   C698    1.434   1_545 S
C120   N123    1.380   .     A
C120   C160    1.497   .     S
C120   C409    1.434   .     S
C121   N124    1.385   .     A
C121   C171    1.482   .     S
C121   C696    1.434   1_545 S
C122   N123    1.385   .     A
C122   C182    1.482   .     S
C122   C407    1.434   .     S
N125   H126    1.030   .     S
N125   C127    1.453   .     S
C127   H129    1.111   .     S
C127   H130    1.102   .     S
C127   H128    1.102   .     S
N131   H132    1.030   .     S
N131   C133    1.453   .     S
C133   H136    1.111   .     S
C133   H134    1.103   .     S
C133   H135    1.102   .     S
N137   H138    1.024   .     S
N137   C139    1.450   .     S
C139   H140    1.111   .     S
C139   H142    1.110   .     S
C139   H141    1.111   .     S
N143   C145    1.450   .     S
N143   H144    1.024   .     S
C145   H147    1.110   .     S
C145   H148    1.111   .     S
C145   H146    1.112   .     S
C149   C150    1.405   .     A
C149   C154    1.403   .     A
C150   C151    1.394   .     A
C150   H155    1.067   .     S
C151   C152    1.389   .     A
C151   H156    1.082   .     S
C152   C153    1.396   .     A
C152   H1885   1.080   1_554 S
C153   C154    1.401   .     A
C153   H1886   1.078   1_554 S
C154   H159    1.080   .     S
H157   C1016   1.080   .     S
H158   C1017   1.078   .     S
C160   C165    1.405   .     A
C160   C161    1.403   .     A
C161   H166    1.080   .     S
C161   C162    1.401   .     A
C162   C163    1.396   .     A
C162   H1031   1.078   .     S
C163   C164    1.389   .     A
C163   H1032   1.080   .     S
C164   C165    1.394   .     A
C164   H169    1.082   .     S
C165   H170    1.067   .     S
H167   C1890   1.078   1_554 S
H168   C1891   1.080   1_554 S
C171   C176    1.402   .     A
C171   C172    1.397   .     A
C172   C173    1.395   .     A
C172   H177    1.077   .     S
C173   C174    1.392   .     A
C173   H178    1.081   .     S
C174   C175    1.397   .     A
C174   H1043   1.079   .     S
C175   C176    1.400   .     A
C175   H1044   1.081   .     S
C176   H181    1.077   .     S
H179   C1902   1.079   1_554 S
H180   C1903   1.081   1_554 S
C182   C187    1.397   .     A
C182   C183    1.402   .     A
C183   H188    1.077   .     S
C183   C184    1.400   .     A
C184   C185    1.397   .     A
C184   H1917   1.081   1_554 S
C185   C186    1.392   .     A
C185   H1918   1.079   1_554 S
C186   C187    1.395   .     A
C186   H191    1.081   .     S
C187   H192    1.077   .     S
H189   C1048   1.081   .     S
H190   C1049   1.079   .     S
O193   C197    1.325   .     A
O193   Cu205   1.983   .     S
O194   C198    1.325   .     A
O194   Cu206   1.983   .     S
O195   C198    1.303   .     A
O195   Cu205   1.947   .     S
O196   C197    1.303   .     A
O196   Cu206   1.947   .     S
C197   C214    1.480   .     S
C198   C213    1.480   .     S
O199   C203    1.314   .     A
O199   Cu205   1.964   .     S
O200   C204    1.314   .     A
O200   Cu206   1.964   .     S
O201   Cu205   1.952   .     S
O201   C204    1.302   .     A
O202   Cu206   1.952   .     S
O202   C203    1.302   .     A
C203   C207    1.431   .     S
C204   C208    1.431   .     S
Cu205  N219    2.049   .     S
Cu205  Cu206   2.727   .     S
Cu206  N220    2.049   .     S
C207   C1936   1.204   1_554 S
C208   C1071   1.204   .     S
C209   N221    1.434   .     S
C209   C214    1.412   .     A
C210   C213    1.412   .     A
C210   N227    1.434   .     S
C210   C20     1.406   1_655 S
C211   C213    1.407   .     A
C211   N233    1.419   .     S
C211   C17     1.405   1_655 S
C212   C214    1.407   .     A
C212   N239    1.419   .     S
C215   C245    1.497   .     S
C215   N220    1.380   .     A
C215   C794    1.434   1_545 S
C216   N219    1.380   .     A
C216   C256    1.497   .     S
C216   C505    1.434   .     S
C217   N220    1.385   .     A
C217   C267    1.482   .     S
C217   C792    1.434   1_545 S
C218   N219    1.385   .     A
C218   C278    1.482   .     S
C218   C503    1.434   .     S
N221   H222    1.030   .     S
N221   C223    1.453   .     S
C223   H225    1.111   .     S
C223   H226    1.102   .     S
C223   H224    1.102   .     S
N227   H228    1.030   .     S
N227   C229    1.453   .     S
C229   H232    1.111   .     S
C229   H230    1.103   .     S
C229   H231    1.102   .     S
N233   H234    1.024   .     S
N233   C235    1.450   .     S
C235   H236    1.111   .     S
C235   H238    1.110   .     S
C235   H237    1.111   .     S
N239   C241    1.450   .     S
N239   H240    1.024   .     S
C241   H243    1.110   .     S
C241   H244    1.111   .     S
C241   H242    1.112   .     S
C245   C246    1.405   .     A
C245   C250    1.403   .     A
C246   C247    1.394   .     A
C246   H251    1.067   .     S
C247   C248    1.389   .     A
C247   H252    1.082   .     S
C248   C249    1.396   .     A
C248   H1981   1.080   1_554 S
C249   C250    1.401   .     A
C249   H1982   1.078   1_554 S
C250   H255    1.080   .     S
H253   C1112   1.080   .     S
H254   C1113   1.078   .     S
C256   C261    1.405   .     A
C256   C257    1.403   .     A
C257   H262    1.080   .     S
C257   C258    1.401   .     A
C258   C259    1.396   .     A
C258   H1127   1.078   .     S
C259   C260    1.389   .     A
C259   H1128   1.080   .     S
C260   C261    1.394   .     A
C260   H265    1.082   .     S
C261   H266    1.067   .     S
H263   C1986   1.078   1_554 S
H264   C1987   1.080   1_554 S
C267   C272    1.402   .     A
C267   C268    1.397   .     A
C268   C269    1.395   .     A
C268   H273    1.077   .     S
C269   C270    1.392   .     A
C269   H274    1.081   .     S
C270   C271    1.397   .     A
C270   H1139   1.079   .     S
C271   C272    1.400   .     A
C271   H1140   1.081   .     S
C272   H277    1.077   .     S
H275   C1998   1.079   1_554 S
H276   C1999   1.081   1_554 S
C278   C283    1.397   .     A
C278   C279    1.402   .     A
C279   H284    1.077   .     S
C279   C280    1.400   .     A
C280   C281    1.397   .     A
C280   H2013   1.081   1_554 S
C281   C282    1.392   .     A
C281   H2014   1.079   1_554 S
C282   C283    1.395   .     A
C282   H287    1.081   .     S
C283   H288    1.077   .     S
H285   C1144   1.081   .     S
H286   C1145   1.079   .     S
O289   C293    1.325   .     A
O289   Cu301   1.983   .     S
O290   C294    1.325   .     A
O290   Cu302   1.983   .     S
O291   C294    1.303   .     A
O291   Cu301   1.947   .     S
O292   C293    1.303   .     A
O292   Cu302   1.947   .     S
C293   C310    1.480   .     S
C294   C309    1.480   .     S
O295   C299    1.314   .     A
O295   Cu301   1.964   .     S
O296   C300    1.314   .     A
O296   Cu302   1.964   .     S
O297   Cu301   1.952   .     S
O297   C300    1.302   .     A
O298   Cu302   1.952   .     S
O298   C299    1.302   .     A
C299   C303    1.431   .     S
C300   C304    1.431   .     S
Cu301  N315    2.049   .     S
Cu301  Cu302   2.727   .     S
Cu302  N316    2.049   .     S
C303   C2032   1.204   1_554 S
C304   C1167   1.204   .     S
C305   N317    1.434   .     S
C305   C310    1.412   .     A
C305   C499    1.405   1_455 S
C306   C309    1.412   .     A
C306   N323    1.434   .     S
C306   C404    1.406   .     S
C307   C309    1.407   .     A
C307   N329    1.419   .     S
C307   C401    1.405   .     S
C308   C310    1.407   .     A
C308   N335    1.419   .     S
C308   C498    1.406   1_455 S
C311   C341    1.497   .     S
C311   N316    1.380   .     A
C312   N315    1.380   .     A
C312   C352    1.497   .     S
C312   C601    1.434   .     S
C313   N316    1.385   .     A
C313   C363    1.482   .     S
C314   N315    1.385   .     A
C314   C374    1.482   .     S
C314   C599    1.434   .     S
N317   H318    1.030   .     S
N317   C319    1.453   .     S
C319   H321    1.111   .     S
C319   H322    1.102   .     S
C319   H320    1.102   .     S
N323   H324    1.030   .     S
N323   C325    1.453   .     S
C325   H328    1.111   .     S
C325   H326    1.103   .     S
C325   H327    1.102   .     S
N329   H330    1.024   .     S
N329   C331    1.450   .     S
C331   H332    1.111   .     S
C331   H334    1.110   .     S
C331   H333    1.111   .     S
N335   C337    1.450   .     S
N335   H336    1.024   .     S
C337   H339    1.110   .     S
C337   H340    1.111   .     S
C337   H338    1.112   .     S
C341   C342    1.405   .     A
C341   C346    1.403   .     A
C342   C343    1.394   .     A
C342   H347    1.067   .     S
C343   C344    1.389   .     A
C343   H348    1.082   .     S
C344   C345    1.396   .     A
C344   H2077   1.080   1_554 S
C345   C346    1.401   .     A
C345   H2078   1.078   1_554 S
C346   H351    1.080   .     S
H349   C1208   1.080   .     S
H350   C1209   1.078   .     S
C352   C357    1.405   .     A
C352   C353    1.403   .     A
C353   H358    1.080   .     S
C353   C354    1.401   .     A
C354   C355    1.396   .     A
C354   H1223   1.078   .     S
C355   C356    1.389   .     A
C355   H1224   1.080   .     S
C356   C357    1.394   .     A
C356   H361    1.082   .     S
C357   H362    1.067   .     S
H359   C2082   1.078   1_554 S
H360   C2083   1.080   1_554 S
C363   C368    1.402   .     A
C363   C364    1.397   .     A
C364   C365    1.395   .     A
C364   H369    1.077   .     S
C365   C366    1.392   .     A
C365   H370    1.081   .     S
C366   C367    1.397   .     A
C366   H1235   1.079   .     S
C367   C368    1.400   .     A
C367   H1236   1.081   .     S
C368   H373    1.077   .     S
H371   C2094   1.079   1_554 S
H372   C2095   1.081   1_554 S
C374   C379    1.397   .     A
C374   C375    1.402   .     A
C375   H380    1.077   .     S
C375   C376    1.400   .     A
C376   C377    1.397   .     A
C376   H2109   1.081   1_554 S
C377   C378    1.392   .     A
C377   H2110   1.079   1_554 S
C378   C379    1.395   .     A
C378   H383    1.081   .     S
C379   H384    1.077   .     S
H381   C1240   1.081   .     S
H382   C1241   1.079   .     S
O385   C389    1.325   .     A
O385   Cu397   1.983   .     S
O386   C390    1.325   .     A
O386   Cu398   1.983   .     S
O387   C390    1.303   .     A
O387   Cu397   1.947   .     S
O388   C389    1.303   .     A
O388   Cu398   1.947   .     S
C389   C406    1.480   .     S
C390   C405    1.480   .     S
O391   C395    1.314   .     A
O391   Cu397   1.964   .     S
O392   C396    1.314   .     A
O392   Cu398   1.964   .     S
O393   Cu397   1.952   .     S
O393   C396    1.302   .     A
O394   Cu398   1.952   .     S
O394   C395    1.302   .     A
C395   C399    1.431   .     S
C396   C400    1.431   .     S
Cu397  N411    2.049   .     S
Cu397  Cu398   2.727   .     S
Cu398  N412    2.049   .     S
C399   C2128   1.204   1_554 S
C400   C1263   1.204   .     S
C401   N413    1.434   .     S
C401   C406    1.412   .     A
C402   C405    1.412   .     A
C402   N419    1.434   .     S
C402   C500    1.406   .     S
C403   C405    1.407   .     A
C403   N425    1.419   .     S
C403   C497    1.405   .     S
C404   C406    1.407   .     A
C404   N431    1.419   .     S
C407   C437    1.497   .     S
C407   N412    1.380   .     A
C408   N411    1.380   .     A
C408   C448    1.497   .     S
C408   C697    1.434   .     S
C409   N412    1.385   .     A
C409   C459    1.482   .     S
C410   N411    1.385   .     A
C410   C470    1.482   .     S
C410   C695    1.434   .     S
N413   H414    1.030   .     S
N413   C415    1.453   .     S
C415   H417    1.111   .     S
C415   H418    1.102   .     S
C415   H416    1.102   .     S
N419   H420    1.030   .     S
N419   C421    1.453   .     S
C421   H424    1.111   .     S
C421   H422    1.103   .     S
C421   H423    1.102   .     S
N425   H426    1.024   .     S
N425   C427    1.450   .     S
C427   H428    1.111   .     S
C427   H430    1.110   .     S
C427   H429    1.111   .     S
N431   C433    1.450   .     S
N431   H432    1.024   .     S
C433   H435    1.110   .     S
C433   H436    1.111   .     S
C433   H434    1.112   .     S
C437   C438    1.405   .     A
C437   C442    1.403   .     A
C438   C439    1.394   .     A
C438   H443    1.067   .     S
C439   C440    1.389   .     A
C439   H444    1.082   .     S
C440   C441    1.396   .     A
C440   H2173   1.080   1_554 S
C441   C442    1.401   .     A
C441   H2174   1.078   1_554 S
C442   H447    1.080   .     S
H445   C1304   1.080   .     S
H446   C1305   1.078   .     S
C448   C453    1.405   .     A
C448   C449    1.403   .     A
C449   H454    1.080   .     S
C449   C450    1.401   .     A
C450   C451    1.396   .     A
C450   H1319   1.078   .     S
C451   C452    1.389   .     A
C451   H1320   1.080   .     S
C452   C453    1.394   .     A
C452   H457    1.082   .     S
C453   H458    1.067   .     S
H455   C2178   1.078   1_554 S
H456   C2179   1.080   1_554 S
C459   C464    1.402   .     A
C459   C460    1.397   .     A
C460   C461    1.395   .     A
C460   H465    1.077   .     S
C461   C462    1.392   .     A
C461   H466    1.081   .     S
C462   C463    1.397   .     A
C462   H1331   1.079   .     S
C463   C464    1.400   .     A
C463   H1332   1.081   .     S
C464   H469    1.077   .     S
H467   C2190   1.079   1_554 S
H468   C2191   1.081   1_554 S
C470   C475    1.397   .     A
C470   C471    1.402   .     A
C471   H476    1.077   .     S
C471   C472    1.400   .     A
C472   C473    1.397   .     A
C472   H2205   1.081   1_554 S
C473   C474    1.392   .     A
C473   H2206   1.079   1_554 S
C474   C475    1.395   .     A
C474   H479    1.081   .     S
C475   H480    1.077   .     S
H477   C1336   1.081   .     S
H478   C1337   1.079   .     S
O481   C485    1.325   .     A
O481   Cu493   1.983   .     S
O482   C486    1.325   .     A
O482   Cu494   1.983   .     S
O483   C486    1.303   .     A
O483   Cu493   1.947   .     S
O484   C485    1.303   .     A
O484   Cu494   1.947   .     S
C485   C502    1.480   .     S
C486   C501    1.480   .     S
O487   C491    1.314   .     A
O487   Cu493   1.964   .     S
O488   C492    1.314   .     A
O488   Cu494   1.964   .     S
O489   Cu493   1.952   .     S
O489   C492    1.302   .     A
O490   Cu494   1.952   .     S
O490   C491    1.302   .     A
C491   C495    1.431   .     S
C492   C496    1.431   .     S
Cu493  N507    2.049   .     S
Cu493  Cu494   2.727   .     S
Cu494  N508    2.049   .     S
C495   C2224   1.204   1_554 S
C496   C1359   1.204   .     S
C497   N509    1.434   .     S
C497   C502    1.412   .     A
C498   C501    1.412   .     A
C498   N515    1.434   .     S
C498   C308    1.406   1_655 S
C499   C501    1.407   .     A
C499   N521    1.419   .     S
C499   C305    1.405   1_655 S
C500   C502    1.407   .     A
C500   N527    1.419   .     S
C503   C533    1.497   .     S
C503   N508    1.380   .     A
C504   N507    1.380   .     A
C504   C544    1.497   .     S
C504   C793    1.434   .     S
C505   N508    1.385   .     A
C505   C555    1.482   .     S
C506   N507    1.385   .     A
C506   C566    1.482   .     S
C506   C791    1.434   .     S
N509   H510    1.030   .     S
N509   C511    1.453   .     S
C511   H513    1.111   .     S
C511   H514    1.102   .     S
C511   H512    1.102   .     S
N515   H516    1.030   .     S
N515   C517    1.453   .     S
C517   H520    1.111   .     S
C517   H518    1.103   .     S
C517   H519    1.102   .     S
N521   H522    1.024   .     S
N521   C523    1.450   .     S
C523   H524    1.111   .     S
C523   H526    1.110   .     S
C523   H525    1.111   .     S
N527   C529    1.450   .     S
N527   H528    1.024   .     S
C529   H531    1.110   .     S
C529   H532    1.111   .     S
C529   H530    1.112   .     S
C533   C534    1.405   .     A
C533   C538    1.403   .     A
C534   C535    1.394   .     A
C534   H539    1.067   .     S
C535   C536    1.389   .     A
C535   H540    1.082   .     S
C536   C537    1.396   .     A
C536   H2269   1.080   1_554 S
C537   C538    1.401   .     A
C537   H2270   1.078   1_554 S
C538   H543    1.080   .     S
H541   C1400   1.080   .     S
H542   C1401   1.078   .     S
C544   C549    1.405   .     A
C544   C545    1.403   .     A
C545   H550    1.080   .     S
C545   C546    1.401   .     A
C546   C547    1.396   .     A
C546   H1415   1.078   .     S
C547   C548    1.389   .     A
C547   H1416   1.080   .     S
C548   C549    1.394   .     A
C548   H553    1.082   .     S
C549   H554    1.067   .     S
H551   C2274   1.078   1_554 S
H552   C2275   1.080   1_554 S
C555   C560    1.402   .     A
C555   C556    1.397   .     A
C556   C557    1.395   .     A
C556   H561    1.077   .     S
C557   C558    1.392   .     A
C557   H562    1.081   .     S
C558   C559    1.397   .     A
C558   H1427   1.079   .     S
C559   C560    1.400   .     A
C559   H1428   1.081   .     S
C560   H565    1.077   .     S
H563   C2286   1.079   1_554 S
H564   C2287   1.081   1_554 S
C566   C571    1.397   .     A
C566   C567    1.402   .     A
C567   H572    1.077   .     S
C567   C568    1.400   .     A
C568   C569    1.397   .     A
C568   H2301   1.081   1_554 S
C569   C570    1.392   .     A
C569   H2302   1.079   1_554 S
C570   C571    1.395   .     A
C570   H575    1.081   .     S
C571   H576    1.077   .     S
H573   C1432   1.081   .     S
H574   C1433   1.079   .     S
O577   C581    1.325   .     A
O577   Cu589   1.983   .     S
O578   C582    1.325   .     A
O578   Cu590   1.983   .     S
O579   C582    1.303   .     A
O579   Cu589   1.947   .     S
O580   C581    1.303   .     A
O580   Cu590   1.947   .     S
C581   C598    1.480   .     S
C582   C597    1.480   .     S
O583   C587    1.314   .     A
O583   Cu589   1.964   .     S
O584   C588    1.314   .     A
O584   Cu590   1.964   .     S
O585   Cu589   1.952   .     S
O585   C588    1.302   .     A
O586   Cu590   1.952   .     S
O586   C587    1.302   .     A
C587   C591    1.431   .     S
C588   C592    1.431   .     S
Cu589  N603    2.049   .     S
Cu589  Cu590   2.727   .     S
Cu590  N604    2.049   .     S
C591   C2320   1.204   1_554 S
C592   C1455   1.204   .     S
C593   N605    1.434   .     S
C593   C598    1.412   .     A
C593   C787    1.405   1_455 S
C594   C597    1.412   .     A
C594   N611    1.434   .     S
C594   C692    1.406   .     S
C595   C597    1.407   .     A
C595   N617    1.419   .     S
C595   C689    1.405   .     S
C596   C598    1.407   .     A
C596   N623    1.419   .     S
C596   C786    1.406   1_455 S
C599   C629    1.497   .     S
C599   N604    1.380   .     A
C600   N603    1.380   .     A
C600   C640    1.497   .     S
C600   C25     1.434   1_565 S
C601   N604    1.385   .     A
C601   C651    1.482   .     S
C602   N603    1.385   .     A
C602   C662    1.482   .     S
C602   C23     1.434   1_565 S
N605   H606    1.030   .     S
N605   C607    1.453   .     S
C607   H609    1.111   .     S
C607   H610    1.102   .     S
C607   H608    1.102   .     S
N611   H612    1.030   .     S
N611   C613    1.453   .     S
C613   H616    1.111   .     S
C613   H614    1.103   .     S
C613   H615    1.102   .     S
N617   H618    1.024   .     S
N617   C619    1.450   .     S
C619   H620    1.111   .     S
C619   H622    1.110   .     S
C619   H621    1.111   .     S
N623   C625    1.450   .     S
N623   H624    1.024   .     S
C625   H627    1.110   .     S
C625   H628    1.111   .     S
C625   H626    1.112   .     S
C629   C630    1.405   .     A
C629   C634    1.403   .     A
C630   C631    1.394   .     A
C630   H635    1.067   .     S
C631   C632    1.389   .     A
C631   H636    1.082   .     S
C632   C633    1.396   .     A
C632   H2365   1.080   1_554 S
C633   C634    1.401   .     A
C633   H2366   1.078   1_554 S
C634   H639    1.080   .     S
H637   C1496   1.080   .     S
H638   C1497   1.078   .     S
C640   C645    1.405   .     A
C640   C641    1.403   .     A
C641   H646    1.080   .     S
C641   C642    1.401   .     A
C642   C643    1.396   .     A
C642   H1511   1.078   .     S
C643   C644    1.389   .     A
C643   H1512   1.080   .     S
C644   C645    1.394   .     A
C644   H649    1.082   .     S
C645   H650    1.067   .     S
H647   C2370   1.078   1_554 S
H648   C2371   1.080   1_554 S
C651   C656    1.402   .     A
C651   C652    1.397   .     A
C652   C653    1.395   .     A
C652   H657    1.077   .     S
C653   C654    1.392   .     A
C653   H658    1.081   .     S
C654   C655    1.397   .     A
C654   H1523   1.079   .     S
C655   C656    1.400   .     A
C655   H1524   1.081   .     S
C656   H661    1.077   .     S
H659   C2382   1.079   1_554 S
H660   C2383   1.081   1_554 S
C662   C667    1.397   .     A
C662   C663    1.402   .     A
C663   H668    1.077   .     S
C663   C664    1.400   .     A
C664   C665    1.397   .     A
C664   H2397   1.081   1_554 S
C665   C666    1.392   .     A
C665   H2398   1.079   1_554 S
C666   C667    1.395   .     A
C666   H671    1.081   .     S
C667   H672    1.077   .     S
H669   C1528   1.081   .     S
H670   C1529   1.079   .     S
O673   C677    1.325   .     A
O673   Cu685   1.983   .     S
O674   C678    1.325   .     A
O674   Cu686   1.983   .     S
O675   C678    1.303   .     A
O675   Cu685   1.947   .     S
O676   C677    1.303   .     A
O676   Cu686   1.947   .     S
C677   C694    1.480   .     S
C678   C693    1.480   .     S
O679   C683    1.314   .     A
O679   Cu685   1.964   .     S
O680   C684    1.314   .     A
O680   Cu686   1.964   .     S
O681   Cu685   1.952   .     S
O681   C684    1.302   .     A
O682   Cu686   1.952   .     S
O682   C683    1.302   .     A
C683   C687    1.431   .     S
C684   C688    1.431   .     S
Cu685  N699    2.049   .     S
Cu685  Cu686   2.727   .     S
Cu686  N700    2.049   .     S
C687   C2416   1.204   1_554 S
C688   C1551   1.204   .     S
C689   N701    1.434   .     S
C689   C694    1.412   .     A
C690   C693    1.412   .     A
C690   N707    1.434   .     S
C690   C788    1.406   .     S
C691   C693    1.407   .     A
C691   N713    1.419   .     S
C691   C785    1.405   .     S
C692   C694    1.407   .     A
C692   N719    1.419   .     S
C695   C725    1.497   .     S
C695   N700    1.380   .     A
C696   N699    1.380   .     A
C696   C736    1.497   .     S
C696   C121    1.434   1_565 S
C697   N700    1.385   .     A
C697   C747    1.482   .     S
C698   N699    1.385   .     A
C698   C758    1.482   .     S
C698   C119    1.434   1_565 S
N701   H702    1.030   .     S
N701   C703    1.453   .     S
C703   H705    1.111   .     S
C703   H706    1.102   .     S
C703   H704    1.102   .     S
N707   H708    1.030   .     S
N707   C709    1.453   .     S
C709   H712    1.111   .     S
C709   H710    1.103   .     S
C709   H711    1.102   .     S
N713   H714    1.024   .     S
N713   C715    1.450   .     S
C715   H716    1.111   .     S
C715   H718    1.110   .     S
C715   H717    1.111   .     S
N719   C721    1.450   .     S
N719   H720    1.024   .     S
C721   H723    1.110   .     S
C721   H724    1.111   .     S
C721   H722    1.112   .     S
C725   C726    1.405   .     A
C725   C730    1.403   .     A
C726   C727    1.394   .     A
C726   H731    1.067   .     S
C727   C728    1.389   .     A
C727   H732    1.082   .     S
C728   C729    1.396   .     A
C728   H2461   1.080   1_554 S
C729   C730    1.401   .     A
C729   H2462   1.078   1_554 S
C730   H735    1.080   .     S
H733   C1592   1.080   .     S
H734   C1593   1.078   .     S
C736   C741    1.405   .     A
C736   C737    1.403   .     A
C737   H742    1.080   .     S
C737   C738    1.401   .     A
C738   C739    1.396   .     A
C738   H1607   1.078   .     S
C739   C740    1.389   .     A
C739   H1608   1.080   .     S
C740   C741    1.394   .     A
C740   H745    1.082   .     S
C741   H746    1.067   .     S
H743   C2466   1.078   1_554 S
H744   C2467   1.080   1_554 S
C747   C752    1.402   .     A
C747   C748    1.397   .     A
C748   C749    1.395   .     A
C748   H753    1.077   .     S
C749   C750    1.392   .     A
C749   H754    1.081   .     S
C750   C751    1.397   .     A
C750   H1619   1.079   .     S
C751   C752    1.400   .     A
C751   H1620   1.081   .     S
C752   H757    1.077   .     S
H755   C2478   1.079   1_554 S
H756   C2479   1.081   1_554 S
C758   C763    1.397   .     A
C758   C759    1.402   .     A
C759   H764    1.077   .     S
C759   C760    1.400   .     A
C760   C761    1.397   .     A
C760   H2493   1.081   1_554 S
C761   C762    1.392   .     A
C761   H2494   1.079   1_554 S
C762   C763    1.395   .     A
C762   H767    1.081   .     S
C763   H768    1.077   .     S
H765   C1624   1.081   .     S
H766   C1625   1.079   .     S
O769   C773    1.325   .     A
O769   Cu781   1.983   .     S
O770   C774    1.325   .     A
O770   Cu782   1.983   .     S
O771   C774    1.303   .     A
O771   Cu781   1.947   .     S
O772   C773    1.303   .     A
O772   Cu782   1.947   .     S
C773   C790    1.480   .     S
C774   C789    1.480   .     S
O775   C779    1.314   .     A
O775   Cu781   1.964   .     S
O776   C780    1.314   .     A
O776   Cu782   1.964   .     S
O777   Cu781   1.952   .     S
O777   C780    1.302   .     A
O778   Cu782   1.952   .     S
O778   C779    1.302   .     A
C779   C783    1.431   .     S
C780   C784    1.431   .     S
Cu781  N795    2.049   .     S
Cu781  Cu782   2.727   .     S
Cu782  N796    2.049   .     S
C783   C2512   1.204   1_554 S
C784   C1647   1.204   .     S
C785   N797    1.434   .     S
C785   C790    1.412   .     A
C786   C789    1.412   .     A
C786   N803    1.434   .     S
C786   C596    1.406   1_655 S
C787   C789    1.407   .     A
C787   N809    1.419   .     S
C787   C593    1.405   1_655 S
C788   C790    1.407   .     A
C788   N815    1.419   .     S
C791   C821    1.497   .     S
C791   N796    1.380   .     A
C792   N795    1.380   .     A
C792   C832    1.497   .     S
C792   C217    1.434   1_565 S
C793   N796    1.385   .     A
C793   C843    1.482   .     S
C794   N795    1.385   .     A
C794   C854    1.482   .     S
C794   C215    1.434   1_565 S
N797   H798    1.030   .     S
N797   C799    1.453   .     S
C799   H801    1.111   .     S
C799   H802    1.102   .     S
C799   H800    1.102   .     S
N803   H804    1.030   .     S
N803   C805    1.453   .     S
C805   H808    1.111   .     S
C805   H806    1.103   .     S
C805   H807    1.102   .     S
N809   H810    1.024   .     S
N809   C811    1.450   .     S
C811   H812    1.111   .     S
C811   H814    1.110   .     S
C811   H813    1.111   .     S
N815   C817    1.450   .     S
N815   H816    1.024   .     S
C817   H819    1.110   .     S
C817   H820    1.111   .     S
C817   H818    1.112   .     S
C821   C822    1.405   .     A
C821   C826    1.403   .     A
C822   C823    1.394   .     A
C822   H827    1.067   .     S
C823   C824    1.389   .     A
C823   H828    1.082   .     S
C824   C825    1.396   .     A
C824   H2557   1.080   1_554 S
C825   C826    1.401   .     A
C825   H2558   1.078   1_554 S
C826   H831    1.080   .     S
H829   C1688   1.080   .     S
H830   C1689   1.078   .     S
C832   C837    1.405   .     A
C832   C833    1.403   .     A
C833   H838    1.080   .     S
C833   C834    1.401   .     A
C834   C835    1.396   .     A
C834   H1703   1.078   .     S
C835   C836    1.389   .     A
C835   H1704   1.080   .     S
C836   C837    1.394   .     A
C836   H841    1.082   .     S
C837   H842    1.067   .     S
H839   C2562   1.078   1_554 S
H840   C2563   1.080   1_554 S
C843   C848    1.402   .     A
C843   C844    1.397   .     A
C844   C845    1.395   .     A
C844   H849    1.077   .     S
C845   C846    1.392   .     A
C845   H850    1.081   .     S
C846   C847    1.397   .     A
C846   H1715   1.079   .     S
C847   C848    1.400   .     A
C847   H1716   1.081   .     S
C848   H853    1.077   .     S
H851   C2574   1.079   1_554 S
H852   C2575   1.081   1_554 S
C854   C859    1.397   .     A
C854   C855    1.402   .     A
C855   H860    1.077   .     S
C855   C856    1.400   .     A
C856   C857    1.397   .     A
C856   H2589   1.081   1_554 S
C857   C858    1.392   .     A
C857   H2590   1.079   1_554 S
C858   C859    1.395   .     A
C858   H863    1.081   .     S
C859   H864    1.077   .     S
H861   C1720   1.081   .     S
H862   C1721   1.079   .     S
O865   C869    1.325   .     A
O865   Cu877   1.983   .     S
O866   C870    1.325   .     A
O866   Cu878   1.983   .     S
O867   C870    1.303   .     A
O867   Cu877   1.947   .     S
O868   C869    1.303   .     A
O868   Cu878   1.947   .     S
C869   C886    1.480   .     S
C870   C885    1.480   .     S
O871   C875    1.314   .     A
O871   Cu877   1.964   .     S
O872   C876    1.314   .     A
O872   Cu878   1.964   .     S
O873   Cu877   1.952   .     S
O873   C876    1.302   .     A
O874   Cu878   1.952   .     S
O874   C875    1.302   .     A
C875   C879    1.431   .     S
C876   C880    1.431   .     S
Cu877  N891    2.049   .     S
Cu877  Cu878   2.727   .     S
Cu878  N892    2.049   .     S
C880   C1743   1.204   .     S
C881   N893    1.434   .     S
C881   C886    1.412   .     A
C881   C1075   1.405   1_455 S
C882   C885    1.412   .     A
C882   N899    1.434   .     S
C882   C980    1.406   .     S
C883   C885    1.407   .     A
C883   N905    1.419   .     S
C883   C977    1.405   .     S
C884   C886    1.407   .     A
C884   N911    1.419   .     S
C884   C1074   1.406   1_455 S
C887   C917    1.497   .     S
C887   N892    1.380   .     A
C887   C1466   1.434   1_545 S
C888   N891    1.380   .     A
C888   C928    1.497   .     S
C888   C1177   1.434   .     S
C889   N892    1.385   .     A
C889   C939    1.482   .     S
C889   C1464   1.434   1_545 S
C890   N891    1.385   .     A
C890   C950    1.482   .     S
C890   C1175   1.434   .     S
N893   H894    1.030   .     S
N893   C895    1.453   .     S
C895   H897    1.111   .     S
C895   H898    1.102   .     S
C895   H896    1.102   .     S
N899   H900    1.030   .     S
N899   C901    1.453   .     S
C901   H904    1.111   .     S
C901   H902    1.103   .     S
C901   H903    1.102   .     S
N905   H906    1.024   .     S
N905   C907    1.450   .     S
C907   H908    1.111   .     S
C907   H910    1.110   .     S
C907   H909    1.111   .     S
N911   C913    1.450   .     S
N911   H912    1.024   .     S
C913   H915    1.110   .     S
C913   H916    1.111   .     S
C913   H914    1.112   .     S
C917   C918    1.405   .     A
C917   C922    1.403   .     A
C918   C919    1.394   .     A
C918   H923    1.067   .     S
C919   C920    1.389   .     A
C919   H924    1.082   .     S
C920   C921    1.396   .     A
C921   C922    1.401   .     A
C922   H927    1.080   .     S
H925   C1784   1.080   .     S
H926   C1785   1.078   .     S
C928   C933    1.405   .     A
C928   C929    1.403   .     A
C929   H934    1.080   .     S
C929   C930    1.401   .     A
C930   C931    1.396   .     A
C930   H1799   1.078   .     S
C931   C932    1.389   .     A
C931   H1800   1.080   .     S
C932   C933    1.394   .     A
C932   H937    1.082   .     S
C933   H938    1.067   .     S
C939   C944    1.402   .     A
C939   C940    1.397   .     A
C940   C941    1.395   .     A
C940   H945    1.077   .     S
C941   C942    1.392   .     A
C941   H946    1.081   .     S
C942   C943    1.397   .     A
C942   H1811   1.079   .     S
C943   C944    1.400   .     A
C943   H1812   1.081   .     S
C944   H949    1.077   .     S
C950   C955    1.397   .     A
C950   C951    1.402   .     A
C951   H956    1.077   .     S
C951   C952    1.400   .     A
C952   C953    1.397   .     A
C953   C954    1.392   .     A
C954   C955    1.395   .     A
C954   H959    1.081   .     S
C955   H960    1.077   .     S
H957   C1816   1.081   .     S
H958   C1817   1.079   .     S
O961   C965    1.325   .     A
O961   Cu973   1.983   .     S
O962   C966    1.325   .     A
O962   Cu974   1.983   .     S
O963   C966    1.303   .     A
O963   Cu973   1.947   .     S
O964   C965    1.303   .     A
O964   Cu974   1.947   .     S
C965   C982    1.480   .     S
C966   C981    1.480   .     S
O967   C971    1.314   .     A
O967   Cu973   1.964   .     S
O968   C972    1.314   .     A
O968   Cu974   1.964   .     S
O969   Cu973   1.952   .     S
O969   C972    1.302   .     A
O970   Cu974   1.952   .     S
O970   C971    1.302   .     A
C971   C975    1.431   .     S
C972   C976    1.431   .     S
Cu973  N987    2.049   .     S
Cu973  Cu974   2.727   .     S
Cu974  N988    2.049   .     S
C976   C1839   1.204   .     S
C977   N989    1.434   .     S
C977   C982    1.412   .     A
C978   C981    1.412   .     A
C978   N995    1.434   .     S
C978   C1076   1.406   .     S
C979   C981    1.407   .     A
C979   N1001   1.419   .     S
C979   C1073   1.405   .     S
C980   C982    1.407   .     A
C980   N1007   1.419   .     S
C983   C1013   1.497   .     S
C983   N988    1.380   .     A
C983   C1562   1.434   1_545 S
C984   N987    1.380   .     A
C984   C1024   1.497   .     S
C984   C1273   1.434   .     S
C985   N988    1.385   .     A
C985   C1035   1.482   .     S
C985   C1560   1.434   1_545 S
C986   N987    1.385   .     A
C986   C1046   1.482   .     S
C986   C1271   1.434   .     S
N989   H990    1.030   .     S
N989   C991    1.453   .     S
C991   H993    1.111   .     S
C991   H994    1.102   .     S
C991   H992    1.102   .     S
N995   H996    1.030   .     S
N995   C997    1.453   .     S
C997   H1000   1.111   .     S
C997   H998    1.103   .     S
C997   H999    1.102   .     S
N1001  H1002   1.024   .     S
N1001  C1003   1.450   .     S
C1003  H1004   1.111   .     S
C1003  H1006   1.110   .     S
C1003  H1005   1.111   .     S
N1007  C1009   1.450   .     S
N1007  H1008   1.024   .     S
C1009  H1011   1.110   .     S
C1009  H1012   1.111   .     S
C1009  H1010   1.112   .     S
C1013  C1014   1.405   .     A
C1013  C1018   1.403   .     A
C1014  C1015   1.394   .     A
C1014  H1019   1.067   .     S
C1015  C1016   1.389   .     A
C1015  H1020   1.082   .     S
C1016  C1017   1.396   .     A
C1017  C1018   1.401   .     A
C1018  H1023   1.080   .     S
H1021  C1880   1.080   .     S
H1022  C1881   1.078   .     S
C1024  C1029   1.405   .     A
C1024  C1025   1.403   .     A
C1025  H1030   1.080   .     S
C1025  C1026   1.401   .     A
C1026  C1027   1.396   .     A
C1026  H1895   1.078   .     S
C1027  C1028   1.389   .     A
C1027  H1896   1.080   .     S
C1028  C1029   1.394   .     A
C1028  H1033   1.082   .     S
C1029  H1034   1.067   .     S
C1035  C1040   1.402   .     A
C1035  C1036   1.397   .     A
C1036  C1037   1.395   .     A
C1036  H1041   1.077   .     S
C1037  C1038   1.392   .     A
C1037  H1042   1.081   .     S
C1038  C1039   1.397   .     A
C1038  H1907   1.079   .     S
C1039  C1040   1.400   .     A
C1039  H1908   1.081   .     S
C1040  H1045   1.077   .     S
C1046  C1051   1.397   .     A
C1046  C1047   1.402   .     A
C1047  H1052   1.077   .     S
C1047  C1048   1.400   .     A
C1048  C1049   1.397   .     A
C1049  C1050   1.392   .     A
C1050  C1051   1.395   .     A
C1050  H1055   1.081   .     S
C1051  H1056   1.077   .     S
H1053  C1912   1.081   .     S
H1054  C1913   1.079   .     S
O1057  C1061   1.325   .     A
O1057  Cu1069  1.983   .     S
O1058  C1062   1.325   .     A
O1058  Cu1070  1.983   .     S
O1059  C1062   1.303   .     A
O1059  Cu1069  1.947   .     S
O1060  C1061   1.303   .     A
O1060  Cu1070  1.947   .     S
C1061  C1078   1.480   .     S
C1062  C1077   1.480   .     S
O1063  C1067   1.314   .     A
O1063  Cu1069  1.964   .     S
O1064  C1068   1.314   .     A
O1064  Cu1070  1.964   .     S
O1065  Cu1069  1.952   .     S
O1065  C1068   1.302   .     A
O1066  Cu1070  1.952   .     S
O1066  C1067   1.302   .     A
C1067  C1071   1.431   .     S
C1068  C1072   1.431   .     S
Cu1069 N1083   2.049   .     S
Cu1069 Cu1070  2.727   .     S
Cu1070 N1084   2.049   .     S
C1072  C1935   1.204   .     S
C1073  N1085   1.434   .     S
C1073  C1078   1.412   .     A
C1074  C1077   1.412   .     A
C1074  N1091   1.434   .     S
C1074  C884    1.406   1_655 S
C1075  C1077   1.407   .     A
C1075  N1097   1.419   .     S
C1075  C881    1.405   1_655 S
C1076  C1078   1.407   .     A
C1076  N1103   1.419   .     S
C1079  C1109   1.497   .     S
C1079  N1084   1.380   .     A
C1079  C1658   1.434   1_545 S
C1080  N1083   1.380   .     A
C1080  C1120   1.497   .     S
C1080  C1369   1.434   .     S
C1081  N1084   1.385   .     A
C1081  C1131   1.482   .     S
C1081  C1656   1.434   1_545 S
C1082  N1083   1.385   .     A
C1082  C1142   1.482   .     S
C1082  C1367   1.434   .     S
N1085  H1086   1.030   .     S
N1085  C1087   1.453   .     S
C1087  H1089   1.111   .     S
C1087  H1090   1.102   .     S
C1087  H1088   1.102   .     S
N1091  H1092   1.030   .     S
N1091  C1093   1.453   .     S
C1093  H1096   1.111   .     S
C1093  H1094   1.103   .     S
C1093  H1095   1.102   .     S
N1097  H1098   1.024   .     S
N1097  C1099   1.450   .     S
C1099  H1100   1.111   .     S
C1099  H1102   1.110   .     S
C1099  H1101   1.111   .     S
N1103  C1105   1.450   .     S
N1103  H1104   1.024   .     S
C1105  H1107   1.110   .     S
C1105  H1108   1.111   .     S
C1105  H1106   1.112   .     S
C1109  C1110   1.405   .     A
C1109  C1114   1.403   .     A
C1110  C1111   1.394   .     A
C1110  H1115   1.067   .     S
C1111  C1112   1.389   .     A
C1111  H1116   1.082   .     S
C1112  C1113   1.396   .     A
C1113  C1114   1.401   .     A
C1114  H1119   1.080   .     S
H1117  C1976   1.080   .     S
H1118  C1977   1.078   .     S
C1120  C1125   1.405   .     A
C1120  C1121   1.403   .     A
C1121  H1126   1.080   .     S
C1121  C1122   1.401   .     A
C1122  C1123   1.396   .     A
C1122  H1991   1.078   .     S
C1123  C1124   1.389   .     A
C1123  H1992   1.080   .     S
C1124  C1125   1.394   .     A
C1124  H1129   1.082   .     S
C1125  H1130   1.067   .     S
C1131  C1136   1.402   .     A
C1131  C1132   1.397   .     A
C1132  C1133   1.395   .     A
C1132  H1137   1.077   .     S
C1133  C1134   1.392   .     A
C1133  H1138   1.081   .     S
C1134  C1135   1.397   .     A
C1134  H2003   1.079   .     S
C1135  C1136   1.400   .     A
C1135  H2004   1.081   .     S
C1136  H1141   1.077   .     S
C1142  C1147   1.397   .     A
C1142  C1143   1.402   .     A
C1143  H1148   1.077   .     S
C1143  C1144   1.400   .     A
C1144  C1145   1.397   .     A
C1145  C1146   1.392   .     A
C1146  C1147   1.395   .     A
C1146  H1151   1.081   .     S
C1147  H1152   1.077   .     S
H1149  C2008   1.081   .     S
H1150  C2009   1.079   .     S
O1153  C1157   1.325   .     A
O1153  Cu1165  1.983   .     S
O1154  C1158   1.325   .     A
O1154  Cu1166  1.983   .     S
O1155  C1158   1.303   .     A
O1155  Cu1165  1.947   .     S
O1156  C1157   1.303   .     A
O1156  Cu1166  1.947   .     S
C1157  C1174   1.480   .     S
C1158  C1173   1.480   .     S
O1159  C1163   1.314   .     A
O1159  Cu1165  1.964   .     S
O1160  C1164   1.314   .     A
O1160  Cu1166  1.964   .     S
O1161  Cu1165  1.952   .     S
O1161  C1164   1.302   .     A
O1162  Cu1166  1.952   .     S
O1162  C1163   1.302   .     A
C1163  C1167   1.431   .     S
C1164  C1168   1.431   .     S
Cu1165 N1179   2.049   .     S
Cu1165 Cu1166  2.727   .     S
Cu1166 N1180   2.049   .     S
C1168  C2031   1.204   .     S
C1169  N1181   1.434   .     S
C1169  C1174   1.412   .     A
C1169  C1363   1.405   1_455 S
C1170  C1173   1.412   .     A
C1170  N1187   1.434   .     S
C1170  C1268   1.406   .     S
C1171  C1173   1.407   .     A
C1171  N1193   1.419   .     S
C1171  C1265   1.405   .     S
C1172  C1174   1.407   .     A
C1172  N1199   1.419   .     S
C1172  C1362   1.406   1_455 S
C1175  C1205   1.497   .     S
C1175  N1180   1.380   .     A
C1176  N1179   1.380   .     A
C1176  C1216   1.497   .     S
C1176  C1465   1.434   .     S
C1177  N1180   1.385   .     A
C1177  C1227   1.482   .     S
C1178  N1179   1.385   .     A
C1178  C1238   1.482   .     S
C1178  C1463   1.434   .     S
N1181  H1182   1.030   .     S
N1181  C1183   1.453   .     S
C1183  H1185   1.111   .     S
C1183  H1186   1.102   .     S
C1183  H1184   1.102   .     S
N1187  H1188   1.030   .     S
N1187  C1189   1.453   .     S
C1189  H1192   1.111   .     S
C1189  H1190   1.103   .     S
C1189  H1191   1.102   .     S
N1193  H1194   1.024   .     S
N1193  C1195   1.450   .     S
C1195  H1196   1.111   .     S
C1195  H1198   1.110   .     S
C1195  H1197   1.111   .     S
N1199  C1201   1.450   .     S
N1199  H1200   1.024   .     S
C1201  H1203   1.110   .     S
C1201  H1204   1.111   .     S
C1201  H1202   1.112   .     S
C1205  C1206   1.405   .     A
C1205  C1210   1.403   .     A
C1206  C1207   1.394   .     A
C1206  H1211   1.067   .     S
C1207  C1208   1.389   .     A
C1207  H1212   1.082   .     S
C1208  C1209   1.396   .     A
C1209  C1210   1.401   .     A
C1210  H1215   1.080   .     S
H1213  C2072   1.080   .     S
H1214  C2073   1.078   .     S
C1216  C1221   1.405   .     A
C1216  C1217   1.403   .     A
C1217  H1222   1.080   .     S
C1217  C1218   1.401   .     A
C1218  C1219   1.396   .     A
C1218  H2087   1.078   .     S
C1219  C1220   1.389   .     A
C1219  H2088   1.080   .     S
C1220  C1221   1.394   .     A
C1220  H1225   1.082   .     S
C1221  H1226   1.067   .     S
C1227  C1232   1.402   .     A
C1227  C1228   1.397   .     A
C1228  C1229   1.395   .     A
C1228  H1233   1.077   .     S
C1229  C1230   1.392   .     A
C1229  H1234   1.081   .     S
C1230  C1231   1.397   .     A
C1230  H2099   1.079   .     S
C1231  C1232   1.400   .     A
C1231  H2100   1.081   .     S
C1232  H1237   1.077   .     S
C1238  C1243   1.397   .     A
C1238  C1239   1.402   .     A
C1239  H1244   1.077   .     S
C1239  C1240   1.400   .     A
C1240  C1241   1.397   .     A
C1241  C1242   1.392   .     A
C1242  C1243   1.395   .     A
C1242  H1247   1.081   .     S
C1243  H1248   1.077   .     S
H1245  C2104   1.081   .     S
H1246  C2105   1.079   .     S
O1249  C1253   1.325   .     A
O1249  Cu1261  1.983   .     S
O1250  C1254   1.325   .     A
O1250  Cu1262  1.983   .     S
O1251  C1254   1.303   .     A
O1251  Cu1261  1.947   .     S
O1252  C1253   1.303   .     A
O1252  Cu1262  1.947   .     S
C1253  C1270   1.480   .     S
C1254  C1269   1.480   .     S
O1255  C1259   1.314   .     A
O1255  Cu1261  1.964   .     S
O1256  C1260   1.314   .     A
O1256  Cu1262  1.964   .     S
O1257  Cu1261  1.952   .     S
O1257  C1260   1.302   .     A
O1258  Cu1262  1.952   .     S
O1258  C1259   1.302   .     A
C1259  C1263   1.431   .     S
C1260  C1264   1.431   .     S
Cu1261 N1275   2.049   .     S
Cu1261 Cu1262  2.727   .     S
Cu1262 N1276   2.049   .     S
C1264  C2127   1.204   .     S
C1265  N1277   1.434   .     S
C1265  C1270   1.412   .     A
C1266  C1269   1.412   .     A
C1266  N1283   1.434   .     S
C1266  C1364   1.406   .     S
C1267  C1269   1.407   .     A
C1267  N1289   1.419   .     S
C1267  C1361   1.405   .     S
C1268  C1270   1.407   .     A
C1268  N1295   1.419   .     S
C1271  C1301   1.497   .     S
C1271  N1276   1.380   .     A
C1272  N1275   1.380   .     A
C1272  C1312   1.497   .     S
C1272  C1561   1.434   .     S
C1273  N1276   1.385   .     A
C1273  C1323   1.482   .     S
C1274  N1275   1.385   .     A
C1274  C1334   1.482   .     S
C1274  C1559   1.434   .     S
N1277  H1278   1.030   .     S
N1277  C1279   1.453   .     S
C1279  H1281   1.111   .     S
C1279  H1282   1.102   .     S
C1279  H1280   1.102   .     S
N1283  H1284   1.030   .     S
N1283  C1285   1.453   .     S
C1285  H1288   1.111   .     S
C1285  H1286   1.103   .     S
C1285  H1287   1.102   .     S
N1289  H1290   1.024   .     S
N1289  C1291   1.450   .     S
C1291  H1292   1.111   .     S
C1291  H1294   1.110   .     S
C1291  H1293   1.111   .     S
N1295  C1297   1.450   .     S
N1295  H1296   1.024   .     S
C1297  H1299   1.110   .     S
C1297  H1300   1.111   .     S
C1297  H1298   1.112   .     S
C1301  C1302   1.405   .     A
C1301  C1306   1.403   .     A
C1302  C1303   1.394   .     A
C1302  H1307   1.067   .     S
C1303  C1304   1.389   .     A
C1303  H1308   1.082   .     S
C1304  C1305   1.396   .     A
C1305  C1306   1.401   .     A
C1306  H1311   1.080   .     S
H1309  C2168   1.080   .     S
H1310  C2169   1.078   .     S
C1312  C1317   1.405   .     A
C1312  C1313   1.403   .     A
C1313  H1318   1.080   .     S
C1313  C1314   1.401   .     A
C1314  C1315   1.396   .     A
C1314  H2183   1.078   .     S
C1315  C1316   1.389   .     A
C1315  H2184   1.080   .     S
C1316  C1317   1.394   .     A
C1316  H1321   1.082   .     S
C1317  H1322   1.067   .     S
C1323  C1328   1.402   .     A
C1323  C1324   1.397   .     A
C1324  C1325   1.395   .     A
C1324  H1329   1.077   .     S
C1325  C1326   1.392   .     A
C1325  H1330   1.081   .     S
C1326  C1327   1.397   .     A
C1326  H2195   1.079   .     S
C1327  C1328   1.400   .     A
C1327  H2196   1.081   .     S
C1328  H1333   1.077   .     S
C1334  C1339   1.397   .     A
C1334  C1335   1.402   .     A
C1335  H1340   1.077   .     S
C1335  C1336   1.400   .     A
C1336  C1337   1.397   .     A
C1337  C1338   1.392   .     A
C1338  C1339   1.395   .     A
C1338  H1343   1.081   .     S
C1339  H1344   1.077   .     S
H1341  C2200   1.081   .     S
H1342  C2201   1.079   .     S
O1345  C1349   1.325   .     A
O1345  Cu1357  1.983   .     S
O1346  C1350   1.325   .     A
O1346  Cu1358  1.983   .     S
O1347  C1350   1.303   .     A
O1347  Cu1357  1.947   .     S
O1348  C1349   1.303   .     A
O1348  Cu1358  1.947   .     S
C1349  C1366   1.480   .     S
C1350  C1365   1.480   .     S
O1351  C1355   1.314   .     A
O1351  Cu1357  1.964   .     S
O1352  C1356   1.314   .     A
O1352  Cu1358  1.964   .     S
O1353  Cu1357  1.952   .     S
O1353  C1356   1.302   .     A
O1354  Cu1358  1.952   .     S
O1354  C1355   1.302   .     A
C1355  C1359   1.431   .     S
C1356  C1360   1.431   .     S
Cu1357 N1371   2.049   .     S
Cu1357 Cu1358  2.727   .     S
Cu1358 N1372   2.049   .     S
C1360  C2223   1.204   .     S
C1361  N1373   1.434   .     S
C1361  C1366   1.412   .     A
C1362  C1365   1.412   .     A
C1362  N1379   1.434   .     S
C1362  C1172   1.406   1_655 S
C1363  C1365   1.407   .     A
C1363  N1385   1.419   .     S
C1363  C1169   1.405   1_655 S
C1364  C1366   1.407   .     A
C1364  N1391   1.419   .     S
C1367  C1397   1.497   .     S
C1367  N1372   1.380   .     A
C1368  N1371   1.380   .     A
C1368  C1408   1.497   .     S
C1368  C1657   1.434   .     S
C1369  N1372   1.385   .     A
C1369  C1419   1.482   .     S
C1370  N1371   1.385   .     A
C1370  C1430   1.482   .     S
C1370  C1655   1.434   .     S
N1373  H1374   1.030   .     S
N1373  C1375   1.453   .     S
C1375  H1377   1.111   .     S
C1375  H1378   1.102   .     S
C1375  H1376   1.102   .     S
N1379  H1380   1.030   .     S
N1379  C1381   1.453   .     S
C1381  H1384   1.111   .     S
C1381  H1382   1.103   .     S
C1381  H1383   1.102   .     S
N1385  H1386   1.024   .     S
N1385  C1387   1.450   .     S
C1387  H1388   1.111   .     S
C1387  H1390   1.110   .     S
C1387  H1389   1.111   .     S
N1391  C1393   1.450   .     S
N1391  H1392   1.024   .     S
C1393  H1395   1.110   .     S
C1393  H1396   1.111   .     S
C1393  H1394   1.112   .     S
C1397  C1398   1.405   .     A
C1397  C1402   1.403   .     A
C1398  C1399   1.394   .     A
C1398  H1403   1.067   .     S
C1399  C1400   1.389   .     A
C1399  H1404   1.082   .     S
C1400  C1401   1.396   .     A
C1401  C1402   1.401   .     A
C1402  H1407   1.080   .     S
H1405  C2264   1.080   .     S
H1406  C2265   1.078   .     S
C1408  C1413   1.405   .     A
C1408  C1409   1.403   .     A
C1409  H1414   1.080   .     S
C1409  C1410   1.401   .     A
C1410  C1411   1.396   .     A
C1410  H2279   1.078   .     S
C1411  C1412   1.389   .     A
C1411  H2280   1.080   .     S
C1412  C1413   1.394   .     A
C1412  H1417   1.082   .     S
C1413  H1418   1.067   .     S
C1419  C1424   1.402   .     A
C1419  C1420   1.397   .     A
C1420  C1421   1.395   .     A
C1420  H1425   1.077   .     S
C1421  C1422   1.392   .     A
C1421  H1426   1.081   .     S
C1422  C1423   1.397   .     A
C1422  H2291   1.079   .     S
C1423  C1424   1.400   .     A
C1423  H2292   1.081   .     S
C1424  H1429   1.077   .     S
C1430  C1435   1.397   .     A
C1430  C1431   1.402   .     A
C1431  H1436   1.077   .     S
C1431  C1432   1.400   .     A
C1432  C1433   1.397   .     A
C1433  C1434   1.392   .     A
C1434  C1435   1.395   .     A
C1434  H1439   1.081   .     S
C1435  H1440   1.077   .     S
H1437  C2296   1.081   .     S
H1438  C2297   1.079   .     S
O1441  C1445   1.325   .     A
O1441  Cu1453  1.983   .     S
O1442  C1446   1.325   .     A
O1442  Cu1454  1.983   .     S
O1443  C1446   1.303   .     A
O1443  Cu1453  1.947   .     S
O1444  C1445   1.303   .     A
O1444  Cu1454  1.947   .     S
C1445  C1462   1.480   .     S
C1446  C1461   1.480   .     S
O1447  C1451   1.314   .     A
O1447  Cu1453  1.964   .     S
O1448  C1452   1.314   .     A
O1448  Cu1454  1.964   .     S
O1449  Cu1453  1.952   .     S
O1449  C1452   1.302   .     A
O1450  Cu1454  1.952   .     S
O1450  C1451   1.302   .     A
C1451  C1455   1.431   .     S
C1452  C1456   1.431   .     S
Cu1453 N1467   2.049   .     S
Cu1453 Cu1454  2.727   .     S
Cu1454 N1468   2.049   .     S
C1456  C2319   1.204   .     S
C1457  N1469   1.434   .     S
C1457  C1462   1.412   .     A
C1457  C1651   1.405   1_455 S
C1458  C1461   1.412   .     A
C1458  N1475   1.434   .     S
C1458  C1556   1.406   .     S
C1459  C1461   1.407   .     A
C1459  N1481   1.419   .     S
C1459  C1553   1.405   .     S
C1460  C1462   1.407   .     A
C1460  N1487   1.419   .     S
C1460  C1650   1.406   1_455 S
C1463  C1493   1.497   .     S
C1463  N1468   1.380   .     A
C1464  N1467   1.380   .     A
C1464  C1504   1.497   .     S
C1464  C889    1.434   1_565 S
C1465  N1468   1.385   .     A
C1465  C1515   1.482   .     S
C1466  N1467   1.385   .     A
C1466  C1526   1.482   .     S
C1466  C887    1.434   1_565 S
N1469  H1470   1.030   .     S
N1469  C1471   1.453   .     S
C1471  H1473   1.111   .     S
C1471  H1474   1.102   .     S
C1471  H1472   1.102   .     S
N1475  H1476   1.030   .     S
N1475  C1477   1.453   .     S
C1477  H1480   1.111   .     S
C1477  H1478   1.103   .     S
C1477  H1479   1.102   .     S
N1481  H1482   1.024   .     S
N1481  C1483   1.450   .     S
C1483  H1484   1.111   .     S
C1483  H1486   1.110   .     S
C1483  H1485   1.111   .     S
N1487  C1489   1.450   .     S
N1487  H1488   1.024   .     S
C1489  H1491   1.110   .     S
C1489  H1492   1.111   .     S
C1489  H1490   1.112   .     S
C1493  C1494   1.405   .     A
C1493  C1498   1.403   .     A
C1494  C1495   1.394   .     A
C1494  H1499   1.067   .     S
C1495  C1496   1.389   .     A
C1495  H1500   1.082   .     S
C1496  C1497   1.396   .     A
C1497  C1498   1.401   .     A
C1498  H1503   1.080   .     S
H1501  C2360   1.080   .     S
H1502  C2361   1.078   .     S
C1504  C1509   1.405   .     A
C1504  C1505   1.403   .     A
C1505  H1510   1.080   .     S
C1505  C1506   1.401   .     A
C1506  C1507   1.396   .     A
C1506  H2375   1.078   .     S
C1507  C1508   1.389   .     A
C1507  H2376   1.080   .     S
C1508  C1509   1.394   .     A
C1508  H1513   1.082   .     S
C1509  H1514   1.067   .     S
C1515  C1520   1.402   .     A
C1515  C1516   1.397   .     A
C1516  C1517   1.395   .     A
C1516  H1521   1.077   .     S
C1517  C1518   1.392   .     A
C1517  H1522   1.081   .     S
C1518  C1519   1.397   .     A
C1518  H2387   1.079   .     S
C1519  C1520   1.400   .     A
C1519  H2388   1.081   .     S
C1520  H1525   1.077   .     S
C1526  C1531   1.397   .     A
C1526  C1527   1.402   .     A
C1527  H1532   1.077   .     S
C1527  C1528   1.400   .     A
C1528  C1529   1.397   .     A
C1529  C1530   1.392   .     A
C1530  C1531   1.395   .     A
C1530  H1535   1.081   .     S
C1531  H1536   1.077   .     S
H1533  C2392   1.081   .     S
H1534  C2393   1.079   .     S
O1537  C1541   1.325   .     A
O1537  Cu1549  1.983   .     S
O1538  C1542   1.325   .     A
O1538  Cu1550  1.983   .     S
O1539  C1542   1.303   .     A
O1539  Cu1549  1.947   .     S
O1540  C1541   1.303   .     A
O1540  Cu1550  1.947   .     S
C1541  C1558   1.480   .     S
C1542  C1557   1.480   .     S
O1543  C1547   1.314   .     A
O1543  Cu1549  1.964   .     S
O1544  C1548   1.314   .     A
O1544  Cu1550  1.964   .     S
O1545  Cu1549  1.952   .     S
O1545  C1548   1.302   .     A
O1546  Cu1550  1.952   .     S
O1546  C1547   1.302   .     A
C1547  C1551   1.431   .     S
C1548  C1552   1.431   .     S
Cu1549 N1563   2.049   .     S
Cu1549 Cu1550  2.727   .     S
Cu1550 N1564   2.049   .     S
C1552  C2415   1.204   .     S
C1553  N1565   1.434   .     S
C1553  C1558   1.412   .     A
C1554  C1557   1.412   .     A
C1554  N1571   1.434   .     S
C1554  C1652   1.406   .     S
C1555  C1557   1.407   .     A
C1555  N1577   1.419   .     S
C1555  C1649   1.405   .     S
C1556  C1558   1.407   .     A
C1556  N1583   1.419   .     S
C1559  C1589   1.497   .     S
C1559  N1564   1.380   .     A
C1560  N1563   1.380   .     A
C1560  C1600   1.497   .     S
C1560  C985    1.434   1_565 S
C1561  N1564   1.385   .     A
C1561  C1611   1.482   .     S
C1562  N1563   1.385   .     A
C1562  C1622   1.482   .     S
C1562  C983    1.434   1_565 S
N1565  H1566   1.030   .     S
N1565  C1567   1.453   .     S
C1567  H1569   1.111   .     S
C1567  H1570   1.102   .     S
C1567  H1568   1.102   .     S
N1571  H1572   1.030   .     S
N1571  C1573   1.453   .     S
C1573  H1576   1.111   .     S
C1573  H1574   1.103   .     S
C1573  H1575   1.102   .     S
N1577  H1578   1.024   .     S
N1577  C1579   1.450   .     S
C1579  H1580   1.111   .     S
C1579  H1582   1.110   .     S
C1579  H1581   1.111   .     S
N1583  C1585   1.450   .     S
N1583  H1584   1.024   .     S
C1585  H1587   1.110   .     S
C1585  H1588   1.111   .     S
C1585  H1586   1.112   .     S
C1589  C1590   1.405   .     A
C1589  C1594   1.403   .     A
C1590  C1591   1.394   .     A
C1590  H1595   1.067   .     S
C1591  C1592   1.389   .     A
C1591  H1596   1.082   .     S
C1592  C1593   1.396   .     A
C1593  C1594   1.401   .     A
C1594  H1599   1.080   .     S
H1597  C2456   1.080   .     S
H1598  C2457   1.078   .     S
C1600  C1605   1.405   .     A
C1600  C1601   1.403   .     A
C1601  H1606   1.080   .     S
C1601  C1602   1.401   .     A
C1602  C1603   1.396   .     A
C1602  H2471   1.078   .     S
C1603  C1604   1.389   .     A
C1603  H2472   1.080   .     S
C1604  C1605   1.394   .     A
C1604  H1609   1.082   .     S
C1605  H1610   1.067   .     S
C1611  C1616   1.402   .     A
C1611  C1612   1.397   .     A
C1612  C1613   1.395   .     A
C1612  H1617   1.077   .     S
C1613  C1614   1.392   .     A
C1613  H1618   1.081   .     S
C1614  C1615   1.397   .     A
C1614  H2483   1.079   .     S
C1615  C1616   1.400   .     A
C1615  H2484   1.081   .     S
C1616  H1621   1.077   .     S
C1622  C1627   1.397   .     A
C1622  C1623   1.402   .     A
C1623  H1628   1.077   .     S
C1623  C1624   1.400   .     A
C1624  C1625   1.397   .     A
C1625  C1626   1.392   .     A
C1626  C1627   1.395   .     A
C1626  H1631   1.081   .     S
C1627  H1632   1.077   .     S
H1629  C2488   1.081   .     S
H1630  C2489   1.079   .     S
O1633  C1637   1.325   .     A
O1633  Cu1645  1.983   .     S
O1634  C1638   1.325   .     A
O1634  Cu1646  1.983   .     S
O1635  C1638   1.303   .     A
O1635  Cu1645  1.947   .     S
O1636  C1637   1.303   .     A
O1636  Cu1646  1.947   .     S
C1637  C1654   1.480   .     S
C1638  C1653   1.480   .     S
O1639  C1643   1.314   .     A
O1639  Cu1645  1.964   .     S
O1640  C1644   1.314   .     A
O1640  Cu1646  1.964   .     S
O1641  Cu1645  1.952   .     S
O1641  C1644   1.302   .     A
O1642  Cu1646  1.952   .     S
O1642  C1643   1.302   .     A
C1643  C1647   1.431   .     S
C1644  C1648   1.431   .     S
Cu1645 N1659   2.049   .     S
Cu1645 Cu1646  2.727   .     S
Cu1646 N1660   2.049   .     S
C1648  C2511   1.204   .     S
C1649  N1661   1.434   .     S
C1649  C1654   1.412   .     A
C1650  C1653   1.412   .     A
C1650  N1667   1.434   .     S
C1650  C1460   1.406   1_655 S
C1651  C1653   1.407   .     A
C1651  N1673   1.419   .     S
C1651  C1457   1.405   1_655 S
C1652  C1654   1.407   .     A
C1652  N1679   1.419   .     S
C1655  C1685   1.497   .     S
C1655  N1660   1.380   .     A
C1656  N1659   1.380   .     A
C1656  C1696   1.497   .     S
C1656  C1081   1.434   1_565 S
C1657  N1660   1.385   .     A
C1657  C1707   1.482   .     S
C1658  N1659   1.385   .     A
C1658  C1718   1.482   .     S
C1658  C1079   1.434   1_565 S
N1661  H1662   1.030   .     S
N1661  C1663   1.453   .     S
C1663  H1665   1.111   .     S
C1663  H1666   1.102   .     S
C1663  H1664   1.102   .     S
N1667  H1668   1.030   .     S
N1667  C1669   1.453   .     S
C1669  H1672   1.111   .     S
C1669  H1670   1.103   .     S
C1669  H1671   1.102   .     S
N1673  H1674   1.024   .     S
N1673  C1675   1.450   .     S
C1675  H1676   1.111   .     S
C1675  H1678   1.110   .     S
C1675  H1677   1.111   .     S
N1679  C1681   1.450   .     S
N1679  H1680   1.024   .     S
C1681  H1683   1.110   .     S
C1681  H1684   1.111   .     S
C1681  H1682   1.112   .     S
C1685  C1686   1.405   .     A
C1685  C1690   1.403   .     A
C1686  C1687   1.394   .     A
C1686  H1691   1.067   .     S
C1687  C1688   1.389   .     A
C1687  H1692   1.082   .     S
C1688  C1689   1.396   .     A
C1689  C1690   1.401   .     A
C1690  H1695   1.080   .     S
H1693  C2552   1.080   .     S
H1694  C2553   1.078   .     S
C1696  C1701   1.405   .     A
C1696  C1697   1.403   .     A
C1697  H1702   1.080   .     S
C1697  C1698   1.401   .     A
C1698  C1699   1.396   .     A
C1698  H2567   1.078   .     S
C1699  C1700   1.389   .     A
C1699  H2568   1.080   .     S
C1700  C1701   1.394   .     A
C1700  H1705   1.082   .     S
C1701  H1706   1.067   .     S
C1707  C1712   1.402   .     A
C1707  C1708   1.397   .     A
C1708  C1709   1.395   .     A
C1708  H1713   1.077   .     S
C1709  C1710   1.392   .     A
C1709  H1714   1.081   .     S
C1710  C1711   1.397   .     A
C1710  H2579   1.079   .     S
C1711  C1712   1.400   .     A
C1711  H2580   1.081   .     S
C1712  H1717   1.077   .     S
C1718  C1723   1.397   .     A
C1718  C1719   1.402   .     A
C1719  H1724   1.077   .     S
C1719  C1720   1.400   .     A
C1720  C1721   1.397   .     A
C1721  C1722   1.392   .     A
C1722  C1723   1.395   .     A
C1722  H1727   1.081   .     S
C1723  H1728   1.077   .     S
H1725  C2584   1.081   .     S
H1726  C2585   1.079   .     S
O1729  C1733   1.325   .     A
O1729  Cu1741  1.983   .     S
O1730  C1734   1.325   .     A
O1730  Cu1742  1.983   .     S
O1731  C1734   1.303   .     A
O1731  Cu1741  1.947   .     S
O1732  C1733   1.303   .     A
O1732  Cu1742  1.947   .     S
C1733  C1750   1.480   .     S
C1734  C1749   1.480   .     S
O1735  C1739   1.314   .     A
O1735  Cu1741  1.964   .     S
O1736  C1740   1.314   .     A
O1736  Cu1742  1.964   .     S
O1737  Cu1741  1.952   .     S
O1737  C1740   1.302   .     A
O1738  Cu1742  1.952   .     S
O1738  C1739   1.302   .     A
C1739  C1743   1.431   .     S
C1740  C1744   1.431   .     S
Cu1741 N1755   2.049   .     S
Cu1741 Cu1742  2.727   .     S
Cu1742 N1756   2.049   .     S
C1744  C15     1.204   1_556 S
C1745  N1757   1.434   .     S
C1745  C1750   1.412   .     A
C1745  C1939   1.405   1_455 S
C1746  C1749   1.412   .     A
C1746  N1763   1.434   .     S
C1746  C1844   1.406   .     S
C1747  C1749   1.407   .     A
C1747  N1769   1.419   .     S
C1747  C1841   1.405   .     S
C1748  C1750   1.407   .     A
C1748  N1775   1.419   .     S
C1748  C1938   1.406   1_455 S
C1751  C1781   1.497   .     S
C1751  N1756   1.380   .     A
C1751  C2330   1.434   1_545 S
C1752  N1755   1.380   .     A
C1752  C1792   1.497   .     S
C1752  C2041   1.434   .     S
C1753  N1756   1.385   .     A
C1753  C1803   1.482   .     S
C1753  C2328   1.434   1_545 S
C1754  N1755   1.385   .     A
C1754  C1814   1.482   .     S
C1754  C2039   1.434   .     S
N1757  H1758   1.030   .     S
N1757  C1759   1.453   .     S
C1759  H1761   1.111   .     S
C1759  H1762   1.102   .     S
C1759  H1760   1.102   .     S
N1763  H1764   1.030   .     S
N1763  C1765   1.453   .     S
C1765  H1768   1.111   .     S
C1765  H1766   1.103   .     S
C1765  H1767   1.102   .     S
N1769  H1770   1.024   .     S
N1769  C1771   1.450   .     S
C1771  H1772   1.111   .     S
C1771  H1774   1.110   .     S
C1771  H1773   1.111   .     S
N1775  C1777   1.450   .     S
N1775  H1776   1.024   .     S
C1777  H1779   1.110   .     S
C1777  H1780   1.111   .     S
C1777  H1778   1.112   .     S
C1781  C1782   1.405   .     A
C1781  C1786   1.403   .     A
C1782  C1783   1.394   .     A
C1782  H1787   1.067   .     S
C1783  C1784   1.389   .     A
C1783  H1788   1.082   .     S
C1784  C1785   1.396   .     A
C1785  C1786   1.401   .     A
C1786  H1791   1.080   .     S
H1789  C56     1.080   1_556 S
H1790  C57     1.078   1_556 S
C1792  C1797   1.405   .     A
C1792  C1793   1.403   .     A
C1793  H1798   1.080   .     S
C1793  C1794   1.401   .     A
C1794  C1795   1.396   .     A
C1794  H71     1.078   1_556 S
C1795  C1796   1.389   .     A
C1795  H72     1.080   1_556 S
C1796  C1797   1.394   .     A
C1796  H1801   1.082   .     S
C1797  H1802   1.067   .     S
C1803  C1808   1.402   .     A
C1803  C1804   1.397   .     A
C1804  C1805   1.395   .     A
C1804  H1809   1.077   .     S
C1805  C1806   1.392   .     A
C1805  H1810   1.081   .     S
C1806  C1807   1.397   .     A
C1806  H83     1.079   1_556 S
C1807  C1808   1.400   .     A
C1807  H84     1.081   1_556 S
C1808  H1813   1.077   .     S
C1814  C1819   1.397   .     A
C1814  C1815   1.402   .     A
C1815  H1820   1.077   .     S
C1815  C1816   1.400   .     A
C1816  C1817   1.397   .     A
C1817  C1818   1.392   .     A
C1818  C1819   1.395   .     A
C1818  H1823   1.081   .     S
C1819  H1824   1.077   .     S
H1821  C88     1.081   1_556 S
H1822  C89     1.079   1_556 S
O1825  C1829   1.325   .     A
O1825  Cu1837  1.983   .     S
O1826  C1830   1.325   .     A
O1826  Cu1838  1.983   .     S
O1827  C1830   1.303   .     A
O1827  Cu1837  1.947   .     S
O1828  C1829   1.303   .     A
O1828  Cu1838  1.947   .     S
C1829  C1846   1.480   .     S
C1830  C1845   1.480   .     S
O1831  C1835   1.314   .     A
O1831  Cu1837  1.964   .     S
O1832  C1836   1.314   .     A
O1832  Cu1838  1.964   .     S
O1833  Cu1837  1.952   .     S
O1833  C1836   1.302   .     A
O1834  Cu1838  1.952   .     S
O1834  C1835   1.302   .     A
C1835  C1839   1.431   .     S
C1836  C1840   1.431   .     S
Cu1837 N1851   2.049   .     S
Cu1837 Cu1838  2.727   .     S
Cu1838 N1852   2.049   .     S
C1840  C111    1.204   1_556 S
C1841  N1853   1.434   .     S
C1841  C1846   1.412   .     A
C1842  C1845   1.412   .     A
C1842  N1859   1.434   .     S
C1842  C1940   1.406   .     S
C1843  C1845   1.407   .     A
C1843  N1865   1.419   .     S
C1843  C1937   1.405   .     S
C1844  C1846   1.407   .     A
C1844  N1871   1.419   .     S
C1847  C1877   1.497   .     S
C1847  N1852   1.380   .     A
C1847  C2426   1.434   1_545 S
C1848  N1851   1.380   .     A
C1848  C1888   1.497   .     S
C1848  C2137   1.434   .     S
C1849  N1852   1.385   .     A
C1849  C1899   1.482   .     S
C1849  C2424   1.434   1_545 S
C1850  N1851   1.385   .     A
C1850  C1910   1.482   .     S
C1850  C2135   1.434   .     S
N1853  H1854   1.030   .     S
N1853  C1855   1.453   .     S
C1855  H1857   1.111   .     S
C1855  H1858   1.102   .     S
C1855  H1856   1.102   .     S
N1859  H1860   1.030   .     S
N1859  C1861   1.453   .     S
C1861  H1864   1.111   .     S
C1861  H1862   1.103   .     S
C1861  H1863   1.102   .     S
N1865  H1866   1.024   .     S
N1865  C1867   1.450   .     S
C1867  H1868   1.111   .     S
C1867  H1870   1.110   .     S
C1867  H1869   1.111   .     S
N1871  C1873   1.450   .     S
N1871  H1872   1.024   .     S
C1873  H1875   1.110   .     S
C1873  H1876   1.111   .     S
C1873  H1874   1.112   .     S
C1877  C1878   1.405   .     A
C1877  C1882   1.403   .     A
C1878  C1879   1.394   .     A
C1878  H1883   1.067   .     S
C1879  C1880   1.389   .     A
C1879  H1884   1.082   .     S
C1880  C1881   1.396   .     A
C1881  C1882   1.401   .     A
C1882  H1887   1.080   .     S
H1885  C152    1.080   1_556 S
H1886  C153    1.078   1_556 S
C1888  C1893   1.405   .     A
C1888  C1889   1.403   .     A
C1889  H1894   1.080   .     S
C1889  C1890   1.401   .     A
C1890  C1891   1.396   .     A
C1890  H167    1.078   1_556 S
C1891  C1892   1.389   .     A
C1891  H168    1.080   1_556 S
C1892  C1893   1.394   .     A
C1892  H1897   1.082   .     S
C1893  H1898   1.067   .     S
C1899  C1904   1.402   .     A
C1899  C1900   1.397   .     A
C1900  C1901   1.395   .     A
C1900  H1905   1.077   .     S
C1901  C1902   1.392   .     A
C1901  H1906   1.081   .     S
C1902  C1903   1.397   .     A
C1902  H179    1.079   1_556 S
C1903  C1904   1.400   .     A
C1903  H180    1.081   1_556 S
C1904  H1909   1.077   .     S
C1910  C1915   1.397   .     A
C1910  C1911   1.402   .     A
C1911  H1916   1.077   .     S
C1911  C1912   1.400   .     A
C1912  C1913   1.397   .     A
C1913  C1914   1.392   .     A
C1914  C1915   1.395   .     A
C1914  H1919   1.081   .     S
C1915  H1920   1.077   .     S
H1917  C184    1.081   1_556 S
H1918  C185    1.079   1_556 S
O1921  C1925   1.325   .     A
O1921  Cu1933  1.983   .     S
O1922  C1926   1.325   .     A
O1922  Cu1934  1.983   .     S
O1923  C1926   1.303   .     A
O1923  Cu1933  1.947   .     S
O1924  C1925   1.303   .     A
O1924  Cu1934  1.947   .     S
C1925  C1942   1.480   .     S
C1926  C1941   1.480   .     S
O1927  C1931   1.314   .     A
O1927  Cu1933  1.964   .     S
O1928  C1932   1.314   .     A
O1928  Cu1934  1.964   .     S
O1929  Cu1933  1.952   .     S
O1929  C1932   1.302   .     A
O1930  Cu1934  1.952   .     S
O1930  C1931   1.302   .     A
C1931  C1935   1.431   .     S
C1932  C1936   1.431   .     S
Cu1933 N1947   2.049   .     S
Cu1933 Cu1934  2.727   .     S
Cu1934 N1948   2.049   .     S
C1936  C207    1.204   1_556 S
C1937  N1949   1.434   .     S
C1937  C1942   1.412   .     A
C1938  C1941   1.412   .     A
C1938  N1955   1.434   .     S
C1938  C1748   1.406   1_655 S
C1939  C1941   1.407   .     A
C1939  N1961   1.419   .     S
C1939  C1745   1.405   1_655 S
C1940  C1942   1.407   .     A
C1940  N1967   1.419   .     S
C1943  C1973   1.497   .     S
C1943  N1948   1.380   .     A
C1943  C2522   1.434   1_545 S
C1944  N1947   1.380   .     A
C1944  C1984   1.497   .     S
C1944  C2233   1.434   .     S
C1945  N1948   1.385   .     A
C1945  C1995   1.482   .     S
C1945  C2520   1.434   1_545 S
C1946  N1947   1.385   .     A
C1946  C2006   1.482   .     S
C1946  C2231   1.434   .     S
N1949  H1950   1.030   .     S
N1949  C1951   1.453   .     S
C1951  H1953   1.111   .     S
C1951  H1954   1.102   .     S
C1951  H1952   1.102   .     S
N1955  H1956   1.030   .     S
N1955  C1957   1.453   .     S
C1957  H1960   1.111   .     S
C1957  H1958   1.103   .     S
C1957  H1959   1.102   .     S
N1961  H1962   1.024   .     S
N1961  C1963   1.450   .     S
C1963  H1964   1.111   .     S
C1963  H1966   1.110   .     S
C1963  H1965   1.111   .     S
N1967  C1969   1.450   .     S
N1967  H1968   1.024   .     S
C1969  H1971   1.110   .     S
C1969  H1972   1.111   .     S
C1969  H1970   1.112   .     S
C1973  C1974   1.405   .     A
C1973  C1978   1.403   .     A
C1974  C1975   1.394   .     A
C1974  H1979   1.067   .     S
C1975  C1976   1.389   .     A
C1975  H1980   1.082   .     S
C1976  C1977   1.396   .     A
C1977  C1978   1.401   .     A
C1978  H1983   1.080   .     S
H1981  C248    1.080   1_556 S
H1982  C249    1.078   1_556 S
C1984  C1989   1.405   .     A
C1984  C1985   1.403   .     A
C1985  H1990   1.080   .     S
C1985  C1986   1.401   .     A
C1986  C1987   1.396   .     A
C1986  H263    1.078   1_556 S
C1987  C1988   1.389   .     A
C1987  H264    1.080   1_556 S
C1988  C1989   1.394   .     A
C1988  H1993   1.082   .     S
C1989  H1994   1.067   .     S
C1995  C2000   1.402   .     A
C1995  C1996   1.397   .     A
C1996  C1997   1.395   .     A
C1996  H2001   1.077   .     S
C1997  C1998   1.392   .     A
C1997  H2002   1.081   .     S
C1998  C1999   1.397   .     A
C1998  H275    1.079   1_556 S
C1999  C2000   1.400   .     A
C1999  H276    1.081   1_556 S
C2000  H2005   1.077   .     S
C2006  C2011   1.397   .     A
C2006  C2007   1.402   .     A
C2007  H2012   1.077   .     S
C2007  C2008   1.400   .     A
C2008  C2009   1.397   .     A
C2009  C2010   1.392   .     A
C2010  C2011   1.395   .     A
C2010  H2015   1.081   .     S
C2011  H2016   1.077   .     S
H2013  C280    1.081   1_556 S
H2014  C281    1.079   1_556 S
O2017  C2021   1.325   .     A
O2017  Cu2029  1.983   .     S
O2018  C2022   1.325   .     A
O2018  Cu2030  1.983   .     S
O2019  C2022   1.303   .     A
O2019  Cu2029  1.947   .     S
O2020  C2021   1.303   .     A
O2020  Cu2030  1.947   .     S
C2021  C2038   1.480   .     S
C2022  C2037   1.480   .     S
O2023  C2027   1.314   .     A
O2023  Cu2029  1.964   .     S
O2024  C2028   1.314   .     A
O2024  Cu2030  1.964   .     S
O2025  Cu2029  1.952   .     S
O2025  C2028   1.302   .     A
O2026  Cu2030  1.952   .     S
O2026  C2027   1.302   .     A
C2027  C2031   1.431   .     S
C2028  C2032   1.431   .     S
Cu2029 N2043   2.049   .     S
Cu2029 Cu2030  2.727   .     S
Cu2030 N2044   2.049   .     S
C2032  C303    1.204   1_556 S
C2033  N2045   1.434   .     S
C2033  C2038   1.412   .     A
C2033  C2227   1.405   1_455 S
C2034  C2037   1.412   .     A
C2034  N2051   1.434   .     S
C2034  C2132   1.406   .     S
C2035  C2037   1.407   .     A
C2035  N2057   1.419   .     S
C2035  C2129   1.405   .     S
C2036  C2038   1.407   .     A
C2036  N2063   1.419   .     S
C2036  C2226   1.406   1_455 S
C2039  C2069   1.497   .     S
C2039  N2044   1.380   .     A
C2040  N2043   1.380   .     A
C2040  C2080   1.497   .     S
C2040  C2329   1.434   .     S
C2041  N2044   1.385   .     A
C2041  C2091   1.482   .     S
C2042  N2043   1.385   .     A
C2042  C2102   1.482   .     S
C2042  C2327   1.434   .     S
N2045  H2046   1.030   .     S
N2045  C2047   1.453   .     S
C2047  H2049   1.111   .     S
C2047  H2050   1.102   .     S
C2047  H2048   1.102   .     S
N2051  H2052   1.030   .     S
N2051  C2053   1.453   .     S
C2053  H2056   1.111   .     S
C2053  H2054   1.103   .     S
C2053  H2055   1.102   .     S
N2057  H2058   1.024   .     S
N2057  C2059   1.450   .     S
C2059  H2060   1.111   .     S
C2059  H2062   1.110   .     S
C2059  H2061   1.111   .     S
N2063  C2065   1.450   .     S
N2063  H2064   1.024   .     S
C2065  H2067   1.110   .     S
C2065  H2068   1.111   .     S
C2065  H2066   1.112   .     S
C2069  C2070   1.405   .     A
C2069  C2074   1.403   .     A
C2070  C2071   1.394   .     A
C2070  H2075   1.067   .     S
C2071  C2072   1.389   .     A
C2071  H2076   1.082   .     S
C2072  C2073   1.396   .     A
C2073  C2074   1.401   .     A
C2074  H2079   1.080   .     S
H2077  C344    1.080   1_556 S
H2078  C345    1.078   1_556 S
C2080  C2085   1.405   .     A
C2080  C2081   1.403   .     A
C2081  H2086   1.080   .     S
C2081  C2082   1.401   .     A
C2082  C2083   1.396   .     A
C2082  H359    1.078   1_556 S
C2083  C2084   1.389   .     A
C2083  H360    1.080   1_556 S
C2084  C2085   1.394   .     A
C2084  H2089   1.082   .     S
C2085  H2090   1.067   .     S
C2091  C2096   1.402   .     A
C2091  C2092   1.397   .     A
C2092  C2093   1.395   .     A
C2092  H2097   1.077   .     S
C2093  C2094   1.392   .     A
C2093  H2098   1.081   .     S
C2094  C2095   1.397   .     A
C2094  H371    1.079   1_556 S
C2095  C2096   1.400   .     A
C2095  H372    1.081   1_556 S
C2096  H2101   1.077   .     S
C2102  C2107   1.397   .     A
C2102  C2103   1.402   .     A
C2103  H2108   1.077   .     S
C2103  C2104   1.400   .     A
C2104  C2105   1.397   .     A
C2105  C2106   1.392   .     A
C2106  C2107   1.395   .     A
C2106  H2111   1.081   .     S
C2107  H2112   1.077   .     S
H2109  C376    1.081   1_556 S
H2110  C377    1.079   1_556 S
O2113  C2117   1.325   .     A
O2113  Cu2125  1.983   .     S
O2114  C2118   1.325   .     A
O2114  Cu2126  1.983   .     S
O2115  C2118   1.303   .     A
O2115  Cu2125  1.947   .     S
O2116  C2117   1.303   .     A
O2116  Cu2126  1.947   .     S
C2117  C2134   1.480   .     S
C2118  C2133   1.480   .     S
O2119  C2123   1.314   .     A
O2119  Cu2125  1.964   .     S
O2120  C2124   1.314   .     A
O2120  Cu2126  1.964   .     S
O2121  Cu2125  1.952   .     S
O2121  C2124   1.302   .     A
O2122  Cu2126  1.952   .     S
O2122  C2123   1.302   .     A
C2123  C2127   1.431   .     S
C2124  C2128   1.431   .     S
Cu2125 N2139   2.049   .     S
Cu2125 Cu2126  2.727   .     S
Cu2126 N2140   2.049   .     S
C2128  C399    1.204   1_556 S
C2129  N2141   1.434   .     S
C2129  C2134   1.412   .     A
C2130  C2133   1.412   .     A
C2130  N2147   1.434   .     S
C2130  C2228   1.406   .     S
C2131  C2133   1.407   .     A
C2131  N2153   1.419   .     S
C2131  C2225   1.405   .     S
C2132  C2134   1.407   .     A
C2132  N2159   1.419   .     S
C2135  C2165   1.497   .     S
C2135  N2140   1.380   .     A
C2136  N2139   1.380   .     A
C2136  C2176   1.497   .     S
C2136  C2425   1.434   .     S
C2137  N2140   1.385   .     A
C2137  C2187   1.482   .     S
C2138  N2139   1.385   .     A
C2138  C2198   1.482   .     S
C2138  C2423   1.434   .     S
N2141  H2142   1.030   .     S
N2141  C2143   1.453   .     S
C2143  H2145   1.111   .     S
C2143  H2146   1.102   .     S
C2143  H2144   1.102   .     S
N2147  H2148   1.030   .     S
N2147  C2149   1.453   .     S
C2149  H2152   1.111   .     S
C2149  H2150   1.103   .     S
C2149  H2151   1.102   .     S
N2153  H2154   1.024   .     S
N2153  C2155   1.450   .     S
C2155  H2156   1.111   .     S
C2155  H2158   1.110   .     S
C2155  H2157   1.111   .     S
N2159  C2161   1.450   .     S
N2159  H2160   1.024   .     S
C2161  H2163   1.110   .     S
C2161  H2164   1.111   .     S
C2161  H2162   1.112   .     S
C2165  C2166   1.405   .     A
C2165  C2170   1.403   .     A
C2166  C2167   1.394   .     A
C2166  H2171   1.067   .     S
C2167  C2168   1.389   .     A
C2167  H2172   1.082   .     S
C2168  C2169   1.396   .     A
C2169  C2170   1.401   .     A
C2170  H2175   1.080   .     S
H2173  C440    1.080   1_556 S
H2174  C441    1.078   1_556 S
C2176  C2181   1.405   .     A
C2176  C2177   1.403   .     A
C2177  H2182   1.080   .     S
C2177  C2178   1.401   .     A
C2178  C2179   1.396   .     A
C2178  H455    1.078   1_556 S
C2179  C2180   1.389   .     A
C2179  H456    1.080   1_556 S
C2180  C2181   1.394   .     A
C2180  H2185   1.082   .     S
C2181  H2186   1.067   .     S
C2187  C2192   1.402   .     A
C2187  C2188   1.397   .     A
C2188  C2189   1.395   .     A
C2188  H2193   1.077   .     S
C2189  C2190   1.392   .     A
C2189  H2194   1.081   .     S
C2190  C2191   1.397   .     A
C2190  H467    1.079   1_556 S
C2191  C2192   1.400   .     A
C2191  H468    1.081   1_556 S
C2192  H2197   1.077   .     S
C2198  C2203   1.397   .     A
C2198  C2199   1.402   .     A
C2199  H2204   1.077   .     S
C2199  C2200   1.400   .     A
C2200  C2201   1.397   .     A
C2201  C2202   1.392   .     A
C2202  C2203   1.395   .     A
C2202  H2207   1.081   .     S
C2203  H2208   1.077   .     S
H2205  C472    1.081   1_556 S
H2206  C473    1.079   1_556 S
O2209  C2213   1.325   .     A
O2209  Cu2221  1.983   .     S
O2210  C2214   1.325   .     A
O2210  Cu2222  1.983   .     S
O2211  C2214   1.303   .     A
O2211  Cu2221  1.947   .     S
O2212  C2213   1.303   .     A
O2212  Cu2222  1.947   .     S
C2213  C2230   1.480   .     S
C2214  C2229   1.480   .     S
O2215  C2219   1.314   .     A
O2215  Cu2221  1.964   .     S
O2216  C2220   1.314   .     A
O2216  Cu2222  1.964   .     S
O2217  Cu2221  1.952   .     S
O2217  C2220   1.302   .     A
O2218  Cu2222  1.952   .     S
O2218  C2219   1.302   .     A
C2219  C2223   1.431   .     S
C2220  C2224   1.431   .     S
Cu2221 N2235   2.049   .     S
Cu2221 Cu2222  2.727   .     S
Cu2222 N2236   2.049   .     S
C2224  C495    1.204   1_556 S
C2225  N2237   1.434   .     S
C2225  C2230   1.412   .     A
C2226  C2229   1.412   .     A
C2226  N2243   1.434   .     S
C2226  C2036   1.406   1_655 S
C2227  C2229   1.407   .     A
C2227  N2249   1.419   .     S
C2227  C2033   1.405   1_655 S
C2228  C2230   1.407   .     A
C2228  N2255   1.419   .     S
C2231  C2261   1.497   .     S
C2231  N2236   1.380   .     A
C2232  N2235   1.380   .     A
C2232  C2272   1.497   .     S
C2232  C2521   1.434   .     S
C2233  N2236   1.385   .     A
C2233  C2283   1.482   .     S
C2234  N2235   1.385   .     A
C2234  C2294   1.482   .     S
C2234  C2519   1.434   .     S
N2237  H2238   1.030   .     S
N2237  C2239   1.453   .     S
C2239  H2241   1.111   .     S
C2239  H2242   1.102   .     S
C2239  H2240   1.102   .     S
N2243  H2244   1.030   .     S
N2243  C2245   1.453   .     S
C2245  H2248   1.111   .     S
C2245  H2246   1.103   .     S
C2245  H2247   1.102   .     S
N2249  H2250   1.024   .     S
N2249  C2251   1.450   .     S
C2251  H2252   1.111   .     S
C2251  H2254   1.110   .     S
C2251  H2253   1.111   .     S
N2255  C2257   1.450   .     S
N2255  H2256   1.024   .     S
C2257  H2259   1.110   .     S
C2257  H2260   1.111   .     S
C2257  H2258   1.112   .     S
C2261  C2262   1.405   .     A
C2261  C2266   1.403   .     A
C2262  C2263   1.394   .     A
C2262  H2267   1.067   .     S
C2263  C2264   1.389   .     A
C2263  H2268   1.082   .     S
C2264  C2265   1.396   .     A
C2265  C2266   1.401   .     A
C2266  H2271   1.080   .     S
H2269  C536    1.080   1_556 S
H2270  C537    1.078   1_556 S
C2272  C2277   1.405   .     A
C2272  C2273   1.403   .     A
C2273  H2278   1.080   .     S
C2273  C2274   1.401   .     A
C2274  C2275   1.396   .     A
C2274  H551    1.078   1_556 S
C2275  C2276   1.389   .     A
C2275  H552    1.080   1_556 S
C2276  C2277   1.394   .     A
C2276  H2281   1.082   .     S
C2277  H2282   1.067   .     S
C2283  C2288   1.402   .     A
C2283  C2284   1.397   .     A
C2284  C2285   1.395   .     A
C2284  H2289   1.077   .     S
C2285  C2286   1.392   .     A
C2285  H2290   1.081   .     S
C2286  C2287   1.397   .     A
C2286  H563    1.079   1_556 S
C2287  C2288   1.400   .     A
C2287  H564    1.081   1_556 S
C2288  H2293   1.077   .     S
C2294  C2299   1.397   .     A
C2294  C2295   1.402   .     A
C2295  H2300   1.077   .     S
C2295  C2296   1.400   .     A
C2296  C2297   1.397   .     A
C2297  C2298   1.392   .     A
C2298  C2299   1.395   .     A
C2298  H2303   1.081   .     S
C2299  H2304   1.077   .     S
H2301  C568    1.081   1_556 S
H2302  C569    1.079   1_556 S
O2305  C2309   1.325   .     A
O2305  Cu2317  1.983   .     S
O2306  C2310   1.325   .     A
O2306  Cu2318  1.983   .     S
O2307  C2310   1.303   .     A
O2307  Cu2317  1.947   .     S
O2308  C2309   1.303   .     A
O2308  Cu2318  1.947   .     S
C2309  C2326   1.480   .     S
C2310  C2325   1.480   .     S
O2311  C2315   1.314   .     A
O2311  Cu2317  1.964   .     S
O2312  C2316   1.314   .     A
O2312  Cu2318  1.964   .     S
O2313  Cu2317  1.952   .     S
O2313  C2316   1.302   .     A
O2314  Cu2318  1.952   .     S
O2314  C2315   1.302   .     A
C2315  C2319   1.431   .     S
C2316  C2320   1.431   .     S
Cu2317 N2331   2.049   .     S
Cu2317 Cu2318  2.727   .     S
Cu2318 N2332   2.049   .     S
C2320  C591    1.204   1_556 S
C2321  N2333   1.434   .     S
C2321  C2326   1.412   .     A
C2321  C2515   1.405   1_455 S
C2322  C2325   1.412   .     A
C2322  N2339   1.434   .     S
C2322  C2420   1.406   .     S
C2323  C2325   1.407   .     A
C2323  N2345   1.419   .     S
C2323  C2417   1.405   .     S
C2324  C2326   1.407   .     A
C2324  N2351   1.419   .     S
C2324  C2514   1.406   1_455 S
C2327  C2357   1.497   .     S
C2327  N2332   1.380   .     A
C2328  N2331   1.380   .     A
C2328  C2368   1.497   .     S
C2328  C1753   1.434   1_565 S
C2329  N2332   1.385   .     A
C2329  C2379   1.482   .     S
C2330  N2331   1.385   .     A
C2330  C2390   1.482   .     S
C2330  C1751   1.434   1_565 S
N2333  H2334   1.030   .     S
N2333  C2335   1.453   .     S
C2335  H2337   1.111   .     S
C2335  H2338   1.102   .     S
C2335  H2336   1.102   .     S
N2339  H2340   1.030   .     S
N2339  C2341   1.453   .     S
C2341  H2344   1.111   .     S
C2341  H2342   1.103   .     S
C2341  H2343   1.102   .     S
N2345  H2346   1.024   .     S
N2345  C2347   1.450   .     S
C2347  H2348   1.111   .     S
C2347  H2350   1.110   .     S
C2347  H2349   1.111   .     S
N2351  C2353   1.450   .     S
N2351  H2352   1.024   .     S
C2353  H2355   1.110   .     S
C2353  H2356   1.111   .     S
C2353  H2354   1.112   .     S
C2357  C2358   1.405   .     A
C2357  C2362   1.403   .     A
C2358  C2359   1.394   .     A
C2358  H2363   1.067   .     S
C2359  C2360   1.389   .     A
C2359  H2364   1.082   .     S
C2360  C2361   1.396   .     A
C2361  C2362   1.401   .     A
C2362  H2367   1.080   .     S
H2365  C632    1.080   1_556 S
H2366  C633    1.078   1_556 S
C2368  C2373   1.405   .     A
C2368  C2369   1.403   .     A
C2369  H2374   1.080   .     S
C2369  C2370   1.401   .     A
C2370  C2371   1.396   .     A
C2370  H647    1.078   1_556 S
C2371  C2372   1.389   .     A
C2371  H648    1.080   1_556 S
C2372  C2373   1.394   .     A
C2372  H2377   1.082   .     S
C2373  H2378   1.067   .     S
C2379  C2384   1.402   .     A
C2379  C2380   1.397   .     A
C2380  C2381   1.395   .     A
C2380  H2385   1.077   .     S
C2381  C2382   1.392   .     A
C2381  H2386   1.081   .     S
C2382  C2383   1.397   .     A
C2382  H659    1.079   1_556 S
C2383  C2384   1.400   .     A
C2383  H660    1.081   1_556 S
C2384  H2389   1.077   .     S
C2390  C2395   1.397   .     A
C2390  C2391   1.402   .     A
C2391  H2396   1.077   .     S
C2391  C2392   1.400   .     A
C2392  C2393   1.397   .     A
C2393  C2394   1.392   .     A
C2394  C2395   1.395   .     A
C2394  H2399   1.081   .     S
C2395  H2400   1.077   .     S
H2397  C664    1.081   1_556 S
H2398  C665    1.079   1_556 S
O2401  C2405   1.325   .     A
O2401  Cu2413  1.983   .     S
O2402  C2406   1.325   .     A
O2402  Cu2414  1.983   .     S
O2403  C2406   1.303   .     A
O2403  Cu2413  1.947   .     S
O2404  C2405   1.303   .     A
O2404  Cu2414  1.947   .     S
C2405  C2422   1.480   .     S
C2406  C2421   1.480   .     S
O2407  C2411   1.314   .     A
O2407  Cu2413  1.964   .     S
O2408  C2412   1.314   .     A
O2408  Cu2414  1.964   .     S
O2409  Cu2413  1.952   .     S
O2409  C2412   1.302   .     A
O2410  Cu2414  1.952   .     S
O2410  C2411   1.302   .     A
C2411  C2415   1.431   .     S
C2412  C2416   1.431   .     S
Cu2413 N2427   2.049   .     S
Cu2413 Cu2414  2.727   .     S
Cu2414 N2428   2.049   .     S
C2416  C687    1.204   1_556 S
C2417  N2429   1.434   .     S
C2417  C2422   1.412   .     A
C2418  C2421   1.412   .     A
C2418  N2435   1.434   .     S
C2418  C2516   1.406   .     S
C2419  C2421   1.407   .     A
C2419  N2441   1.419   .     S
C2419  C2513   1.405   .     S
C2420  C2422   1.407   .     A
C2420  N2447   1.419   .     S
C2423  C2453   1.497   .     S
C2423  N2428   1.380   .     A
C2424  N2427   1.380   .     A
C2424  C2464   1.497   .     S
C2424  C1849   1.434   1_565 S
C2425  N2428   1.385   .     A
C2425  C2475   1.482   .     S
C2426  N2427   1.385   .     A
C2426  C2486   1.482   .     S
C2426  C1847   1.434   1_565 S
N2429  H2430   1.030   .     S
N2429  C2431   1.453   .     S
C2431  H2433   1.111   .     S
C2431  H2434   1.102   .     S
C2431  H2432   1.102   .     S
N2435  H2436   1.030   .     S
N2435  C2437   1.453   .     S
C2437  H2440   1.111   .     S
C2437  H2438   1.103   .     S
C2437  H2439   1.102   .     S
N2441  H2442   1.024   .     S
N2441  C2443   1.450   .     S
C2443  H2444   1.111   .     S
C2443  H2446   1.110   .     S
C2443  H2445   1.111   .     S
N2447  C2449   1.450   .     S
N2447  H2448   1.024   .     S
C2449  H2451   1.110   .     S
C2449  H2452   1.111   .     S
C2449  H2450   1.112   .     S
C2453  C2454   1.405   .     A
C2453  C2458   1.403   .     A
C2454  C2455   1.394   .     A
C2454  H2459   1.067   .     S
C2455  C2456   1.389   .     A
C2455  H2460   1.082   .     S
C2456  C2457   1.396   .     A
C2457  C2458   1.401   .     A
C2458  H2463   1.080   .     S
H2461  C728    1.080   1_556 S
H2462  C729    1.078   1_556 S
C2464  C2469   1.405   .     A
C2464  C2465   1.403   .     A
C2465  H2470   1.080   .     S
C2465  C2466   1.401   .     A
C2466  C2467   1.396   .     A
C2466  H743    1.078   1_556 S
C2467  C2468   1.389   .     A
C2467  H744    1.080   1_556 S
C2468  C2469   1.394   .     A
C2468  H2473   1.082   .     S
C2469  H2474   1.067   .     S
C2475  C2480   1.402   .     A
C2475  C2476   1.397   .     A
C2476  C2477   1.395   .     A
C2476  H2481   1.077   .     S
C2477  C2478   1.392   .     A
C2477  H2482   1.081   .     S
C2478  C2479   1.397   .     A
C2478  H755    1.079   1_556 S
C2479  C2480   1.400   .     A
C2479  H756    1.081   1_556 S
C2480  H2485   1.077   .     S
C2486  C2491   1.397   .     A
C2486  C2487   1.402   .     A
C2487  H2492   1.077   .     S
C2487  C2488   1.400   .     A
C2488  C2489   1.397   .     A
C2489  C2490   1.392   .     A
C2490  C2491   1.395   .     A
C2490  H2495   1.081   .     S
C2491  H2496   1.077   .     S
H2493  C760    1.081   1_556 S
H2494  C761    1.079   1_556 S
O2497  C2501   1.325   .     A
O2497  Cu2509  1.983   .     S
O2498  C2502   1.325   .     A
O2498  Cu2510  1.983   .     S
O2499  C2502   1.303   .     A
O2499  Cu2509  1.947   .     S
O2500  C2501   1.303   .     A
O2500  Cu2510  1.947   .     S
C2501  C2518   1.480   .     S
C2502  C2517   1.480   .     S
O2503  C2507   1.314   .     A
O2503  Cu2509  1.964   .     S
O2504  C2508   1.314   .     A
O2504  Cu2510  1.964   .     S
O2505  Cu2509  1.952   .     S
O2505  C2508   1.302   .     A
O2506  Cu2510  1.952   .     S
O2506  C2507   1.302   .     A
C2507  C2511   1.431   .     S
C2508  C2512   1.431   .     S
Cu2509 N2523   2.049   .     S
Cu2509 Cu2510  2.727   .     S
Cu2510 N2524   2.049   .     S
C2512  C783    1.204   1_556 S
C2513  N2525   1.434   .     S
C2513  C2518   1.412   .     A
C2514  C2517   1.412   .     A
C2514  N2531   1.434   .     S
C2514  C2324   1.406   1_655 S
C2515  C2517   1.407   .     A
C2515  N2537   1.419   .     S
C2515  C2321   1.405   1_655 S
C2516  C2518   1.407   .     A
C2516  N2543   1.419   .     S
C2519  C2549   1.497   .     S
C2519  N2524   1.380   .     A
C2520  N2523   1.380   .     A
C2520  C2560   1.497   .     S
C2520  C1945   1.434   1_565 S
C2521  N2524   1.385   .     A
C2521  C2571   1.482   .     S
C2522  N2523   1.385   .     A
C2522  C2582   1.482   .     S
C2522  C1943   1.434   1_565 S
N2525  H2526   1.030   .     S
N2525  C2527   1.453   .     S
C2527  H2529   1.111   .     S
C2527  H2530   1.102   .     S
C2527  H2528   1.102   .     S
N2531  H2532   1.030   .     S
N2531  C2533   1.453   .     S
C2533  H2536   1.111   .     S
C2533  H2534   1.103   .     S
C2533  H2535   1.102   .     S
N2537  H2538   1.024   .     S
N2537  C2539   1.450   .     S
C2539  H2540   1.111   .     S
C2539  H2542   1.110   .     S
C2539  H2541   1.111   .     S
N2543  C2545   1.450   .     S
N2543  H2544   1.024   .     S
C2545  H2547   1.110   .     S
C2545  H2548   1.111   .     S
C2545  H2546   1.112   .     S
C2549  C2550   1.405   .     A
C2549  C2554   1.403   .     A
C2550  C2551   1.394   .     A
C2550  H2555   1.067   .     S
C2551  C2552   1.389   .     A
C2551  H2556   1.082   .     S
C2552  C2553   1.396   .     A
C2553  C2554   1.401   .     A
C2554  H2559   1.080   .     S
H2557  C824    1.080   1_556 S
H2558  C825    1.078   1_556 S
C2560  C2565   1.405   .     A
C2560  C2561   1.403   .     A
C2561  H2566   1.080   .     S
C2561  C2562   1.401   .     A
C2562  C2563   1.396   .     A
C2562  H839    1.078   1_556 S
C2563  C2564   1.389   .     A
C2563  H840    1.080   1_556 S
C2564  C2565   1.394   .     A
C2564  H2569   1.082   .     S
C2565  H2570   1.067   .     S
C2571  C2576   1.402   .     A
C2571  C2572   1.397   .     A
C2572  C2573   1.395   .     A
C2572  H2577   1.077   .     S
C2573  C2574   1.392   .     A
C2573  H2578   1.081   .     S
C2574  C2575   1.397   .     A
C2574  H851    1.079   1_556 S
C2575  C2576   1.400   .     A
C2575  H852    1.081   1_556 S
C2576  H2581   1.077   .     S
C2582  C2587   1.397   .     A
C2582  C2583   1.402   .     A
C2583  H2588   1.077   .     S
C2583  C2584   1.400   .     A
C2584  C2585   1.397   .     A
C2585  C2586   1.392   .     A
C2586  C2587   1.395   .     A
C2586  H2591   1.081   .     S
C2587  H2592   1.077   .     S
H2589  C856    1.081   1_556 S
H2590  C857    1.079   1_556 S
