data_str_m2_o1_o17_pcu_sym.127
_audit_creation_date              2020-01-03
_audit_creation_method            'Materials Studio'
_symmetry_space_group_name_H-M    'P1'
_symmetry_Int_Tables_number       1
_symmetry_cell_setting            triclinic
loop_
_symmetry_equiv_pos_as_xyz
  x,y,z
_cell_length_a                    32.7505
_cell_length_b                    29.0440
_cell_length_c                    29.9439
_cell_angle_alpha                 91.6187
_cell_angle_beta                  90.0582
_cell_angle_gamma                 89.5823
loop_
_atom_site_label
_atom_site_type_symbol
_atom_site_fract_x
_atom_site_fract_y
_atom_site_fract_z
_atom_site_U_iso_or_equiv
_atom_site_adp_type
_atom_site_occupancy
C1     C     0.08750   0.16690   0.24869   0.00000  Uiso   1.00
C2     C     0.24575   0.16638   0.24718   0.00000  Uiso   1.00
C3     C     0.11840   0.10271   0.02125   0.00000  Uiso   1.00
C4     C     0.21808   0.22693   0.47864   0.00000  Uiso   1.00
C5     C     0.02197   0.12598   0.23454   0.00000  Uiso   1.00
C6     C     0.31149   0.20778   0.23966   0.00000  Uiso   1.00
C7     C     0.31287   0.12477   0.23805   0.00000  Uiso   1.00
C8     C     0.01989   0.20894   0.24823   0.00000  Uiso   1.00
C9     C     0.29045   0.16605   0.24196   0.00000  Uiso   1.00
C10    C     0.04275   0.16737   0.24477   0.00000  Uiso   1.00
C11    C     0.15767   0.02307   0.21216   0.00000  Uiso   1.00
C12    C     0.17736   0.31031   0.28775   0.00000  Uiso   1.00
C13    C     0.18115   0.02673   0.28626   0.00000  Uiso   1.00
C14    C     0.15259   0.30735   0.21378   0.00000  Uiso   1.00
C15    C     0.16680   0.16612   0.16459   0.00000  Uiso   1.00
C16    C     0.16641   0.16711   0.33541   0.00000  Uiso   1.00
C17    C     0.19229   0.19703   0.40764   0.00000  Uiso   1.00
C18    C     0.14283   0.13401   0.09228   0.00000  Uiso   1.00
C19    C     0.16624   0.16750   0.38374   0.00000  Uiso   1.00
C20    C     0.16751   0.16510   0.11625   0.00000  Uiso   1.00
C21    C     0.14189   0.13591   0.40580   0.00000  Uiso   1.00
C22    C     0.19269   0.19579   0.09413   0.00000  Uiso   1.00
C23    C     0.14254   0.13454   0.45222   0.00000  Uiso   1.00
C24    C     0.19314   0.19596   0.04767   0.00000  Uiso   1.00
C25    C     0.16790   0.16529   0.47657   0.00000  Uiso   1.00
C26    C     0.16807   0.16488   0.02333   0.00000  Uiso   1.00
C27    C     0.19299   0.19656   0.45416   0.00000  Uiso   1.00
C28    C     0.14299   0.13360   0.04574   0.00000  Uiso   1.00
C29    C     0.11817   0.10319   0.47469   0.00000  Uiso   1.00
C30    C     0.21805   0.22674   0.02519   0.00000  Uiso   1.00
Cu31   Cu    0.16667   0.21355   0.25000   0.00000  Uiso   1.00
Cu32   Cu    0.16667   0.11978   0.25000   0.00000  Uiso   1.00
H33    H     0.21202   0.22014   0.38994   0.00000  Uiso   1.00
H34    H     0.12353   0.11040   0.10989   0.00000  Uiso   1.00
H35    H     0.12240   0.11257   0.38672   0.00000  Uiso   1.00
H36    H     0.21178   0.21955   0.11319   0.00000  Uiso   1.00
H37    H     0.09880   0.07924   0.45626   0.00000  Uiso   1.00
H38    H     0.23741   0.25071   0.04362   0.00000  Uiso   1.00
H39    H     0.09922   0.07841   0.03812   0.00000  Uiso   1.00
H40    H     0.23744   0.25104   0.46178   0.00000  Uiso   1.00
N41    N     0.16667   0.28402   0.25000   0.00000  Uiso   1.00
N42    N     0.16667   0.04931   0.25000   0.00000  Uiso   1.00
O43    O     0.10655   0.20625   0.24999   0.00000  Uiso   1.00
O44    O     0.22679   0.12709   0.25000   0.00000  Uiso   1.00
O45    O     0.22679   0.20625   0.25000   0.00000  Uiso   1.00
O46    O     0.10655   0.12709   0.24999   0.00000  Uiso   1.00
O47    O     0.16666   0.20627   0.18513   0.00000  Uiso   1.00
O48    O     0.16668   0.12707   0.31487   0.00000  Uiso   1.00
O49    O     0.16668   0.20627   0.31487   0.00000  Uiso   1.00
O50    O     0.16666   0.12707   0.18513   0.00000  Uiso   1.00
O51    O     0.04241   0.08551   0.22292   0.00000  Uiso   1.00
C52    C     0.05445   0.08657   0.17756   0.00000  Uiso   1.00
H53    H     0.08024   0.06209   0.17319   0.00000  Uiso   1.00
H54    H     0.06600   0.12080   0.16755   0.00000  Uiso   1.00
C55    C     0.01998   0.07119   0.14633   0.00000  Uiso   1.00
H56    H     0.32887   0.09786   0.14580   0.00000  Uiso   1.00
H57    H     0.03201   0.06598   0.11188   0.00000  Uiso   1.00
H58    H     0.00687   0.03840   0.15755   0.00000  Uiso   1.00
O59    O     0.29161   0.24811   0.22943   0.00000  Uiso   1.00
C60    C     0.28405   0.24854   0.18279   0.00000  Uiso   1.00
H61    H     0.25998   0.27464   0.17694   0.00000  Uiso   1.00
H62    H     0.27193   0.21525   0.16911   0.00000  Uiso   1.00
C63    C     0.32209   0.26210   0.15687   0.00000  Uiso   1.00
H64    H     0.01132   0.23337   0.15599   0.00000  Uiso   1.00
H65    H     0.31359   0.27003   0.12199   0.00000  Uiso   1.00
H66    H     0.00300   0.29287   0.17292   0.00000  Uiso   1.00
O67    O     0.29347   0.08331   0.23182   0.00000  Uiso   1.00
C68    C     0.29617   0.05924   0.27185   0.00000  Uiso   1.00
H69    H     0.27690   0.07634   0.29781   0.00000  Uiso   1.00
H70    H     0.32797   0.05720   0.28505   0.00000  Uiso   1.00
C71    C     0.28180   0.01072   0.26236   0.00000  Uiso   1.00
H72    H     0.30684   0.32588   0.24430   0.00000  Uiso   1.00
H73    H     0.27470   0.32662   0.29386   0.00000  Uiso   1.00
H74    H     0.25416   0.01056   0.24098   0.00000  Uiso   1.00
O75    O     0.03776   0.25168   0.25445   0.00000  Uiso   1.00
C76    C     0.04774   0.25904   0.30010   0.00000  Uiso   1.00
H77    H     0.07145   0.28595   0.30127   0.00000  Uiso   1.00
H78    H     0.06061   0.22784   0.31598   0.00000  Uiso   1.00
C79    C     0.01184   0.27736   0.32785   0.00000  Uiso   1.00
H80    H     0.31722   0.25689   0.32140   0.00000  Uiso   1.00
H81    H     0.01952   0.27553   0.36389   0.00000  Uiso   1.00
H82    H     0.00635   0.31400   0.32053   0.00000  Uiso   1.00
O83    O     0.16300   0.04190   0.17086   0.00000  Uiso   1.00
C84    C     0.20524   0.03840   0.16016   0.00000  Uiso   1.00
H85    H     0.21782   0.00349   0.16647   0.00000  Uiso   1.00
H86    H     0.22317   0.06378   0.18041   0.00000  Uiso   1.00
C87    C     0.21220   0.04724   0.11088   0.00000  Uiso   1.00
H88    H     0.21128   0.08462   0.10492   0.00000  Uiso   1.00
H89    H     0.24290   0.03422   0.10078   0.00000  Uiso   1.00
H90    H     0.18882   0.02948   0.08992   0.00000  Uiso   1.00
O91    O     0.18015   0.28941   0.32855   0.00000  Uiso   1.00
C92    C     0.14251   0.29568   0.35196   0.00000  Uiso   1.00
H93    H     0.12242   0.26622   0.34398   0.00000  Uiso   1.00
H94    H     0.12556   0.32772   0.34318   0.00000  Uiso   1.00
C95    C     0.14911   0.29688   0.40265   0.00000  Uiso   1.00
H96    H     0.13516   0.32854   0.41796   0.00000  Uiso   1.00
H97    H     0.13419   0.26693   0.41791   0.00000  Uiso   1.00
H98    H     0.18203   0.29641   0.41135   0.00000  Uiso   1.00
O99    O     0.20793   0.05220   0.31346   0.00000  Uiso   1.00
C100   C     0.20958   0.04087   0.35881   0.00000  Uiso   1.00
H101   H     0.22382   0.00660   0.36314   0.00000  Uiso   1.00
H102   H     0.17877   0.04421   0.37391   0.00000  Uiso   1.00
C103   C     0.23758   0.07448   0.38378   0.00000  Uiso   1.00
H104   H     0.23173   0.11027   0.37357   0.00000  Uiso   1.00
H105   H     0.23253   0.07232   0.42035   0.00000  Uiso   1.00
H106   H     0.27004   0.06581   0.37655   0.00000  Uiso   1.00
O107   O     0.12397   0.28547   0.18622   0.00000  Uiso   1.00
C108   C     0.13362   0.28582   0.14013   0.00000  Uiso   1.00
H109   H     0.12925   0.25032   0.12671   0.00000  Uiso   1.00
H110   H     0.16573   0.29460   0.13262   0.00000  Uiso   1.00
C111   C     0.10336   0.31529   0.11440   0.00000  Uiso   1.00
H112   H     0.11070   0.01894   0.11763   0.00000  Uiso   1.00
H113   H     0.10482   0.30556   0.07829   0.00000  Uiso   1.00
H114   H     0.07177   0.30961   0.12641   0.00000  Uiso   1.00
C115   C     0.42083   0.16690   0.24869   0.00000  Uiso   1.00
C116   C     0.57908   0.16638   0.24718   0.00000  Uiso   1.00
C117   C     0.45174   0.10271   0.02125   0.00000  Uiso   1.00
C118   C     0.55141   0.22693   0.47864   0.00000  Uiso   1.00
C119   C     0.35531   0.12598   0.23454   0.00000  Uiso   1.00
C120   C     0.64482   0.20778   0.23966   0.00000  Uiso   1.00
C121   C     0.64620   0.12477   0.23805   0.00000  Uiso   1.00
C122   C     0.35323   0.20894   0.24823   0.00000  Uiso   1.00
C123   C     0.62378   0.16605   0.24196   0.00000  Uiso   1.00
C124   C     0.37608   0.16737   0.24477   0.00000  Uiso   1.00
C125   C     0.49100   0.02307   0.21216   0.00000  Uiso   1.00
C126   C     0.51070   0.31031   0.28775   0.00000  Uiso   1.00
C127   C     0.51448   0.02673   0.28626   0.00000  Uiso   1.00
C128   C     0.48593   0.30735   0.21378   0.00000  Uiso   1.00
C129   C     0.50013   0.16612   0.16459   0.00000  Uiso   1.00
C130   C     0.49975   0.16711   0.33541   0.00000  Uiso   1.00
C131   C     0.52562   0.19703   0.40764   0.00000  Uiso   1.00
C132   C     0.47617   0.13401   0.09228   0.00000  Uiso   1.00
C133   C     0.49957   0.16750   0.38374   0.00000  Uiso   1.00
C134   C     0.50085   0.16510   0.11625   0.00000  Uiso   1.00
C135   C     0.47523   0.13591   0.40580   0.00000  Uiso   1.00
C136   C     0.52602   0.19579   0.09413   0.00000  Uiso   1.00
C137   C     0.47587   0.13454   0.45222   0.00000  Uiso   1.00
C138   C     0.52647   0.19596   0.04767   0.00000  Uiso   1.00
C139   C     0.50123   0.16529   0.47657   0.00000  Uiso   1.00
C140   C     0.50141   0.16488   0.02333   0.00000  Uiso   1.00
C141   C     0.52632   0.19656   0.45416   0.00000  Uiso   1.00
C142   C     0.47633   0.13360   0.04574   0.00000  Uiso   1.00
C143   C     0.45150   0.10319   0.47469   0.00000  Uiso   1.00
C144   C     0.55139   0.22674   0.02519   0.00000  Uiso   1.00
Cu145  Cu    0.50000   0.21355   0.25000   0.00000  Uiso   1.00
Cu146  Cu    0.50000   0.11978   0.25000   0.00000  Uiso   1.00
H147   H     0.54536   0.22014   0.38994   0.00000  Uiso   1.00
H148   H     0.45687   0.11040   0.10989   0.00000  Uiso   1.00
H149   H     0.45573   0.11257   0.38672   0.00000  Uiso   1.00
H150   H     0.54512   0.21955   0.11319   0.00000  Uiso   1.00
H151   H     0.43213   0.07924   0.45626   0.00000  Uiso   1.00
H152   H     0.57074   0.25071   0.04362   0.00000  Uiso   1.00
H153   H     0.43256   0.07841   0.03812   0.00000  Uiso   1.00
H154   H     0.57078   0.25104   0.46178   0.00000  Uiso   1.00
N155   N     0.50000   0.28402   0.25000   0.00000  Uiso   1.00
N156   N     0.50000   0.04931   0.25000   0.00000  Uiso   1.00
O157   O     0.43988   0.20625   0.24999   0.00000  Uiso   1.00
O158   O     0.56012   0.12709   0.25000   0.00000  Uiso   1.00
O159   O     0.56012   0.20625   0.25000   0.00000  Uiso   1.00
O160   O     0.43988   0.12709   0.24999   0.00000  Uiso   1.00
O161   O     0.49999   0.20627   0.18513   0.00000  Uiso   1.00
O162   O     0.50001   0.12707   0.31487   0.00000  Uiso   1.00
O163   O     0.50001   0.20627   0.31487   0.00000  Uiso   1.00
O164   O     0.49999   0.12707   0.18513   0.00000  Uiso   1.00
O165   O     0.37574   0.08551   0.22292   0.00000  Uiso   1.00
C166   C     0.38778   0.08657   0.17756   0.00000  Uiso   1.00
H167   H     0.41357   0.06209   0.17319   0.00000  Uiso   1.00
H168   H     0.39934   0.12080   0.16755   0.00000  Uiso   1.00
C169   C     0.35331   0.07119   0.14633   0.00000  Uiso   1.00
H170   H     0.66221   0.09786   0.14580   0.00000  Uiso   1.00
H171   H     0.36535   0.06598   0.11188   0.00000  Uiso   1.00
H172   H     0.34020   0.03840   0.15755   0.00000  Uiso   1.00
O173   O     0.62494   0.24811   0.22943   0.00000  Uiso   1.00
C174   C     0.61739   0.24854   0.18279   0.00000  Uiso   1.00
H175   H     0.59331   0.27464   0.17694   0.00000  Uiso   1.00
H176   H     0.60526   0.21525   0.16911   0.00000  Uiso   1.00
C177   C     0.65542   0.26210   0.15687   0.00000  Uiso   1.00
H178   H     0.34465   0.23337   0.15599   0.00000  Uiso   1.00
H179   H     0.64692   0.27003   0.12199   0.00000  Uiso   1.00
H180   H     0.33634   0.29287   0.17292   0.00000  Uiso   1.00
O181   O     0.62681   0.08331   0.23182   0.00000  Uiso   1.00
C182   C     0.62950   0.05924   0.27185   0.00000  Uiso   1.00
H183   H     0.61023   0.07634   0.29781   0.00000  Uiso   1.00
H184   H     0.66130   0.05720   0.28505   0.00000  Uiso   1.00
C185   C     0.61514   0.01072   0.26236   0.00000  Uiso   1.00
H186   H     0.64017   0.32588   0.24430   0.00000  Uiso   1.00
H187   H     0.60803   0.32662   0.29386   0.00000  Uiso   1.00
H188   H     0.58749   0.01056   0.24098   0.00000  Uiso   1.00
O189   O     0.37109   0.25168   0.25445   0.00000  Uiso   1.00
C190   C     0.38108   0.25904   0.30010   0.00000  Uiso   1.00
H191   H     0.40478   0.28595   0.30127   0.00000  Uiso   1.00
H192   H     0.39394   0.22784   0.31598   0.00000  Uiso   1.00
C193   C     0.34517   0.27736   0.32785   0.00000  Uiso   1.00
H194   H     0.65055   0.25689   0.32140   0.00000  Uiso   1.00
H195   H     0.35285   0.27553   0.36389   0.00000  Uiso   1.00
H196   H     0.33968   0.31400   0.32053   0.00000  Uiso   1.00
O197   O     0.49633   0.04190   0.17086   0.00000  Uiso   1.00
C198   C     0.53857   0.03840   0.16016   0.00000  Uiso   1.00
H199   H     0.55115   0.00349   0.16647   0.00000  Uiso   1.00
H200   H     0.55650   0.06378   0.18041   0.00000  Uiso   1.00
C201   C     0.54553   0.04724   0.11088   0.00000  Uiso   1.00
H202   H     0.54461   0.08462   0.10492   0.00000  Uiso   1.00
H203   H     0.57623   0.03422   0.10078   0.00000  Uiso   1.00
H204   H     0.52215   0.02948   0.08992   0.00000  Uiso   1.00
O205   O     0.51348   0.28941   0.32855   0.00000  Uiso   1.00
C206   C     0.47585   0.29568   0.35196   0.00000  Uiso   1.00
H207   H     0.45575   0.26622   0.34398   0.00000  Uiso   1.00
H208   H     0.45890   0.32772   0.34318   0.00000  Uiso   1.00
C209   C     0.48244   0.29688   0.40265   0.00000  Uiso   1.00
H210   H     0.46850   0.32854   0.41796   0.00000  Uiso   1.00
H211   H     0.46752   0.26693   0.41791   0.00000  Uiso   1.00
H212   H     0.51537   0.29641   0.41135   0.00000  Uiso   1.00
O213   O     0.54126   0.05220   0.31346   0.00000  Uiso   1.00
C214   C     0.54291   0.04087   0.35881   0.00000  Uiso   1.00
H215   H     0.55715   0.00660   0.36314   0.00000  Uiso   1.00
H216   H     0.51210   0.04421   0.37391   0.00000  Uiso   1.00
C217   C     0.57091   0.07448   0.38378   0.00000  Uiso   1.00
H218   H     0.56506   0.11027   0.37357   0.00000  Uiso   1.00
H219   H     0.56586   0.07232   0.42035   0.00000  Uiso   1.00
H220   H     0.60337   0.06581   0.37655   0.00000  Uiso   1.00
O221   O     0.45730   0.28547   0.18622   0.00000  Uiso   1.00
C222   C     0.46695   0.28582   0.14013   0.00000  Uiso   1.00
H223   H     0.46259   0.25032   0.12671   0.00000  Uiso   1.00
H224   H     0.49906   0.29460   0.13262   0.00000  Uiso   1.00
C225   C     0.43669   0.31529   0.11440   0.00000  Uiso   1.00
H226   H     0.44403   0.01894   0.11763   0.00000  Uiso   1.00
H227   H     0.43815   0.30556   0.07829   0.00000  Uiso   1.00
H228   H     0.40511   0.30961   0.12641   0.00000  Uiso   1.00
C229   C     0.75416   0.16690   0.24869   0.00000  Uiso   1.00
C230   C     0.91242   0.16638   0.24718   0.00000  Uiso   1.00
C231   C     0.78507   0.10271   0.02125   0.00000  Uiso   1.00
C232   C     0.88475   0.22693   0.47864   0.00000  Uiso   1.00
C233   C     0.68864   0.12598   0.23454   0.00000  Uiso   1.00
C234   C     0.97816   0.20778   0.23966   0.00000  Uiso   1.00
C235   C     0.97954   0.12477   0.23805   0.00000  Uiso   1.00
C236   C     0.68656   0.20894   0.24823   0.00000  Uiso   1.00
C237   C     0.95712   0.16605   0.24196   0.00000  Uiso   1.00
C238   C     0.70942   0.16737   0.24477   0.00000  Uiso   1.00
C239   C     0.82434   0.02307   0.21216   0.00000  Uiso   1.00
C240   C     0.84403   0.31031   0.28775   0.00000  Uiso   1.00
C241   C     0.84782   0.02673   0.28626   0.00000  Uiso   1.00
C242   C     0.81926   0.30735   0.21378   0.00000  Uiso   1.00
C243   C     0.83347   0.16612   0.16459   0.00000  Uiso   1.00
C244   C     0.83308   0.16711   0.33541   0.00000  Uiso   1.00
C245   C     0.85895   0.19703   0.40764   0.00000  Uiso   1.00
C246   C     0.80950   0.13401   0.09228   0.00000  Uiso   1.00
C247   C     0.83290   0.16750   0.38374   0.00000  Uiso   1.00
C248   C     0.83418   0.16510   0.11625   0.00000  Uiso   1.00
C249   C     0.80856   0.13591   0.40580   0.00000  Uiso   1.00
C250   C     0.85935   0.19579   0.09413   0.00000  Uiso   1.00
C251   C     0.80920   0.13454   0.45222   0.00000  Uiso   1.00
C252   C     0.85981   0.19596   0.04767   0.00000  Uiso   1.00
C253   C     0.83457   0.16529   0.47657   0.00000  Uiso   1.00
C254   C     0.83474   0.16488   0.02333   0.00000  Uiso   1.00
C255   C     0.85965   0.19656   0.45416   0.00000  Uiso   1.00
C256   C     0.80966   0.13360   0.04574   0.00000  Uiso   1.00
C257   C     0.78484   0.10319   0.47469   0.00000  Uiso   1.00
C258   C     0.88472   0.22674   0.02519   0.00000  Uiso   1.00
Cu259  Cu    0.83333   0.21355   0.25000   0.00000  Uiso   1.00
Cu260  Cu    0.83333   0.11978   0.25000   0.00000  Uiso   1.00
H261   H     0.87869   0.22014   0.38994   0.00000  Uiso   1.00
H262   H     0.79020   0.11040   0.10989   0.00000  Uiso   1.00
H263   H     0.78906   0.11257   0.38672   0.00000  Uiso   1.00
H264   H     0.87845   0.21955   0.11319   0.00000  Uiso   1.00
H265   H     0.76547   0.07924   0.45626   0.00000  Uiso   1.00
H266   H     0.90407   0.25071   0.04362   0.00000  Uiso   1.00
H267   H     0.76589   0.07841   0.03812   0.00000  Uiso   1.00
H268   H     0.90411   0.25104   0.46178   0.00000  Uiso   1.00
N269   N     0.83333   0.28402   0.25000   0.00000  Uiso   1.00
N270   N     0.83333   0.04931   0.25000   0.00000  Uiso   1.00
O271   O     0.77321   0.20625   0.24999   0.00000  Uiso   1.00
O272   O     0.89345   0.12709   0.25000   0.00000  Uiso   1.00
O273   O     0.89345   0.20625   0.25000   0.00000  Uiso   1.00
O274   O     0.77321   0.12709   0.24999   0.00000  Uiso   1.00
O275   O     0.83332   0.20627   0.18513   0.00000  Uiso   1.00
O276   O     0.83334   0.12707   0.31487   0.00000  Uiso   1.00
O277   O     0.83334   0.20627   0.31487   0.00000  Uiso   1.00
O278   O     0.83332   0.12707   0.18513   0.00000  Uiso   1.00
O279   O     0.70908   0.08551   0.22292   0.00000  Uiso   1.00
C280   C     0.72111   0.08657   0.17756   0.00000  Uiso   1.00
H281   H     0.74690   0.06209   0.17319   0.00000  Uiso   1.00
H282   H     0.73267   0.12080   0.16755   0.00000  Uiso   1.00
C283   C     0.68664   0.07119   0.14633   0.00000  Uiso   1.00
H284   H     0.99554   0.09786   0.14580   0.00000  Uiso   1.00
H285   H     0.69868   0.06598   0.11188   0.00000  Uiso   1.00
H286   H     0.67353   0.03840   0.15755   0.00000  Uiso   1.00
O287   O     0.95828   0.24811   0.22943   0.00000  Uiso   1.00
C288   C     0.95072   0.24854   0.18279   0.00000  Uiso   1.00
H289   H     0.92665   0.27464   0.17694   0.00000  Uiso   1.00
H290   H     0.93860   0.21525   0.16911   0.00000  Uiso   1.00
C291   C     0.98876   0.26210   0.15687   0.00000  Uiso   1.00
H292   H     0.67798   0.23337   0.15599   0.00000  Uiso   1.00
H293   H     0.98026   0.27003   0.12199   0.00000  Uiso   1.00
H294   H     0.66967   0.29287   0.17292   0.00000  Uiso   1.00
O295   O     0.96014   0.08331   0.23182   0.00000  Uiso   1.00
C296   C     0.96284   0.05924   0.27185   0.00000  Uiso   1.00
H297   H     0.94357   0.07634   0.29781   0.00000  Uiso   1.00
H298   H     0.99463   0.05720   0.28505   0.00000  Uiso   1.00
C299   C     0.94847   0.01072   0.26236   0.00000  Uiso   1.00
H300   H     0.97351   0.32588   0.24430   0.00000  Uiso   1.00
H301   H     0.94136   0.32662   0.29386   0.00000  Uiso   1.00
H302   H     0.92082   0.01056   0.24098   0.00000  Uiso   1.00
O303   O     0.70443   0.25168   0.25445   0.00000  Uiso   1.00
C304   C     0.71441   0.25904   0.30010   0.00000  Uiso   1.00
H305   H     0.73811   0.28595   0.30127   0.00000  Uiso   1.00
H306   H     0.72727   0.22784   0.31598   0.00000  Uiso   1.00
C307   C     0.67851   0.27736   0.32785   0.00000  Uiso   1.00
H308   H     0.98388   0.25689   0.32140   0.00000  Uiso   1.00
H309   H     0.68619   0.27553   0.36389   0.00000  Uiso   1.00
H310   H     0.67302   0.31400   0.32053   0.00000  Uiso   1.00
O311   O     0.82967   0.04190   0.17086   0.00000  Uiso   1.00
C312   C     0.87191   0.03840   0.16016   0.00000  Uiso   1.00
H313   H     0.88448   0.00349   0.16647   0.00000  Uiso   1.00
H314   H     0.88984   0.06378   0.18041   0.00000  Uiso   1.00
C315   C     0.87887   0.04724   0.11088   0.00000  Uiso   1.00
H316   H     0.87794   0.08462   0.10492   0.00000  Uiso   1.00
H317   H     0.90956   0.03422   0.10078   0.00000  Uiso   1.00
H318   H     0.85549   0.02948   0.08992   0.00000  Uiso   1.00
O319   O     0.84681   0.28941   0.32855   0.00000  Uiso   1.00
C320   C     0.80918   0.29568   0.35196   0.00000  Uiso   1.00
H321   H     0.78909   0.26622   0.34398   0.00000  Uiso   1.00
H322   H     0.79223   0.32772   0.34318   0.00000  Uiso   1.00
C323   C     0.81578   0.29688   0.40265   0.00000  Uiso   1.00
H324   H     0.80183   0.32854   0.41796   0.00000  Uiso   1.00
H325   H     0.80085   0.26693   0.41791   0.00000  Uiso   1.00
H326   H     0.84870   0.29641   0.41135   0.00000  Uiso   1.00
O327   O     0.87460   0.05220   0.31346   0.00000  Uiso   1.00
C328   C     0.87625   0.04087   0.35881   0.00000  Uiso   1.00
H329   H     0.89049   0.00660   0.36314   0.00000  Uiso   1.00
H330   H     0.84544   0.04421   0.37391   0.00000  Uiso   1.00
C331   C     0.90425   0.07448   0.38378   0.00000  Uiso   1.00
H332   H     0.89840   0.11027   0.37357   0.00000  Uiso   1.00
H333   H     0.89919   0.07232   0.42035   0.00000  Uiso   1.00
H334   H     0.93671   0.06581   0.37655   0.00000  Uiso   1.00
O335   O     0.79064   0.28547   0.18622   0.00000  Uiso   1.00
C336   C     0.80028   0.28582   0.14013   0.00000  Uiso   1.00
H337   H     0.79592   0.25032   0.12671   0.00000  Uiso   1.00
H338   H     0.83240   0.29460   0.13262   0.00000  Uiso   1.00
C339   C     0.77002   0.31529   0.11440   0.00000  Uiso   1.00
H340   H     0.77737   0.01894   0.11763   0.00000  Uiso   1.00
H341   H     0.77148   0.30556   0.07829   0.00000  Uiso   1.00
H342   H     0.73844   0.30961   0.12641   0.00000  Uiso   1.00
C343   C     0.08750   0.50023   0.24869   0.00000  Uiso   1.00
C344   C     0.24575   0.49971   0.24718   0.00000  Uiso   1.00
C345   C     0.11840   0.43604   0.02125   0.00000  Uiso   1.00
C346   C     0.21808   0.56027   0.47864   0.00000  Uiso   1.00
C347   C     0.02197   0.45931   0.23454   0.00000  Uiso   1.00
C348   C     0.31149   0.54112   0.23966   0.00000  Uiso   1.00
C349   C     0.31287   0.45811   0.23805   0.00000  Uiso   1.00
C350   C     0.01989   0.54228   0.24823   0.00000  Uiso   1.00
C351   C     0.29045   0.49939   0.24196   0.00000  Uiso   1.00
C352   C     0.04275   0.50070   0.24477   0.00000  Uiso   1.00
C353   C     0.15767   0.35640   0.21216   0.00000  Uiso   1.00
C354   C     0.17736   0.64364   0.28775   0.00000  Uiso   1.00
C355   C     0.18115   0.36006   0.28626   0.00000  Uiso   1.00
C356   C     0.15259   0.64068   0.21378   0.00000  Uiso   1.00
C357   C     0.16680   0.49946   0.16459   0.00000  Uiso   1.00
C358   C     0.16641   0.50045   0.33541   0.00000  Uiso   1.00
C359   C     0.19229   0.53036   0.40764   0.00000  Uiso   1.00
C360   C     0.14283   0.46735   0.09228   0.00000  Uiso   1.00
C361   C     0.16624   0.50083   0.38374   0.00000  Uiso   1.00
C362   C     0.16751   0.49843   0.11625   0.00000  Uiso   1.00
C363   C     0.14189   0.46924   0.40580   0.00000  Uiso   1.00
C364   C     0.19269   0.52912   0.09413   0.00000  Uiso   1.00
C365   C     0.14254   0.46788   0.45222   0.00000  Uiso   1.00
C366   C     0.19314   0.52929   0.04767   0.00000  Uiso   1.00
C367   C     0.16790   0.49863   0.47657   0.00000  Uiso   1.00
C368   C     0.16807   0.49821   0.02333   0.00000  Uiso   1.00
C369   C     0.19299   0.52989   0.45416   0.00000  Uiso   1.00
C370   C     0.14299   0.46694   0.04574   0.00000  Uiso   1.00
C371   C     0.11817   0.43652   0.47469   0.00000  Uiso   1.00
C372   C     0.21805   0.56008   0.02519   0.00000  Uiso   1.00
Cu373  Cu    0.16667   0.54689   0.25000   0.00000  Uiso   1.00
Cu374  Cu    0.16667   0.45311   0.25000   0.00000  Uiso   1.00
H375   H     0.21202   0.55347   0.38994   0.00000  Uiso   1.00
H376   H     0.12353   0.44373   0.10989   0.00000  Uiso   1.00
H377   H     0.12240   0.44590   0.38672   0.00000  Uiso   1.00
H378   H     0.21178   0.55289   0.11319   0.00000  Uiso   1.00
H379   H     0.09880   0.41258   0.45626   0.00000  Uiso   1.00
H380   H     0.23741   0.58404   0.04362   0.00000  Uiso   1.00
H381   H     0.09922   0.41174   0.03812   0.00000  Uiso   1.00
H382   H     0.23744   0.58438   0.46178   0.00000  Uiso   1.00
N383   N     0.16667   0.61736   0.25000   0.00000  Uiso   1.00
N384   N     0.16667   0.38264   0.25000   0.00000  Uiso   1.00
O385   O     0.10655   0.53958   0.24999   0.00000  Uiso   1.00
O386   O     0.22679   0.46042   0.25000   0.00000  Uiso   1.00
O387   O     0.22679   0.53958   0.25000   0.00000  Uiso   1.00
O388   O     0.10655   0.46042   0.24999   0.00000  Uiso   1.00
O389   O     0.16666   0.53960   0.18513   0.00000  Uiso   1.00
O390   O     0.16668   0.46040   0.31487   0.00000  Uiso   1.00
O391   O     0.16668   0.53960   0.31487   0.00000  Uiso   1.00
O392   O     0.16666   0.46040   0.18513   0.00000  Uiso   1.00
O393   O     0.04241   0.41884   0.22292   0.00000  Uiso   1.00
C394   C     0.05445   0.41990   0.17756   0.00000  Uiso   1.00
H395   H     0.08024   0.39542   0.17319   0.00000  Uiso   1.00
H396   H     0.06600   0.45413   0.16755   0.00000  Uiso   1.00
C397   C     0.01998   0.40452   0.14633   0.00000  Uiso   1.00
H398   H     0.32887   0.43119   0.14580   0.00000  Uiso   1.00
H399   H     0.03201   0.39932   0.11188   0.00000  Uiso   1.00
H400   H     0.00687   0.37174   0.15755   0.00000  Uiso   1.00
O401   O     0.29161   0.58144   0.22943   0.00000  Uiso   1.00
C402   C     0.28405   0.58187   0.18279   0.00000  Uiso   1.00
H403   H     0.25998   0.60797   0.17694   0.00000  Uiso   1.00
H404   H     0.27193   0.54858   0.16911   0.00000  Uiso   1.00
C405   C     0.32209   0.59543   0.15687   0.00000  Uiso   1.00
H406   H     0.01132   0.56670   0.15599   0.00000  Uiso   1.00
H407   H     0.31359   0.60336   0.12199   0.00000  Uiso   1.00
H408   H     0.00300   0.62620   0.17292   0.00000  Uiso   1.00
O409   O     0.29347   0.41664   0.23182   0.00000  Uiso   1.00
C410   C     0.29617   0.39257   0.27185   0.00000  Uiso   1.00
H411   H     0.27690   0.40967   0.29781   0.00000  Uiso   1.00
H412   H     0.32797   0.39053   0.28505   0.00000  Uiso   1.00
C413   C     0.28180   0.34406   0.26236   0.00000  Uiso   1.00
H414   H     0.30684   0.65922   0.24430   0.00000  Uiso   1.00
H415   H     0.27470   0.65995   0.29386   0.00000  Uiso   1.00
H416   H     0.25416   0.34389   0.24098   0.00000  Uiso   1.00
O417   O     0.03776   0.58501   0.25445   0.00000  Uiso   1.00
C418   C     0.04774   0.59237   0.30010   0.00000  Uiso   1.00
H419   H     0.07145   0.61929   0.30127   0.00000  Uiso   1.00
H420   H     0.06061   0.56118   0.31598   0.00000  Uiso   1.00
C421   C     0.01184   0.61069   0.32785   0.00000  Uiso   1.00
H422   H     0.31722   0.59022   0.32140   0.00000  Uiso   1.00
H423   H     0.01952   0.60886   0.36389   0.00000  Uiso   1.00
H424   H     0.00635   0.64734   0.32053   0.00000  Uiso   1.00
O425   O     0.16300   0.37524   0.17086   0.00000  Uiso   1.00
C426   C     0.20524   0.37173   0.16016   0.00000  Uiso   1.00
H427   H     0.21782   0.33682   0.16647   0.00000  Uiso   1.00
H428   H     0.22317   0.39712   0.18041   0.00000  Uiso   1.00
C429   C     0.21220   0.38057   0.11088   0.00000  Uiso   1.00
H430   H     0.21128   0.41795   0.10492   0.00000  Uiso   1.00
H431   H     0.24290   0.36755   0.10078   0.00000  Uiso   1.00
H432   H     0.18882   0.36281   0.08992   0.00000  Uiso   1.00
O433   O     0.18015   0.62275   0.32855   0.00000  Uiso   1.00
C434   C     0.14251   0.62902   0.35196   0.00000  Uiso   1.00
H435   H     0.12242   0.59955   0.34398   0.00000  Uiso   1.00
H436   H     0.12556   0.66105   0.34318   0.00000  Uiso   1.00
C437   C     0.14911   0.63021   0.40265   0.00000  Uiso   1.00
H438   H     0.13516   0.66187   0.41796   0.00000  Uiso   1.00
H439   H     0.13419   0.60026   0.41791   0.00000  Uiso   1.00
H440   H     0.18203   0.62974   0.41135   0.00000  Uiso   1.00
O441   O     0.20793   0.38553   0.31346   0.00000  Uiso   1.00
C442   C     0.20958   0.37420   0.35881   0.00000  Uiso   1.00
H443   H     0.22382   0.33993   0.36314   0.00000  Uiso   1.00
H444   H     0.17877   0.37754   0.37391   0.00000  Uiso   1.00
C445   C     0.23758   0.40781   0.38378   0.00000  Uiso   1.00
H446   H     0.23173   0.44360   0.37357   0.00000  Uiso   1.00
H447   H     0.23253   0.40565   0.42035   0.00000  Uiso   1.00
H448   H     0.27004   0.39915   0.37655   0.00000  Uiso   1.00
O449   O     0.12397   0.61880   0.18622   0.00000  Uiso   1.00
C450   C     0.13362   0.61915   0.14013   0.00000  Uiso   1.00
H451   H     0.12925   0.58365   0.12671   0.00000  Uiso   1.00
H452   H     0.16573   0.62793   0.13262   0.00000  Uiso   1.00
C453   C     0.10336   0.64862   0.11440   0.00000  Uiso   1.00
H454   H     0.11070   0.35228   0.11763   0.00000  Uiso   1.00
H455   H     0.10482   0.63890   0.07829   0.00000  Uiso   1.00
H456   H     0.07177   0.64294   0.12641   0.00000  Uiso   1.00
C457   C     0.42083   0.50023   0.24869   0.00000  Uiso   1.00
C458   C     0.57908   0.49971   0.24718   0.00000  Uiso   1.00
C459   C     0.45174   0.43604   0.02125   0.00000  Uiso   1.00
C460   C     0.55141   0.56027   0.47864   0.00000  Uiso   1.00
C461   C     0.35531   0.45931   0.23454   0.00000  Uiso   1.00
C462   C     0.64482   0.54112   0.23966   0.00000  Uiso   1.00
C463   C     0.64620   0.45811   0.23805   0.00000  Uiso   1.00
C464   C     0.35323   0.54228   0.24823   0.00000  Uiso   1.00
C465   C     0.62378   0.49939   0.24196   0.00000  Uiso   1.00
C466   C     0.37608   0.50070   0.24477   0.00000  Uiso   1.00
C467   C     0.49100   0.35640   0.21216   0.00000  Uiso   1.00
C468   C     0.51070   0.64364   0.28775   0.00000  Uiso   1.00
C469   C     0.51448   0.36006   0.28626   0.00000  Uiso   1.00
C470   C     0.48593   0.64068   0.21378   0.00000  Uiso   1.00
C471   C     0.50013   0.49946   0.16459   0.00000  Uiso   1.00
C472   C     0.49975   0.50045   0.33541   0.00000  Uiso   1.00
C473   C     0.52562   0.53036   0.40764   0.00000  Uiso   1.00
C474   C     0.47617   0.46735   0.09228   0.00000  Uiso   1.00
C475   C     0.49957   0.50083   0.38374   0.00000  Uiso   1.00
C476   C     0.50085   0.49843   0.11625   0.00000  Uiso   1.00
C477   C     0.47523   0.46924   0.40580   0.00000  Uiso   1.00
C478   C     0.52602   0.52912   0.09413   0.00000  Uiso   1.00
C479   C     0.47587   0.46788   0.45222   0.00000  Uiso   1.00
C480   C     0.52647   0.52929   0.04767   0.00000  Uiso   1.00
C481   C     0.50123   0.49863   0.47657   0.00000  Uiso   1.00
C482   C     0.50141   0.49821   0.02333   0.00000  Uiso   1.00
C483   C     0.52632   0.52989   0.45416   0.00000  Uiso   1.00
C484   C     0.47633   0.46694   0.04574   0.00000  Uiso   1.00
C485   C     0.45150   0.43652   0.47469   0.00000  Uiso   1.00
C486   C     0.55139   0.56008   0.02519   0.00000  Uiso   1.00
Cu487  Cu    0.50000   0.54689   0.25000   0.00000  Uiso   1.00
Cu488  Cu    0.50000   0.45311   0.25000   0.00000  Uiso   1.00
H489   H     0.54536   0.55347   0.38994   0.00000  Uiso   1.00
H490   H     0.45687   0.44373   0.10989   0.00000  Uiso   1.00
H491   H     0.45573   0.44590   0.38672   0.00000  Uiso   1.00
H492   H     0.54512   0.55289   0.11319   0.00000  Uiso   1.00
H493   H     0.43213   0.41258   0.45626   0.00000  Uiso   1.00
H494   H     0.57074   0.58404   0.04362   0.00000  Uiso   1.00
H495   H     0.43256   0.41174   0.03812   0.00000  Uiso   1.00
H496   H     0.57078   0.58438   0.46178   0.00000  Uiso   1.00
N497   N     0.50000   0.61736   0.25000   0.00000  Uiso   1.00
N498   N     0.50000   0.38264   0.25000   0.00000  Uiso   1.00
O499   O     0.43988   0.53958   0.24999   0.00000  Uiso   1.00
O500   O     0.56012   0.46042   0.25000   0.00000  Uiso   1.00
O501   O     0.56012   0.53958   0.25000   0.00000  Uiso   1.00
O502   O     0.43988   0.46042   0.24999   0.00000  Uiso   1.00
O503   O     0.49999   0.53960   0.18513   0.00000  Uiso   1.00
O504   O     0.50001   0.46040   0.31487   0.00000  Uiso   1.00
O505   O     0.50001   0.53960   0.31487   0.00000  Uiso   1.00
O506   O     0.49999   0.46040   0.18513   0.00000  Uiso   1.00
O507   O     0.37574   0.41884   0.22292   0.00000  Uiso   1.00
C508   C     0.38778   0.41990   0.17756   0.00000  Uiso   1.00
H509   H     0.41357   0.39542   0.17319   0.00000  Uiso   1.00
H510   H     0.39934   0.45413   0.16755   0.00000  Uiso   1.00
C511   C     0.35331   0.40452   0.14633   0.00000  Uiso   1.00
H512   H     0.66221   0.43119   0.14580   0.00000  Uiso   1.00
H513   H     0.36535   0.39932   0.11188   0.00000  Uiso   1.00
H514   H     0.34020   0.37174   0.15755   0.00000  Uiso   1.00
O515   O     0.62494   0.58144   0.22943   0.00000  Uiso   1.00
C516   C     0.61739   0.58187   0.18279   0.00000  Uiso   1.00
H517   H     0.59331   0.60797   0.17694   0.00000  Uiso   1.00
H518   H     0.60526   0.54858   0.16911   0.00000  Uiso   1.00
C519   C     0.65542   0.59543   0.15687   0.00000  Uiso   1.00
H520   H     0.34465   0.56670   0.15599   0.00000  Uiso   1.00
H521   H     0.64692   0.60336   0.12199   0.00000  Uiso   1.00
H522   H     0.33634   0.62620   0.17292   0.00000  Uiso   1.00
O523   O     0.62681   0.41664   0.23182   0.00000  Uiso   1.00
C524   C     0.62950   0.39257   0.27185   0.00000  Uiso   1.00
H525   H     0.61023   0.40967   0.29781   0.00000  Uiso   1.00
H526   H     0.66130   0.39053   0.28505   0.00000  Uiso   1.00
C527   C     0.61514   0.34406   0.26236   0.00000  Uiso   1.00
H528   H     0.64017   0.65922   0.24430   0.00000  Uiso   1.00
H529   H     0.60803   0.65995   0.29386   0.00000  Uiso   1.00
H530   H     0.58749   0.34389   0.24098   0.00000  Uiso   1.00
O531   O     0.37109   0.58501   0.25445   0.00000  Uiso   1.00
C532   C     0.38108   0.59237   0.30010   0.00000  Uiso   1.00
H533   H     0.40478   0.61929   0.30127   0.00000  Uiso   1.00
H534   H     0.39394   0.56118   0.31598   0.00000  Uiso   1.00
C535   C     0.34517   0.61069   0.32785   0.00000  Uiso   1.00
H536   H     0.65055   0.59022   0.32140   0.00000  Uiso   1.00
H537   H     0.35285   0.60886   0.36389   0.00000  Uiso   1.00
H538   H     0.33968   0.64734   0.32053   0.00000  Uiso   1.00
O539   O     0.49633   0.37524   0.17086   0.00000  Uiso   1.00
C540   C     0.53857   0.37173   0.16016   0.00000  Uiso   1.00
H541   H     0.55115   0.33682   0.16647   0.00000  Uiso   1.00
H542   H     0.55650   0.39712   0.18041   0.00000  Uiso   1.00
C543   C     0.54553   0.38057   0.11088   0.00000  Uiso   1.00
H544   H     0.54461   0.41795   0.10492   0.00000  Uiso   1.00
H545   H     0.57623   0.36755   0.10078   0.00000  Uiso   1.00
H546   H     0.52215   0.36281   0.08992   0.00000  Uiso   1.00
O547   O     0.51348   0.62275   0.32855   0.00000  Uiso   1.00
C548   C     0.47585   0.62902   0.35196   0.00000  Uiso   1.00
H549   H     0.45575   0.59955   0.34398   0.00000  Uiso   1.00
H550   H     0.45890   0.66105   0.34318   0.00000  Uiso   1.00
C551   C     0.48244   0.63021   0.40265   0.00000  Uiso   1.00
H552   H     0.46850   0.66187   0.41796   0.00000  Uiso   1.00
H553   H     0.46752   0.60026   0.41791   0.00000  Uiso   1.00
H554   H     0.51537   0.62974   0.41135   0.00000  Uiso   1.00
O555   O     0.54126   0.38553   0.31346   0.00000  Uiso   1.00
C556   C     0.54291   0.37420   0.35881   0.00000  Uiso   1.00
H557   H     0.55715   0.33993   0.36314   0.00000  Uiso   1.00
H558   H     0.51210   0.37754   0.37391   0.00000  Uiso   1.00
C559   C     0.57091   0.40781   0.38378   0.00000  Uiso   1.00
H560   H     0.56506   0.44360   0.37357   0.00000  Uiso   1.00
H561   H     0.56586   0.40565   0.42035   0.00000  Uiso   1.00
H562   H     0.60337   0.39915   0.37655   0.00000  Uiso   1.00
O563   O     0.45730   0.61880   0.18622   0.00000  Uiso   1.00
C564   C     0.46695   0.61915   0.14013   0.00000  Uiso   1.00
H565   H     0.46259   0.58365   0.12671   0.00000  Uiso   1.00
H566   H     0.49906   0.62793   0.13262   0.00000  Uiso   1.00
C567   C     0.43669   0.64862   0.11440   0.00000  Uiso   1.00
H568   H     0.44403   0.35228   0.11763   0.00000  Uiso   1.00
H569   H     0.43815   0.63890   0.07829   0.00000  Uiso   1.00
H570   H     0.40511   0.64294   0.12641   0.00000  Uiso   1.00
C571   C     0.75416   0.50023   0.24869   0.00000  Uiso   1.00
C572   C     0.91242   0.49971   0.24718   0.00000  Uiso   1.00
C573   C     0.78507   0.43604   0.02125   0.00000  Uiso   1.00
C574   C     0.88475   0.56027   0.47864   0.00000  Uiso   1.00
C575   C     0.68864   0.45931   0.23454   0.00000  Uiso   1.00
C576   C     0.97816   0.54112   0.23966   0.00000  Uiso   1.00
C577   C     0.97954   0.45811   0.23805   0.00000  Uiso   1.00
C578   C     0.68656   0.54228   0.24823   0.00000  Uiso   1.00
C579   C     0.95712   0.49939   0.24196   0.00000  Uiso   1.00
C580   C     0.70942   0.50070   0.24477   0.00000  Uiso   1.00
C581   C     0.82434   0.35640   0.21216   0.00000  Uiso   1.00
C582   C     0.84403   0.64364   0.28775   0.00000  Uiso   1.00
C583   C     0.84782   0.36006   0.28626   0.00000  Uiso   1.00
C584   C     0.81926   0.64068   0.21378   0.00000  Uiso   1.00
C585   C     0.83347   0.49946   0.16459   0.00000  Uiso   1.00
C586   C     0.83308   0.50045   0.33541   0.00000  Uiso   1.00
C587   C     0.85895   0.53036   0.40764   0.00000  Uiso   1.00
C588   C     0.80950   0.46735   0.09228   0.00000  Uiso   1.00
C589   C     0.83290   0.50083   0.38374   0.00000  Uiso   1.00
C590   C     0.83418   0.49843   0.11625   0.00000  Uiso   1.00
C591   C     0.80856   0.46924   0.40580   0.00000  Uiso   1.00
C592   C     0.85935   0.52912   0.09413   0.00000  Uiso   1.00
C593   C     0.80920   0.46788   0.45222   0.00000  Uiso   1.00
C594   C     0.85981   0.52929   0.04767   0.00000  Uiso   1.00
C595   C     0.83457   0.49863   0.47657   0.00000  Uiso   1.00
C596   C     0.83474   0.49821   0.02333   0.00000  Uiso   1.00
C597   C     0.85965   0.52989   0.45416   0.00000  Uiso   1.00
C598   C     0.80966   0.46694   0.04574   0.00000  Uiso   1.00
C599   C     0.78484   0.43652   0.47469   0.00000  Uiso   1.00
C600   C     0.88472   0.56008   0.02519   0.00000  Uiso   1.00
Cu601  Cu    0.83333   0.54689   0.25000   0.00000  Uiso   1.00
Cu602  Cu    0.83333   0.45311   0.25000   0.00000  Uiso   1.00
H603   H     0.87869   0.55347   0.38994   0.00000  Uiso   1.00
H604   H     0.79020   0.44373   0.10989   0.00000  Uiso   1.00
H605   H     0.78906   0.44590   0.38672   0.00000  Uiso   1.00
H606   H     0.87845   0.55289   0.11319   0.00000  Uiso   1.00
H607   H     0.76547   0.41258   0.45626   0.00000  Uiso   1.00
H608   H     0.90407   0.58404   0.04362   0.00000  Uiso   1.00
H609   H     0.76589   0.41174   0.03812   0.00000  Uiso   1.00
H610   H     0.90411   0.58438   0.46178   0.00000  Uiso   1.00
N611   N     0.83333   0.61736   0.25000   0.00000  Uiso   1.00
N612   N     0.83333   0.38264   0.25000   0.00000  Uiso   1.00
O613   O     0.77321   0.53958   0.24999   0.00000  Uiso   1.00
O614   O     0.89345   0.46042   0.25000   0.00000  Uiso   1.00
O615   O     0.89345   0.53958   0.25000   0.00000  Uiso   1.00
O616   O     0.77321   0.46042   0.24999   0.00000  Uiso   1.00
O617   O     0.83332   0.53960   0.18513   0.00000  Uiso   1.00
O618   O     0.83334   0.46040   0.31487   0.00000  Uiso   1.00
O619   O     0.83334   0.53960   0.31487   0.00000  Uiso   1.00
O620   O     0.83332   0.46040   0.18513   0.00000  Uiso   1.00
O621   O     0.70908   0.41884   0.22292   0.00000  Uiso   1.00
C622   C     0.72111   0.41990   0.17756   0.00000  Uiso   1.00
H623   H     0.74690   0.39542   0.17319   0.00000  Uiso   1.00
H624   H     0.73267   0.45413   0.16755   0.00000  Uiso   1.00
C625   C     0.68664   0.40452   0.14633   0.00000  Uiso   1.00
H626   H     0.99554   0.43119   0.14580   0.00000  Uiso   1.00
H627   H     0.69868   0.39932   0.11188   0.00000  Uiso   1.00
H628   H     0.67353   0.37174   0.15755   0.00000  Uiso   1.00
O629   O     0.95828   0.58144   0.22943   0.00000  Uiso   1.00
C630   C     0.95072   0.58187   0.18279   0.00000  Uiso   1.00
H631   H     0.92665   0.60797   0.17694   0.00000  Uiso   1.00
H632   H     0.93860   0.54858   0.16911   0.00000  Uiso   1.00
C633   C     0.98876   0.59543   0.15687   0.00000  Uiso   1.00
H634   H     0.67798   0.56670   0.15599   0.00000  Uiso   1.00
H635   H     0.98026   0.60336   0.12199   0.00000  Uiso   1.00
H636   H     0.66967   0.62620   0.17292   0.00000  Uiso   1.00
O637   O     0.96014   0.41664   0.23182   0.00000  Uiso   1.00
C638   C     0.96284   0.39257   0.27185   0.00000  Uiso   1.00
H639   H     0.94357   0.40967   0.29781   0.00000  Uiso   1.00
H640   H     0.99463   0.39053   0.28505   0.00000  Uiso   1.00
C641   C     0.94847   0.34406   0.26236   0.00000  Uiso   1.00
H642   H     0.97351   0.65922   0.24430   0.00000  Uiso   1.00
H643   H     0.94136   0.65995   0.29386   0.00000  Uiso   1.00
H644   H     0.92082   0.34389   0.24098   0.00000  Uiso   1.00
O645   O     0.70443   0.58501   0.25445   0.00000  Uiso   1.00
C646   C     0.71441   0.59237   0.30010   0.00000  Uiso   1.00
H647   H     0.73811   0.61929   0.30127   0.00000  Uiso   1.00
H648   H     0.72727   0.56118   0.31598   0.00000  Uiso   1.00
C649   C     0.67851   0.61069   0.32785   0.00000  Uiso   1.00
H650   H     0.98388   0.59022   0.32140   0.00000  Uiso   1.00
H651   H     0.68619   0.60886   0.36389   0.00000  Uiso   1.00
H652   H     0.67302   0.64734   0.32053   0.00000  Uiso   1.00
O653   O     0.82967   0.37524   0.17086   0.00000  Uiso   1.00
C654   C     0.87191   0.37173   0.16016   0.00000  Uiso   1.00
H655   H     0.88448   0.33682   0.16647   0.00000  Uiso   1.00
H656   H     0.88984   0.39712   0.18041   0.00000  Uiso   1.00
C657   C     0.87887   0.38057   0.11088   0.00000  Uiso   1.00
H658   H     0.87794   0.41795   0.10492   0.00000  Uiso   1.00
H659   H     0.90956   0.36755   0.10078   0.00000  Uiso   1.00
H660   H     0.85549   0.36281   0.08992   0.00000  Uiso   1.00
O661   O     0.84681   0.62275   0.32855   0.00000  Uiso   1.00
C662   C     0.80918   0.62902   0.35196   0.00000  Uiso   1.00
H663   H     0.78909   0.59955   0.34398   0.00000  Uiso   1.00
H664   H     0.79223   0.66105   0.34318   0.00000  Uiso   1.00
C665   C     0.81578   0.63021   0.40265   0.00000  Uiso   1.00
H666   H     0.80183   0.66187   0.41796   0.00000  Uiso   1.00
H667   H     0.80085   0.60026   0.41791   0.00000  Uiso   1.00
H668   H     0.84870   0.62974   0.41135   0.00000  Uiso   1.00
O669   O     0.87460   0.38553   0.31346   0.00000  Uiso   1.00
C670   C     0.87625   0.37420   0.35881   0.00000  Uiso   1.00
H671   H     0.89049   0.33993   0.36314   0.00000  Uiso   1.00
H672   H     0.84544   0.37754   0.37391   0.00000  Uiso   1.00
C673   C     0.90425   0.40781   0.38378   0.00000  Uiso   1.00
H674   H     0.89840   0.44360   0.37357   0.00000  Uiso   1.00
H675   H     0.89919   0.40565   0.42035   0.00000  Uiso   1.00
H676   H     0.93671   0.39915   0.37655   0.00000  Uiso   1.00
O677   O     0.79064   0.61880   0.18622   0.00000  Uiso   1.00
C678   C     0.80028   0.61915   0.14013   0.00000  Uiso   1.00
H679   H     0.79592   0.58365   0.12671   0.00000  Uiso   1.00
H680   H     0.83240   0.62793   0.13262   0.00000  Uiso   1.00
C681   C     0.77002   0.64862   0.11440   0.00000  Uiso   1.00
H682   H     0.77737   0.35228   0.11763   0.00000  Uiso   1.00
H683   H     0.77148   0.63890   0.07829   0.00000  Uiso   1.00
H684   H     0.73844   0.64294   0.12641   0.00000  Uiso   1.00
C685   C     0.08750   0.83357   0.24869   0.00000  Uiso   1.00
C686   C     0.24575   0.83305   0.24718   0.00000  Uiso   1.00
C687   C     0.11840   0.76937   0.02125   0.00000  Uiso   1.00
C688   C     0.21808   0.89360   0.47864   0.00000  Uiso   1.00
C689   C     0.02197   0.79264   0.23454   0.00000  Uiso   1.00
C690   C     0.31149   0.87445   0.23966   0.00000  Uiso   1.00
C691   C     0.31287   0.79144   0.23805   0.00000  Uiso   1.00
C692   C     0.01989   0.87561   0.24823   0.00000  Uiso   1.00
C693   C     0.29045   0.83272   0.24196   0.00000  Uiso   1.00
C694   C     0.04275   0.83403   0.24477   0.00000  Uiso   1.00
C695   C     0.15767   0.68974   0.21216   0.00000  Uiso   1.00
C696   C     0.17736   0.97697   0.28775   0.00000  Uiso   1.00
C697   C     0.18115   0.69340   0.28626   0.00000  Uiso   1.00
C698   C     0.15259   0.97402   0.21378   0.00000  Uiso   1.00
C699   C     0.16680   0.83279   0.16459   0.00000  Uiso   1.00
C700   C     0.16641   0.83378   0.33541   0.00000  Uiso   1.00
C701   C     0.19229   0.86370   0.40764   0.00000  Uiso   1.00
C702   C     0.14283   0.80068   0.09228   0.00000  Uiso   1.00
C703   C     0.16624   0.83417   0.38374   0.00000  Uiso   1.00
C704   C     0.16751   0.83176   0.11625   0.00000  Uiso   1.00
C705   C     0.14189   0.80258   0.40580   0.00000  Uiso   1.00
C706   C     0.19269   0.86246   0.09413   0.00000  Uiso   1.00
C707   C     0.14254   0.80121   0.45222   0.00000  Uiso   1.00
C708   C     0.19314   0.86263   0.04767   0.00000  Uiso   1.00
C709   C     0.16790   0.83196   0.47657   0.00000  Uiso   1.00
C710   C     0.16807   0.83155   0.02333   0.00000  Uiso   1.00
C711   C     0.19299   0.86322   0.45416   0.00000  Uiso   1.00
C712   C     0.14299   0.80027   0.04574   0.00000  Uiso   1.00
C713   C     0.11817   0.76985   0.47469   0.00000  Uiso   1.00
C714   C     0.21805   0.89341   0.02519   0.00000  Uiso   1.00
Cu715  Cu    0.16667   0.88022   0.25000   0.00000  Uiso   1.00
Cu716  Cu    0.16667   0.78645   0.25000   0.00000  Uiso   1.00
H717   H     0.21202   0.88680   0.38994   0.00000  Uiso   1.00
H718   H     0.12353   0.77707   0.10989   0.00000  Uiso   1.00
H719   H     0.12240   0.77923   0.38672   0.00000  Uiso   1.00
H720   H     0.21178   0.88622   0.11319   0.00000  Uiso   1.00
H721   H     0.09880   0.74591   0.45626   0.00000  Uiso   1.00
H722   H     0.23741   0.91738   0.04362   0.00000  Uiso   1.00
H723   H     0.09922   0.74507   0.03812   0.00000  Uiso   1.00
H724   H     0.23744   0.91771   0.46178   0.00000  Uiso   1.00
N725   N     0.16667   0.95069   0.25000   0.00000  Uiso   1.00
N726   N     0.16667   0.71598   0.25000   0.00000  Uiso   1.00
O727   O     0.10655   0.87291   0.24999   0.00000  Uiso   1.00
O728   O     0.22679   0.79375   0.25000   0.00000  Uiso   1.00
O729   O     0.22679   0.87291   0.25000   0.00000  Uiso   1.00
O730   O     0.10655   0.79375   0.24999   0.00000  Uiso   1.00
O731   O     0.16666   0.87293   0.18513   0.00000  Uiso   1.00
O732   O     0.16668   0.79373   0.31487   0.00000  Uiso   1.00
O733   O     0.16668   0.87293   0.31487   0.00000  Uiso   1.00
O734   O     0.16666   0.79373   0.18513   0.00000  Uiso   1.00
O735   O     0.04241   0.75218   0.22292   0.00000  Uiso   1.00
C736   C     0.05445   0.75323   0.17756   0.00000  Uiso   1.00
H737   H     0.08024   0.72876   0.17319   0.00000  Uiso   1.00
H738   H     0.06600   0.78746   0.16755   0.00000  Uiso   1.00
C739   C     0.01998   0.73786   0.14633   0.00000  Uiso   1.00
H740   H     0.32887   0.76452   0.14580   0.00000  Uiso   1.00
H741   H     0.03201   0.73265   0.11188   0.00000  Uiso   1.00
H742   H     0.00687   0.70507   0.15755   0.00000  Uiso   1.00
O743   O     0.29161   0.91478   0.22943   0.00000  Uiso   1.00
C744   C     0.28405   0.91521   0.18279   0.00000  Uiso   1.00
H745   H     0.25998   0.94131   0.17694   0.00000  Uiso   1.00
H746   H     0.27193   0.88192   0.16911   0.00000  Uiso   1.00
C747   C     0.32209   0.92876   0.15687   0.00000  Uiso   1.00
H748   H     0.01132   0.90003   0.15599   0.00000  Uiso   1.00
H749   H     0.31359   0.93669   0.12199   0.00000  Uiso   1.00
H750   H     0.00300   0.95953   0.17292   0.00000  Uiso   1.00
O751   O     0.29347   0.74997   0.23182   0.00000  Uiso   1.00
C752   C     0.29617   0.72590   0.27185   0.00000  Uiso   1.00
H753   H     0.27690   0.74301   0.29781   0.00000  Uiso   1.00
H754   H     0.32797   0.72386   0.28505   0.00000  Uiso   1.00
C755   C     0.28180   0.67739   0.26236   0.00000  Uiso   1.00
H756   H     0.30684   0.99255   0.24430   0.00000  Uiso   1.00
H757   H     0.27470   0.99329   0.29386   0.00000  Uiso   1.00
H758   H     0.25416   0.67723   0.24098   0.00000  Uiso   1.00
O759   O     0.03776   0.91835   0.25445   0.00000  Uiso   1.00
C760   C     0.04774   0.92571   0.30010   0.00000  Uiso   1.00
H761   H     0.07145   0.95262   0.30127   0.00000  Uiso   1.00
H762   H     0.06061   0.89451   0.31598   0.00000  Uiso   1.00
C763   C     0.01184   0.94403   0.32785   0.00000  Uiso   1.00
H764   H     0.31722   0.92356   0.32140   0.00000  Uiso   1.00
H765   H     0.01952   0.94219   0.36389   0.00000  Uiso   1.00
H766   H     0.00635   0.98067   0.32053   0.00000  Uiso   1.00
O767   O     0.16300   0.70857   0.17086   0.00000  Uiso   1.00
C768   C     0.20524   0.70507   0.16016   0.00000  Uiso   1.00
H769   H     0.21782   0.67016   0.16647   0.00000  Uiso   1.00
H770   H     0.22317   0.73045   0.18041   0.00000  Uiso   1.00
C771   C     0.21220   0.71391   0.11088   0.00000  Uiso   1.00
H772   H     0.21128   0.75129   0.10492   0.00000  Uiso   1.00
H773   H     0.24290   0.70089   0.10078   0.00000  Uiso   1.00
H774   H     0.18882   0.69614   0.08992   0.00000  Uiso   1.00
O775   O     0.18015   0.95608   0.32855   0.00000  Uiso   1.00
C776   C     0.14251   0.96235   0.35196   0.00000  Uiso   1.00
H777   H     0.12242   0.93289   0.34398   0.00000  Uiso   1.00
H778   H     0.12556   0.99438   0.34318   0.00000  Uiso   1.00
C779   C     0.14911   0.96355   0.40265   0.00000  Uiso   1.00
H780   H     0.13516   0.99521   0.41796   0.00000  Uiso   1.00
H781   H     0.13419   0.93359   0.41791   0.00000  Uiso   1.00
H782   H     0.18203   0.96308   0.41135   0.00000  Uiso   1.00
O783   O     0.20793   0.71887   0.31346   0.00000  Uiso   1.00
C784   C     0.20958   0.70754   0.35881   0.00000  Uiso   1.00
H785   H     0.22382   0.67326   0.36314   0.00000  Uiso   1.00
H786   H     0.17877   0.71088   0.37391   0.00000  Uiso   1.00
C787   C     0.23758   0.74114   0.38378   0.00000  Uiso   1.00
H788   H     0.23173   0.77694   0.37357   0.00000  Uiso   1.00
H789   H     0.23253   0.73898   0.42035   0.00000  Uiso   1.00
H790   H     0.27004   0.73248   0.37655   0.00000  Uiso   1.00
O791   O     0.12397   0.95213   0.18622   0.00000  Uiso   1.00
C792   C     0.13362   0.95249   0.14013   0.00000  Uiso   1.00
H793   H     0.12925   0.91698   0.12671   0.00000  Uiso   1.00
H794   H     0.16573   0.96127   0.13262   0.00000  Uiso   1.00
C795   C     0.10336   0.98195   0.11440   0.00000  Uiso   1.00
H796   H     0.11070   0.68561   0.11763   0.00000  Uiso   1.00
H797   H     0.10482   0.97223   0.07829   0.00000  Uiso   1.00
H798   H     0.07177   0.97627   0.12641   0.00000  Uiso   1.00
C799   C     0.42083   0.83357   0.24869   0.00000  Uiso   1.00
C800   C     0.57908   0.83305   0.24718   0.00000  Uiso   1.00
C801   C     0.45174   0.76937   0.02125   0.00000  Uiso   1.00
C802   C     0.55141   0.89360   0.47864   0.00000  Uiso   1.00
C803   C     0.35531   0.79264   0.23454   0.00000  Uiso   1.00
C804   C     0.64482   0.87445   0.23966   0.00000  Uiso   1.00
C805   C     0.64620   0.79144   0.23805   0.00000  Uiso   1.00
C806   C     0.35323   0.87561   0.24823   0.00000  Uiso   1.00
C807   C     0.62378   0.83272   0.24196   0.00000  Uiso   1.00
C808   C     0.37608   0.83403   0.24477   0.00000  Uiso   1.00
C809   C     0.49100   0.68974   0.21216   0.00000  Uiso   1.00
C810   C     0.51070   0.97697   0.28775   0.00000  Uiso   1.00
C811   C     0.51448   0.69340   0.28626   0.00000  Uiso   1.00
C812   C     0.48593   0.97402   0.21378   0.00000  Uiso   1.00
C813   C     0.50013   0.83279   0.16459   0.00000  Uiso   1.00
C814   C     0.49975   0.83378   0.33541   0.00000  Uiso   1.00
C815   C     0.52562   0.86370   0.40764   0.00000  Uiso   1.00
C816   C     0.47617   0.80068   0.09228   0.00000  Uiso   1.00
C817   C     0.49957   0.83417   0.38374   0.00000  Uiso   1.00
C818   C     0.50085   0.83176   0.11625   0.00000  Uiso   1.00
C819   C     0.47523   0.80258   0.40580   0.00000  Uiso   1.00
C820   C     0.52602   0.86246   0.09413   0.00000  Uiso   1.00
C821   C     0.47587   0.80121   0.45222   0.00000  Uiso   1.00
C822   C     0.52647   0.86263   0.04767   0.00000  Uiso   1.00
C823   C     0.50123   0.83196   0.47657   0.00000  Uiso   1.00
C824   C     0.50141   0.83155   0.02333   0.00000  Uiso   1.00
C825   C     0.52632   0.86322   0.45416   0.00000  Uiso   1.00
C826   C     0.47633   0.80027   0.04574   0.00000  Uiso   1.00
C827   C     0.45150   0.76985   0.47469   0.00000  Uiso   1.00
C828   C     0.55139   0.89341   0.02519   0.00000  Uiso   1.00
Cu829  Cu    0.50000   0.88022   0.25000   0.00000  Uiso   1.00
Cu830  Cu    0.50000   0.78645   0.25000   0.00000  Uiso   1.00
H831   H     0.54536   0.88680   0.38994   0.00000  Uiso   1.00
H832   H     0.45687   0.77707   0.10989   0.00000  Uiso   1.00
H833   H     0.45573   0.77923   0.38672   0.00000  Uiso   1.00
H834   H     0.54512   0.88622   0.11319   0.00000  Uiso   1.00
H835   H     0.43213   0.74591   0.45626   0.00000  Uiso   1.00
H836   H     0.57074   0.91738   0.04362   0.00000  Uiso   1.00
H837   H     0.43256   0.74507   0.03812   0.00000  Uiso   1.00
H838   H     0.57078   0.91771   0.46178   0.00000  Uiso   1.00
N839   N     0.50000   0.95069   0.25000   0.00000  Uiso   1.00
N840   N     0.50000   0.71598   0.25000   0.00000  Uiso   1.00
O841   O     0.43988   0.87291   0.24999   0.00000  Uiso   1.00
O842   O     0.56012   0.79375   0.25000   0.00000  Uiso   1.00
O843   O     0.56012   0.87291   0.25000   0.00000  Uiso   1.00
O844   O     0.43988   0.79375   0.24999   0.00000  Uiso   1.00
O845   O     0.49999   0.87293   0.18513   0.00000  Uiso   1.00
O846   O     0.50001   0.79373   0.31487   0.00000  Uiso   1.00
O847   O     0.50001   0.87293   0.31487   0.00000  Uiso   1.00
O848   O     0.49999   0.79373   0.18513   0.00000  Uiso   1.00
O849   O     0.37574   0.75218   0.22292   0.00000  Uiso   1.00
C850   C     0.38778   0.75323   0.17756   0.00000  Uiso   1.00
H851   H     0.41357   0.72876   0.17319   0.00000  Uiso   1.00
H852   H     0.39934   0.78746   0.16755   0.00000  Uiso   1.00
C853   C     0.35331   0.73786   0.14633   0.00000  Uiso   1.00
H854   H     0.66221   0.76452   0.14580   0.00000  Uiso   1.00
H855   H     0.36535   0.73265   0.11188   0.00000  Uiso   1.00
H856   H     0.34020   0.70507   0.15755   0.00000  Uiso   1.00
O857   O     0.62494   0.91478   0.22943   0.00000  Uiso   1.00
C858   C     0.61739   0.91521   0.18279   0.00000  Uiso   1.00
H859   H     0.59331   0.94131   0.17694   0.00000  Uiso   1.00
H860   H     0.60526   0.88192   0.16911   0.00000  Uiso   1.00
C861   C     0.65542   0.92876   0.15687   0.00000  Uiso   1.00
H862   H     0.34465   0.90003   0.15599   0.00000  Uiso   1.00
H863   H     0.64692   0.93669   0.12199   0.00000  Uiso   1.00
H864   H     0.33634   0.95953   0.17292   0.00000  Uiso   1.00
O865   O     0.62681   0.74997   0.23182   0.00000  Uiso   1.00
C866   C     0.62950   0.72590   0.27185   0.00000  Uiso   1.00
H867   H     0.61023   0.74301   0.29781   0.00000  Uiso   1.00
H868   H     0.66130   0.72386   0.28505   0.00000  Uiso   1.00
C869   C     0.61514   0.67739   0.26236   0.00000  Uiso   1.00
H870   H     0.64017   0.99255   0.24430   0.00000  Uiso   1.00
H871   H     0.60803   0.99329   0.29386   0.00000  Uiso   1.00
H872   H     0.58749   0.67723   0.24098   0.00000  Uiso   1.00
O873   O     0.37109   0.91835   0.25445   0.00000  Uiso   1.00
C874   C     0.38108   0.92571   0.30010   0.00000  Uiso   1.00
H875   H     0.40478   0.95262   0.30127   0.00000  Uiso   1.00
H876   H     0.39394   0.89451   0.31598   0.00000  Uiso   1.00
C877   C     0.34517   0.94403   0.32785   0.00000  Uiso   1.00
H878   H     0.65055   0.92356   0.32140   0.00000  Uiso   1.00
H879   H     0.35285   0.94219   0.36389   0.00000  Uiso   1.00
H880   H     0.33968   0.98067   0.32053   0.00000  Uiso   1.00
O881   O     0.49633   0.70857   0.17086   0.00000  Uiso   1.00
C882   C     0.53857   0.70507   0.16016   0.00000  Uiso   1.00
H883   H     0.55115   0.67016   0.16647   0.00000  Uiso   1.00
H884   H     0.55650   0.73045   0.18041   0.00000  Uiso   1.00
C885   C     0.54553   0.71391   0.11088   0.00000  Uiso   1.00
H886   H     0.54461   0.75129   0.10492   0.00000  Uiso   1.00
H887   H     0.57623   0.70089   0.10078   0.00000  Uiso   1.00
H888   H     0.52215   0.69614   0.08992   0.00000  Uiso   1.00
O889   O     0.51348   0.95608   0.32855   0.00000  Uiso   1.00
C890   C     0.47585   0.96235   0.35196   0.00000  Uiso   1.00
H891   H     0.45575   0.93289   0.34398   0.00000  Uiso   1.00
H892   H     0.45890   0.99438   0.34318   0.00000  Uiso   1.00
C893   C     0.48244   0.96355   0.40265   0.00000  Uiso   1.00
H894   H     0.46850   0.99521   0.41796   0.00000  Uiso   1.00
H895   H     0.46752   0.93359   0.41791   0.00000  Uiso   1.00
H896   H     0.51537   0.96308   0.41135   0.00000  Uiso   1.00
O897   O     0.54126   0.71887   0.31346   0.00000  Uiso   1.00
C898   C     0.54291   0.70754   0.35881   0.00000  Uiso   1.00
H899   H     0.55715   0.67326   0.36314   0.00000  Uiso   1.00
H900   H     0.51210   0.71088   0.37391   0.00000  Uiso   1.00
C901   C     0.57091   0.74114   0.38378   0.00000  Uiso   1.00
H902   H     0.56506   0.77694   0.37357   0.00000  Uiso   1.00
H903   H     0.56586   0.73898   0.42035   0.00000  Uiso   1.00
H904   H     0.60337   0.73248   0.37655   0.00000  Uiso   1.00
O905   O     0.45730   0.95213   0.18622   0.00000  Uiso   1.00
C906   C     0.46695   0.95249   0.14013   0.00000  Uiso   1.00
H907   H     0.46259   0.91698   0.12671   0.00000  Uiso   1.00
H908   H     0.49906   0.96127   0.13262   0.00000  Uiso   1.00
C909   C     0.43669   0.98195   0.11440   0.00000  Uiso   1.00
H910   H     0.44403   0.68561   0.11763   0.00000  Uiso   1.00
H911   H     0.43815   0.97223   0.07829   0.00000  Uiso   1.00
H912   H     0.40511   0.97627   0.12641   0.00000  Uiso   1.00
C913   C     0.75416   0.83357   0.24869   0.00000  Uiso   1.00
C914   C     0.91242   0.83305   0.24718   0.00000  Uiso   1.00
C915   C     0.78507   0.76937   0.02125   0.00000  Uiso   1.00
C916   C     0.88475   0.89360   0.47864   0.00000  Uiso   1.00
C917   C     0.68864   0.79264   0.23454   0.00000  Uiso   1.00
C918   C     0.97816   0.87445   0.23966   0.00000  Uiso   1.00
C919   C     0.97954   0.79144   0.23805   0.00000  Uiso   1.00
C920   C     0.68656   0.87561   0.24823   0.00000  Uiso   1.00
C921   C     0.95712   0.83272   0.24196   0.00000  Uiso   1.00
C922   C     0.70942   0.83403   0.24477   0.00000  Uiso   1.00
C923   C     0.82434   0.68974   0.21216   0.00000  Uiso   1.00
C924   C     0.84403   0.97697   0.28775   0.00000  Uiso   1.00
C925   C     0.84782   0.69340   0.28626   0.00000  Uiso   1.00
C926   C     0.81926   0.97402   0.21378   0.00000  Uiso   1.00
C927   C     0.83347   0.83279   0.16459   0.00000  Uiso   1.00
C928   C     0.83308   0.83378   0.33541   0.00000  Uiso   1.00
C929   C     0.85895   0.86370   0.40764   0.00000  Uiso   1.00
C930   C     0.80950   0.80068   0.09228   0.00000  Uiso   1.00
C931   C     0.83290   0.83417   0.38374   0.00000  Uiso   1.00
C932   C     0.83418   0.83176   0.11625   0.00000  Uiso   1.00
C933   C     0.80856   0.80258   0.40580   0.00000  Uiso   1.00
C934   C     0.85935   0.86246   0.09413   0.00000  Uiso   1.00
C935   C     0.80920   0.80121   0.45222   0.00000  Uiso   1.00
C936   C     0.85981   0.86263   0.04767   0.00000  Uiso   1.00
C937   C     0.83457   0.83196   0.47657   0.00000  Uiso   1.00
C938   C     0.83474   0.83155   0.02333   0.00000  Uiso   1.00
C939   C     0.85965   0.86322   0.45416   0.00000  Uiso   1.00
C940   C     0.80966   0.80027   0.04574   0.00000  Uiso   1.00
C941   C     0.78484   0.76985   0.47469   0.00000  Uiso   1.00
C942   C     0.88472   0.89341   0.02519   0.00000  Uiso   1.00
Cu943  Cu    0.83333   0.88022   0.25000   0.00000  Uiso   1.00
Cu944  Cu    0.83333   0.78645   0.25000   0.00000  Uiso   1.00
H945   H     0.87869   0.88680   0.38994   0.00000  Uiso   1.00
H946   H     0.79020   0.77707   0.10989   0.00000  Uiso   1.00
H947   H     0.78906   0.77923   0.38672   0.00000  Uiso   1.00
H948   H     0.87845   0.88622   0.11319   0.00000  Uiso   1.00
H949   H     0.76547   0.74591   0.45626   0.00000  Uiso   1.00
H950   H     0.90407   0.91738   0.04362   0.00000  Uiso   1.00
H951   H     0.76589   0.74507   0.03812   0.00000  Uiso   1.00
H952   H     0.90411   0.91771   0.46178   0.00000  Uiso   1.00
N953   N     0.83333   0.95069   0.25000   0.00000  Uiso   1.00
N954   N     0.83333   0.71598   0.25000   0.00000  Uiso   1.00
O955   O     0.77321   0.87291   0.24999   0.00000  Uiso   1.00
O956   O     0.89345   0.79375   0.25000   0.00000  Uiso   1.00
O957   O     0.89345   0.87291   0.25000   0.00000  Uiso   1.00
O958   O     0.77321   0.79375   0.24999   0.00000  Uiso   1.00
O959   O     0.83332   0.87293   0.18513   0.00000  Uiso   1.00
O960   O     0.83334   0.79373   0.31487   0.00000  Uiso   1.00
O961   O     0.83334   0.87293   0.31487   0.00000  Uiso   1.00
O962   O     0.83332   0.79373   0.18513   0.00000  Uiso   1.00
O963   O     0.70908   0.75218   0.22292   0.00000  Uiso   1.00
C964   C     0.72111   0.75323   0.17756   0.00000  Uiso   1.00
H965   H     0.74690   0.72876   0.17319   0.00000  Uiso   1.00
H966   H     0.73267   0.78746   0.16755   0.00000  Uiso   1.00
C967   C     0.68664   0.73786   0.14633   0.00000  Uiso   1.00
H968   H     0.99554   0.76452   0.14580   0.00000  Uiso   1.00
H969   H     0.69868   0.73265   0.11188   0.00000  Uiso   1.00
H970   H     0.67353   0.70507   0.15755   0.00000  Uiso   1.00
O971   O     0.95828   0.91478   0.22943   0.00000  Uiso   1.00
C972   C     0.95072   0.91521   0.18279   0.00000  Uiso   1.00
H973   H     0.92665   0.94131   0.17694   0.00000  Uiso   1.00
H974   H     0.93860   0.88192   0.16911   0.00000  Uiso   1.00
C975   C     0.98876   0.92876   0.15687   0.00000  Uiso   1.00
H976   H     0.67798   0.90003   0.15599   0.00000  Uiso   1.00
H977   H     0.98026   0.93669   0.12199   0.00000  Uiso   1.00
H978   H     0.66967   0.95953   0.17292   0.00000  Uiso   1.00
O979   O     0.96014   0.74997   0.23182   0.00000  Uiso   1.00
C980   C     0.96284   0.72590   0.27185   0.00000  Uiso   1.00
H981   H     0.94357   0.74301   0.29781   0.00000  Uiso   1.00
H982   H     0.99463   0.72386   0.28505   0.00000  Uiso   1.00
C983   C     0.94847   0.67739   0.26236   0.00000  Uiso   1.00
H984   H     0.97351   0.99255   0.24430   0.00000  Uiso   1.00
H985   H     0.94136   0.99329   0.29386   0.00000  Uiso   1.00
H986   H     0.92082   0.67723   0.24098   0.00000  Uiso   1.00
O987   O     0.70443   0.91835   0.25445   0.00000  Uiso   1.00
C988   C     0.71441   0.92571   0.30010   0.00000  Uiso   1.00
H989   H     0.73811   0.95262   0.30127   0.00000  Uiso   1.00
H990   H     0.72727   0.89451   0.31598   0.00000  Uiso   1.00
C991   C     0.67851   0.94403   0.32785   0.00000  Uiso   1.00
H992   H     0.98388   0.92356   0.32140   0.00000  Uiso   1.00
H993   H     0.68619   0.94219   0.36389   0.00000  Uiso   1.00
H994   H     0.67302   0.98067   0.32053   0.00000  Uiso   1.00
O995   O     0.82967   0.70857   0.17086   0.00000  Uiso   1.00
C996   C     0.87191   0.70507   0.16016   0.00000  Uiso   1.00
H997   H     0.88448   0.67016   0.16647   0.00000  Uiso   1.00
H998   H     0.88984   0.73045   0.18041   0.00000  Uiso   1.00
C999   C     0.87887   0.71391   0.11088   0.00000  Uiso   1.00
H1000  H     0.87794   0.75129   0.10492   0.00000  Uiso   1.00
H1001  H     0.90956   0.70089   0.10078   0.00000  Uiso   1.00
H1002  H     0.85549   0.69614   0.08992   0.00000  Uiso   1.00
O1003  O     0.84681   0.95608   0.32855   0.00000  Uiso   1.00
C1004  C     0.80918   0.96235   0.35196   0.00000  Uiso   1.00
H1005  H     0.78909   0.93289   0.34398   0.00000  Uiso   1.00
H1006  H     0.79223   0.99438   0.34318   0.00000  Uiso   1.00
C1007  C     0.81578   0.96355   0.40265   0.00000  Uiso   1.00
H1008  H     0.80183   0.99521   0.41796   0.00000  Uiso   1.00
H1009  H     0.80085   0.93359   0.41791   0.00000  Uiso   1.00
H1010  H     0.84870   0.96308   0.41135   0.00000  Uiso   1.00
O1011  O     0.87460   0.71887   0.31346   0.00000  Uiso   1.00
C1012  C     0.87625   0.70754   0.35881   0.00000  Uiso   1.00
H1013  H     0.89049   0.67326   0.36314   0.00000  Uiso   1.00
H1014  H     0.84544   0.71088   0.37391   0.00000  Uiso   1.00
C1015  C     0.90425   0.74114   0.38378   0.00000  Uiso   1.00
H1016  H     0.89840   0.77694   0.37357   0.00000  Uiso   1.00
H1017  H     0.89919   0.73898   0.42035   0.00000  Uiso   1.00
H1018  H     0.93671   0.73248   0.37655   0.00000  Uiso   1.00
O1019  O     0.79064   0.95213   0.18622   0.00000  Uiso   1.00
C1020  C     0.80028   0.95249   0.14013   0.00000  Uiso   1.00
H1021  H     0.79592   0.91698   0.12671   0.00000  Uiso   1.00
H1022  H     0.83240   0.96127   0.13262   0.00000  Uiso   1.00
C1023  C     0.77002   0.98195   0.11440   0.00000  Uiso   1.00
H1024  H     0.77737   0.68561   0.11763   0.00000  Uiso   1.00
H1025  H     0.77148   0.97223   0.07829   0.00000  Uiso   1.00
H1026  H     0.73844   0.97627   0.12641   0.00000  Uiso   1.00
C1027  C     0.08750   0.16690   0.74869   0.00000  Uiso   1.00
C1028  C     0.24575   0.16638   0.74718   0.00000  Uiso   1.00
C1029  C     0.11840   0.10271   0.52125   0.00000  Uiso   1.00
C1030  C     0.21808   0.22693   0.97864   0.00000  Uiso   1.00
C1031  C     0.02197   0.12598   0.73454   0.00000  Uiso   1.00
C1032  C     0.31149   0.20778   0.73966   0.00000  Uiso   1.00
C1033  C     0.31287   0.12477   0.73805   0.00000  Uiso   1.00
C1034  C     0.01989   0.20894   0.74823   0.00000  Uiso   1.00
C1035  C     0.29045   0.16605   0.74196   0.00000  Uiso   1.00
C1036  C     0.04275   0.16737   0.74477   0.00000  Uiso   1.00
C1037  C     0.15767   0.02307   0.71216   0.00000  Uiso   1.00
C1038  C     0.17736   0.31031   0.78775   0.00000  Uiso   1.00
C1039  C     0.18115   0.02673   0.78626   0.00000  Uiso   1.00
C1040  C     0.15259   0.30735   0.71378   0.00000  Uiso   1.00
C1041  C     0.16680   0.16612   0.66459   0.00000  Uiso   1.00
C1042  C     0.16641   0.16711   0.83541   0.00000  Uiso   1.00
C1043  C     0.19229   0.19703   0.90764   0.00000  Uiso   1.00
C1044  C     0.14283   0.13401   0.59228   0.00000  Uiso   1.00
C1045  C     0.16624   0.16750   0.88374   0.00000  Uiso   1.00
C1046  C     0.16751   0.16510   0.61625   0.00000  Uiso   1.00
C1047  C     0.14189   0.13591   0.90580   0.00000  Uiso   1.00
C1048  C     0.19269   0.19579   0.59413   0.00000  Uiso   1.00
C1049  C     0.14254   0.13454   0.95222   0.00000  Uiso   1.00
C1050  C     0.19314   0.19596   0.54767   0.00000  Uiso   1.00
C1051  C     0.16790   0.16529   0.97657   0.00000  Uiso   1.00
C1052  C     0.16807   0.16488   0.52333   0.00000  Uiso   1.00
C1053  C     0.19299   0.19656   0.95416   0.00000  Uiso   1.00
C1054  C     0.14299   0.13360   0.54574   0.00000  Uiso   1.00
C1055  C     0.11817   0.10319   0.97469   0.00000  Uiso   1.00
C1056  C     0.21805   0.22674   0.52519   0.00000  Uiso   1.00
Cu1057 Cu    0.16667   0.21355   0.75000   0.00000  Uiso   1.00
Cu1058 Cu    0.16667   0.11978   0.75000   0.00000  Uiso   1.00
H1059  H     0.21202   0.22014   0.88994   0.00000  Uiso   1.00
H1060  H     0.12353   0.11040   0.60989   0.00000  Uiso   1.00
H1061  H     0.12240   0.11257   0.88672   0.00000  Uiso   1.00
H1062  H     0.21178   0.21955   0.61319   0.00000  Uiso   1.00
H1063  H     0.09880   0.07924   0.95626   0.00000  Uiso   1.00
H1064  H     0.23741   0.25071   0.54362   0.00000  Uiso   1.00
H1065  H     0.09922   0.07841   0.53812   0.00000  Uiso   1.00
H1066  H     0.23744   0.25104   0.96178   0.00000  Uiso   1.00
N1067  N     0.16667   0.28402   0.75000   0.00000  Uiso   1.00
N1068  N     0.16667   0.04931   0.75000   0.00000  Uiso   1.00
O1069  O     0.10655   0.20625   0.74999   0.00000  Uiso   1.00
O1070  O     0.22679   0.12709   0.75000   0.00000  Uiso   1.00
O1071  O     0.22679   0.20625   0.75000   0.00000  Uiso   1.00
O1072  O     0.10655   0.12709   0.74999   0.00000  Uiso   1.00
O1073  O     0.16666   0.20627   0.68513   0.00000  Uiso   1.00
O1074  O     0.16668   0.12707   0.81487   0.00000  Uiso   1.00
O1075  O     0.16668   0.20627   0.81487   0.00000  Uiso   1.00
O1076  O     0.16666   0.12707   0.68513   0.00000  Uiso   1.00
O1077  O     0.04241   0.08551   0.72292   0.00000  Uiso   1.00
C1078  C     0.05445   0.08657   0.67756   0.00000  Uiso   1.00
H1079  H     0.08024   0.06209   0.67319   0.00000  Uiso   1.00
H1080  H     0.06600   0.12080   0.66755   0.00000  Uiso   1.00
C1081  C     0.01998   0.07119   0.64633   0.00000  Uiso   1.00
H1082  H     0.32887   0.09786   0.64580   0.00000  Uiso   1.00
H1083  H     0.03201   0.06598   0.61188   0.00000  Uiso   1.00
H1084  H     0.00687   0.03840   0.65755   0.00000  Uiso   1.00
O1085  O     0.29161   0.24811   0.72943   0.00000  Uiso   1.00
C1086  C     0.28405   0.24854   0.68279   0.00000  Uiso   1.00
H1087  H     0.25998   0.27464   0.67694   0.00000  Uiso   1.00
H1088  H     0.27193   0.21525   0.66911   0.00000  Uiso   1.00
C1089  C     0.32209   0.26210   0.65687   0.00000  Uiso   1.00
H1090  H     0.01132   0.23337   0.65599   0.00000  Uiso   1.00
H1091  H     0.31359   0.27003   0.62199   0.00000  Uiso   1.00
H1092  H     0.00300   0.29287   0.67292   0.00000  Uiso   1.00
O1093  O     0.29347   0.08331   0.73182   0.00000  Uiso   1.00
C1094  C     0.29617   0.05924   0.77185   0.00000  Uiso   1.00
H1095  H     0.27690   0.07634   0.79781   0.00000  Uiso   1.00
H1096  H     0.32797   0.05720   0.78505   0.00000  Uiso   1.00
C1097  C     0.28180   0.01072   0.76236   0.00000  Uiso   1.00
H1098  H     0.30684   0.32588   0.74430   0.00000  Uiso   1.00
H1099  H     0.27470   0.32662   0.79386   0.00000  Uiso   1.00
H1100  H     0.25416   0.01056   0.74098   0.00000  Uiso   1.00
O1101  O     0.03776   0.25168   0.75445   0.00000  Uiso   1.00
C1102  C     0.04774   0.25904   0.80010   0.00000  Uiso   1.00
H1103  H     0.07145   0.28595   0.80127   0.00000  Uiso   1.00
H1104  H     0.06061   0.22784   0.81598   0.00000  Uiso   1.00
C1105  C     0.01184   0.27736   0.82785   0.00000  Uiso   1.00
H1106  H     0.31722   0.25689   0.82140   0.00000  Uiso   1.00
H1107  H     0.01952   0.27553   0.86389   0.00000  Uiso   1.00
H1108  H     0.00635   0.31400   0.82053   0.00000  Uiso   1.00
O1109  O     0.16300   0.04190   0.67086   0.00000  Uiso   1.00
C1110  C     0.20524   0.03840   0.66016   0.00000  Uiso   1.00
H1111  H     0.21782   0.00349   0.66647   0.00000  Uiso   1.00
H1112  H     0.22317   0.06378   0.68041   0.00000  Uiso   1.00
C1113  C     0.21220   0.04724   0.61088   0.00000  Uiso   1.00
H1114  H     0.21128   0.08462   0.60492   0.00000  Uiso   1.00
H1115  H     0.24290   0.03422   0.60078   0.00000  Uiso   1.00
H1116  H     0.18882   0.02948   0.58992   0.00000  Uiso   1.00
O1117  O     0.18015   0.28941   0.82855   0.00000  Uiso   1.00
C1118  C     0.14251   0.29568   0.85196   0.00000  Uiso   1.00
H1119  H     0.12242   0.26622   0.84398   0.00000  Uiso   1.00
H1120  H     0.12556   0.32772   0.84318   0.00000  Uiso   1.00
C1121  C     0.14911   0.29688   0.90265   0.00000  Uiso   1.00
H1122  H     0.13516   0.32854   0.91796   0.00000  Uiso   1.00
H1123  H     0.13419   0.26693   0.91791   0.00000  Uiso   1.00
H1124  H     0.18203   0.29641   0.91135   0.00000  Uiso   1.00
O1125  O     0.20793   0.05220   0.81346   0.00000  Uiso   1.00
C1126  C     0.20958   0.04087   0.85881   0.00000  Uiso   1.00
H1127  H     0.22382   0.00660   0.86314   0.00000  Uiso   1.00
H1128  H     0.17877   0.04421   0.87391   0.00000  Uiso   1.00
C1129  C     0.23758   0.07448   0.88378   0.00000  Uiso   1.00
H1130  H     0.23173   0.11027   0.87357   0.00000  Uiso   1.00
H1131  H     0.23253   0.07232   0.92035   0.00000  Uiso   1.00
H1132  H     0.27004   0.06581   0.87655   0.00000  Uiso   1.00
O1133  O     0.12397   0.28547   0.68622   0.00000  Uiso   1.00
C1134  C     0.13362   0.28582   0.64013   0.00000  Uiso   1.00
H1135  H     0.12925   0.25032   0.62671   0.00000  Uiso   1.00
H1136  H     0.16573   0.29460   0.63262   0.00000  Uiso   1.00
C1137  C     0.10336   0.31529   0.61440   0.00000  Uiso   1.00
H1138  H     0.11070   0.01894   0.61763   0.00000  Uiso   1.00
H1139  H     0.10482   0.30556   0.57829   0.00000  Uiso   1.00
H1140  H     0.07177   0.30961   0.62641   0.00000  Uiso   1.00
C1141  C     0.42083   0.16690   0.74869   0.00000  Uiso   1.00
C1142  C     0.57908   0.16638   0.74718   0.00000  Uiso   1.00
C1143  C     0.45174   0.10271   0.52125   0.00000  Uiso   1.00
C1144  C     0.55141   0.22693   0.97864   0.00000  Uiso   1.00
C1145  C     0.35531   0.12598   0.73454   0.00000  Uiso   1.00
C1146  C     0.64482   0.20778   0.73966   0.00000  Uiso   1.00
C1147  C     0.64620   0.12477   0.73805   0.00000  Uiso   1.00
C1148  C     0.35323   0.20894   0.74823   0.00000  Uiso   1.00
C1149  C     0.62378   0.16605   0.74196   0.00000  Uiso   1.00
C1150  C     0.37608   0.16737   0.74477   0.00000  Uiso   1.00
C1151  C     0.49100   0.02307   0.71216   0.00000  Uiso   1.00
C1152  C     0.51070   0.31031   0.78775   0.00000  Uiso   1.00
C1153  C     0.51448   0.02673   0.78626   0.00000  Uiso   1.00
C1154  C     0.48593   0.30735   0.71378   0.00000  Uiso   1.00
C1155  C     0.50013   0.16612   0.66459   0.00000  Uiso   1.00
C1156  C     0.49975   0.16711   0.83541   0.00000  Uiso   1.00
C1157  C     0.52562   0.19703   0.90764   0.00000  Uiso   1.00
C1158  C     0.47617   0.13401   0.59228   0.00000  Uiso   1.00
C1159  C     0.49957   0.16750   0.88374   0.00000  Uiso   1.00
C1160  C     0.50085   0.16510   0.61625   0.00000  Uiso   1.00
C1161  C     0.47523   0.13591   0.90580   0.00000  Uiso   1.00
C1162  C     0.52602   0.19579   0.59413   0.00000  Uiso   1.00
C1163  C     0.47587   0.13454   0.95222   0.00000  Uiso   1.00
C1164  C     0.52647   0.19596   0.54767   0.00000  Uiso   1.00
C1165  C     0.50123   0.16529   0.97657   0.00000  Uiso   1.00
C1166  C     0.50141   0.16488   0.52333   0.00000  Uiso   1.00
C1167  C     0.52632   0.19656   0.95416   0.00000  Uiso   1.00
C1168  C     0.47633   0.13360   0.54574   0.00000  Uiso   1.00
C1169  C     0.45150   0.10319   0.97469   0.00000  Uiso   1.00
C1170  C     0.55139   0.22674   0.52519   0.00000  Uiso   1.00
Cu1171 Cu    0.50000   0.21355   0.75000   0.00000  Uiso   1.00
Cu1172 Cu    0.50000   0.11978   0.75000   0.00000  Uiso   1.00
H1173  H     0.54536   0.22014   0.88994   0.00000  Uiso   1.00
H1174  H     0.45687   0.11040   0.60989   0.00000  Uiso   1.00
H1175  H     0.45573   0.11257   0.88672   0.00000  Uiso   1.00
H1176  H     0.54512   0.21955   0.61319   0.00000  Uiso   1.00
H1177  H     0.43213   0.07924   0.95626   0.00000  Uiso   1.00
H1178  H     0.57074   0.25071   0.54362   0.00000  Uiso   1.00
H1179  H     0.43256   0.07841   0.53812   0.00000  Uiso   1.00
H1180  H     0.57078   0.25104   0.96178   0.00000  Uiso   1.00
N1181  N     0.50000   0.28402   0.75000   0.00000  Uiso   1.00
N1182  N     0.50000   0.04931   0.75000   0.00000  Uiso   1.00
O1183  O     0.43988   0.20625   0.74999   0.00000  Uiso   1.00
O1184  O     0.56012   0.12709   0.75000   0.00000  Uiso   1.00
O1185  O     0.56012   0.20625   0.75000   0.00000  Uiso   1.00
O1186  O     0.43988   0.12709   0.74999   0.00000  Uiso   1.00
O1187  O     0.49999   0.20627   0.68513   0.00000  Uiso   1.00
O1188  O     0.50001   0.12707   0.81487   0.00000  Uiso   1.00
O1189  O     0.50001   0.20627   0.81487   0.00000  Uiso   1.00
O1190  O     0.49999   0.12707   0.68513   0.00000  Uiso   1.00
O1191  O     0.37574   0.08551   0.72292   0.00000  Uiso   1.00
C1192  C     0.38778   0.08657   0.67756   0.00000  Uiso   1.00
H1193  H     0.41357   0.06209   0.67319   0.00000  Uiso   1.00
H1194  H     0.39934   0.12080   0.66755   0.00000  Uiso   1.00
C1195  C     0.35331   0.07119   0.64633   0.00000  Uiso   1.00
H1196  H     0.66221   0.09786   0.64580   0.00000  Uiso   1.00
H1197  H     0.36535   0.06598   0.61188   0.00000  Uiso   1.00
H1198  H     0.34020   0.03840   0.65755   0.00000  Uiso   1.00
O1199  O     0.62494   0.24811   0.72943   0.00000  Uiso   1.00
C1200  C     0.61739   0.24854   0.68279   0.00000  Uiso   1.00
H1201  H     0.59331   0.27464   0.67694   0.00000  Uiso   1.00
H1202  H     0.60526   0.21525   0.66911   0.00000  Uiso   1.00
C1203  C     0.65542   0.26210   0.65687   0.00000  Uiso   1.00
H1204  H     0.34465   0.23337   0.65599   0.00000  Uiso   1.00
H1205  H     0.64692   0.27003   0.62199   0.00000  Uiso   1.00
H1206  H     0.33634   0.29287   0.67292   0.00000  Uiso   1.00
O1207  O     0.62681   0.08331   0.73182   0.00000  Uiso   1.00
C1208  C     0.62950   0.05924   0.77185   0.00000  Uiso   1.00
H1209  H     0.61023   0.07634   0.79781   0.00000  Uiso   1.00
H1210  H     0.66130   0.05720   0.78505   0.00000  Uiso   1.00
C1211  C     0.61514   0.01072   0.76236   0.00000  Uiso   1.00
H1212  H     0.64017   0.32588   0.74430   0.00000  Uiso   1.00
H1213  H     0.60803   0.32662   0.79386   0.00000  Uiso   1.00
H1214  H     0.58749   0.01056   0.74098   0.00000  Uiso   1.00
O1215  O     0.37109   0.25168   0.75445   0.00000  Uiso   1.00
C1216  C     0.38108   0.25904   0.80010   0.00000  Uiso   1.00
H1217  H     0.40478   0.28595   0.80127   0.00000  Uiso   1.00
H1218  H     0.39394   0.22784   0.81598   0.00000  Uiso   1.00
C1219  C     0.34517   0.27736   0.82785   0.00000  Uiso   1.00
H1220  H     0.65055   0.25689   0.82140   0.00000  Uiso   1.00
H1221  H     0.35285   0.27553   0.86389   0.00000  Uiso   1.00
H1222  H     0.33968   0.31400   0.82053   0.00000  Uiso   1.00
O1223  O     0.49633   0.04190   0.67086   0.00000  Uiso   1.00
C1224  C     0.53857   0.03840   0.66016   0.00000  Uiso   1.00
H1225  H     0.55115   0.00349   0.66647   0.00000  Uiso   1.00
H1226  H     0.55650   0.06378   0.68041   0.00000  Uiso   1.00
C1227  C     0.54553   0.04724   0.61088   0.00000  Uiso   1.00
H1228  H     0.54461   0.08462   0.60492   0.00000  Uiso   1.00
H1229  H     0.57623   0.03422   0.60078   0.00000  Uiso   1.00
H1230  H     0.52215   0.02948   0.58992   0.00000  Uiso   1.00
O1231  O     0.51348   0.28941   0.82855   0.00000  Uiso   1.00
C1232  C     0.47585   0.29568   0.85196   0.00000  Uiso   1.00
H1233  H     0.45575   0.26622   0.84398   0.00000  Uiso   1.00
H1234  H     0.45890   0.32772   0.84318   0.00000  Uiso   1.00
C1235  C     0.48244   0.29688   0.90265   0.00000  Uiso   1.00
H1236  H     0.46850   0.32854   0.91796   0.00000  Uiso   1.00
H1237  H     0.46752   0.26693   0.91791   0.00000  Uiso   1.00
H1238  H     0.51537   0.29641   0.91135   0.00000  Uiso   1.00
O1239  O     0.54126   0.05220   0.81346   0.00000  Uiso   1.00
C1240  C     0.54291   0.04087   0.85881   0.00000  Uiso   1.00
H1241  H     0.55715   0.00660   0.86314   0.00000  Uiso   1.00
H1242  H     0.51210   0.04421   0.87391   0.00000  Uiso   1.00
C1243  C     0.57091   0.07448   0.88378   0.00000  Uiso   1.00
H1244  H     0.56506   0.11027   0.87357   0.00000  Uiso   1.00
H1245  H     0.56586   0.07232   0.92035   0.00000  Uiso   1.00
H1246  H     0.60337   0.06581   0.87655   0.00000  Uiso   1.00
O1247  O     0.45730   0.28547   0.68622   0.00000  Uiso   1.00
C1248  C     0.46695   0.28582   0.64013   0.00000  Uiso   1.00
H1249  H     0.46259   0.25032   0.62671   0.00000  Uiso   1.00
H1250  H     0.49906   0.29460   0.63262   0.00000  Uiso   1.00
C1251  C     0.43669   0.31529   0.61440   0.00000  Uiso   1.00
H1252  H     0.44403   0.01894   0.61763   0.00000  Uiso   1.00
H1253  H     0.43815   0.30556   0.57829   0.00000  Uiso   1.00
H1254  H     0.40511   0.30961   0.62641   0.00000  Uiso   1.00
C1255  C     0.75416   0.16690   0.74869   0.00000  Uiso   1.00
C1256  C     0.91242   0.16638   0.74718   0.00000  Uiso   1.00
C1257  C     0.78507   0.10271   0.52125   0.00000  Uiso   1.00
C1258  C     0.88475   0.22693   0.97864   0.00000  Uiso   1.00
C1259  C     0.68864   0.12598   0.73454   0.00000  Uiso   1.00
C1260  C     0.97816   0.20778   0.73966   0.00000  Uiso   1.00
C1261  C     0.97954   0.12477   0.73805   0.00000  Uiso   1.00
C1262  C     0.68656   0.20894   0.74823   0.00000  Uiso   1.00
C1263  C     0.95712   0.16605   0.74196   0.00000  Uiso   1.00
C1264  C     0.70942   0.16737   0.74477   0.00000  Uiso   1.00
C1265  C     0.82434   0.02307   0.71216   0.00000  Uiso   1.00
C1266  C     0.84403   0.31031   0.78775   0.00000  Uiso   1.00
C1267  C     0.84782   0.02673   0.78626   0.00000  Uiso   1.00
C1268  C     0.81926   0.30735   0.71378   0.00000  Uiso   1.00
C1269  C     0.83347   0.16612   0.66459   0.00000  Uiso   1.00
C1270  C     0.83308   0.16711   0.83541   0.00000  Uiso   1.00
C1271  C     0.85895   0.19703   0.90764   0.00000  Uiso   1.00
C1272  C     0.80950   0.13401   0.59228   0.00000  Uiso   1.00
C1273  C     0.83290   0.16750   0.88374   0.00000  Uiso   1.00
C1274  C     0.83418   0.16510   0.61625   0.00000  Uiso   1.00
C1275  C     0.80856   0.13591   0.90580   0.00000  Uiso   1.00
C1276  C     0.85935   0.19579   0.59413   0.00000  Uiso   1.00
C1277  C     0.80920   0.13454   0.95222   0.00000  Uiso   1.00
C1278  C     0.85981   0.19596   0.54767   0.00000  Uiso   1.00
C1279  C     0.83457   0.16529   0.97657   0.00000  Uiso   1.00
C1280  C     0.83474   0.16488   0.52333   0.00000  Uiso   1.00
C1281  C     0.85965   0.19656   0.95416   0.00000  Uiso   1.00
C1282  C     0.80966   0.13360   0.54574   0.00000  Uiso   1.00
C1283  C     0.78484   0.10319   0.97469   0.00000  Uiso   1.00
C1284  C     0.88472   0.22674   0.52519   0.00000  Uiso   1.00
Cu1285 Cu    0.83333   0.21355   0.75000   0.00000  Uiso   1.00
Cu1286 Cu    0.83333   0.11978   0.75000   0.00000  Uiso   1.00
H1287  H     0.87869   0.22014   0.88994   0.00000  Uiso   1.00
H1288  H     0.79020   0.11040   0.60989   0.00000  Uiso   1.00
H1289  H     0.78906   0.11257   0.88672   0.00000  Uiso   1.00
H1290  H     0.87845   0.21955   0.61319   0.00000  Uiso   1.00
H1291  H     0.76547   0.07924   0.95626   0.00000  Uiso   1.00
H1292  H     0.90407   0.25071   0.54362   0.00000  Uiso   1.00
H1293  H     0.76589   0.07841   0.53812   0.00000  Uiso   1.00
H1294  H     0.90411   0.25104   0.96178   0.00000  Uiso   1.00
N1295  N     0.83333   0.28402   0.75000   0.00000  Uiso   1.00
N1296  N     0.83333   0.04931   0.75000   0.00000  Uiso   1.00
O1297  O     0.77321   0.20625   0.74999   0.00000  Uiso   1.00
O1298  O     0.89345   0.12709   0.75000   0.00000  Uiso   1.00
O1299  O     0.89345   0.20625   0.75000   0.00000  Uiso   1.00
O1300  O     0.77321   0.12709   0.74999   0.00000  Uiso   1.00
O1301  O     0.83332   0.20627   0.68513   0.00000  Uiso   1.00
O1302  O     0.83334   0.12707   0.81487   0.00000  Uiso   1.00
O1303  O     0.83334   0.20627   0.81487   0.00000  Uiso   1.00
O1304  O     0.83332   0.12707   0.68513   0.00000  Uiso   1.00
O1305  O     0.70908   0.08551   0.72292   0.00000  Uiso   1.00
C1306  C     0.72111   0.08657   0.67756   0.00000  Uiso   1.00
H1307  H     0.74690   0.06209   0.67319   0.00000  Uiso   1.00
H1308  H     0.73267   0.12080   0.66755   0.00000  Uiso   1.00
C1309  C     0.68664   0.07119   0.64633   0.00000  Uiso   1.00
H1310  H     0.99554   0.09786   0.64580   0.00000  Uiso   1.00
H1311  H     0.69868   0.06598   0.61188   0.00000  Uiso   1.00
H1312  H     0.67353   0.03840   0.65755   0.00000  Uiso   1.00
O1313  O     0.95828   0.24811   0.72943   0.00000  Uiso   1.00
C1314  C     0.95072   0.24854   0.68279   0.00000  Uiso   1.00
H1315  H     0.92665   0.27464   0.67694   0.00000  Uiso   1.00
H1316  H     0.93860   0.21525   0.66911   0.00000  Uiso   1.00
C1317  C     0.98876   0.26210   0.65687   0.00000  Uiso   1.00
H1318  H     0.67798   0.23337   0.65599   0.00000  Uiso   1.00
H1319  H     0.98026   0.27003   0.62199   0.00000  Uiso   1.00
H1320  H     0.66967   0.29287   0.67292   0.00000  Uiso   1.00
O1321  O     0.96014   0.08331   0.73182   0.00000  Uiso   1.00
C1322  C     0.96284   0.05924   0.77185   0.00000  Uiso   1.00
H1323  H     0.94357   0.07634   0.79781   0.00000  Uiso   1.00
H1324  H     0.99463   0.05720   0.78505   0.00000  Uiso   1.00
C1325  C     0.94847   0.01072   0.76236   0.00000  Uiso   1.00
H1326  H     0.97351   0.32588   0.74430   0.00000  Uiso   1.00
H1327  H     0.94136   0.32662   0.79386   0.00000  Uiso   1.00
H1328  H     0.92082   0.01056   0.74098   0.00000  Uiso   1.00
O1329  O     0.70443   0.25168   0.75445   0.00000  Uiso   1.00
C1330  C     0.71441   0.25904   0.80010   0.00000  Uiso   1.00
H1331  H     0.73811   0.28595   0.80127   0.00000  Uiso   1.00
H1332  H     0.72727   0.22784   0.81598   0.00000  Uiso   1.00
C1333  C     0.67851   0.27736   0.82785   0.00000  Uiso   1.00
H1334  H     0.98388   0.25689   0.82140   0.00000  Uiso   1.00
H1335  H     0.68619   0.27553   0.86389   0.00000  Uiso   1.00
H1336  H     0.67302   0.31400   0.82053   0.00000  Uiso   1.00
O1337  O     0.82967   0.04190   0.67086   0.00000  Uiso   1.00
C1338  C     0.87191   0.03840   0.66016   0.00000  Uiso   1.00
H1339  H     0.88448   0.00349   0.66647   0.00000  Uiso   1.00
H1340  H     0.88984   0.06378   0.68041   0.00000  Uiso   1.00
C1341  C     0.87887   0.04724   0.61088   0.00000  Uiso   1.00
H1342  H     0.87794   0.08462   0.60492   0.00000  Uiso   1.00
H1343  H     0.90956   0.03422   0.60078   0.00000  Uiso   1.00
H1344  H     0.85549   0.02948   0.58992   0.00000  Uiso   1.00
O1345  O     0.84681   0.28941   0.82855   0.00000  Uiso   1.00
C1346  C     0.80918   0.29568   0.85196   0.00000  Uiso   1.00
H1347  H     0.78909   0.26622   0.84398   0.00000  Uiso   1.00
H1348  H     0.79223   0.32772   0.84318   0.00000  Uiso   1.00
C1349  C     0.81578   0.29688   0.90265   0.00000  Uiso   1.00
H1350  H     0.80183   0.32854   0.91796   0.00000  Uiso   1.00
H1351  H     0.80085   0.26693   0.91791   0.00000  Uiso   1.00
H1352  H     0.84870   0.29641   0.91135   0.00000  Uiso   1.00
O1353  O     0.87460   0.05220   0.81346   0.00000  Uiso   1.00
C1354  C     0.87625   0.04087   0.85881   0.00000  Uiso   1.00
H1355  H     0.89049   0.00660   0.86314   0.00000  Uiso   1.00
H1356  H     0.84544   0.04421   0.87391   0.00000  Uiso   1.00
C1357  C     0.90425   0.07448   0.88378   0.00000  Uiso   1.00
H1358  H     0.89840   0.11027   0.87357   0.00000  Uiso   1.00
H1359  H     0.89919   0.07232   0.92035   0.00000  Uiso   1.00
H1360  H     0.93671   0.06581   0.87655   0.00000  Uiso   1.00
O1361  O     0.79064   0.28547   0.68622   0.00000  Uiso   1.00
C1362  C     0.80028   0.28582   0.64013   0.00000  Uiso   1.00
H1363  H     0.79592   0.25032   0.62671   0.00000  Uiso   1.00
H1364  H     0.83240   0.29460   0.63262   0.00000  Uiso   1.00
C1365  C     0.77002   0.31529   0.61440   0.00000  Uiso   1.00
H1366  H     0.77737   0.01894   0.61763   0.00000  Uiso   1.00
H1367  H     0.77148   0.30556   0.57829   0.00000  Uiso   1.00
H1368  H     0.73844   0.30961   0.62641   0.00000  Uiso   1.00
C1369  C     0.08750   0.50023   0.74869   0.00000  Uiso   1.00
C1370  C     0.24575   0.49971   0.74718   0.00000  Uiso   1.00
C1371  C     0.11840   0.43604   0.52125   0.00000  Uiso   1.00
C1372  C     0.21808   0.56027   0.97864   0.00000  Uiso   1.00
C1373  C     0.02197   0.45931   0.73454   0.00000  Uiso   1.00
C1374  C     0.31149   0.54112   0.73966   0.00000  Uiso   1.00
C1375  C     0.31287   0.45811   0.73805   0.00000  Uiso   1.00
C1376  C     0.01989   0.54228   0.74823   0.00000  Uiso   1.00
C1377  C     0.29045   0.49939   0.74196   0.00000  Uiso   1.00
C1378  C     0.04275   0.50070   0.74477   0.00000  Uiso   1.00
C1379  C     0.15767   0.35640   0.71216   0.00000  Uiso   1.00
C1380  C     0.17736   0.64364   0.78775   0.00000  Uiso   1.00
C1381  C     0.18115   0.36006   0.78626   0.00000  Uiso   1.00
C1382  C     0.15259   0.64068   0.71378   0.00000  Uiso   1.00
C1383  C     0.16680   0.49946   0.66459   0.00000  Uiso   1.00
C1384  C     0.16641   0.50045   0.83541   0.00000  Uiso   1.00
C1385  C     0.19229   0.53036   0.90764   0.00000  Uiso   1.00
C1386  C     0.14283   0.46735   0.59228   0.00000  Uiso   1.00
C1387  C     0.16624   0.50083   0.88374   0.00000  Uiso   1.00
C1388  C     0.16751   0.49843   0.61625   0.00000  Uiso   1.00
C1389  C     0.14189   0.46924   0.90580   0.00000  Uiso   1.00
C1390  C     0.19269   0.52912   0.59413   0.00000  Uiso   1.00
C1391  C     0.14254   0.46788   0.95222   0.00000  Uiso   1.00
C1392  C     0.19314   0.52929   0.54767   0.00000  Uiso   1.00
C1393  C     0.16790   0.49863   0.97657   0.00000  Uiso   1.00
C1394  C     0.16807   0.49821   0.52333   0.00000  Uiso   1.00
C1395  C     0.19299   0.52989   0.95416   0.00000  Uiso   1.00
C1396  C     0.14299   0.46694   0.54574   0.00000  Uiso   1.00
C1397  C     0.11817   0.43652   0.97469   0.00000  Uiso   1.00
C1398  C     0.21805   0.56008   0.52519   0.00000  Uiso   1.00
Cu1399 Cu    0.16667   0.54689   0.75000   0.00000  Uiso   1.00
Cu1400 Cu    0.16667   0.45311   0.75000   0.00000  Uiso   1.00
H1401  H     0.21202   0.55347   0.88994   0.00000  Uiso   1.00
H1402  H     0.12353   0.44373   0.60989   0.00000  Uiso   1.00
H1403  H     0.12240   0.44590   0.88672   0.00000  Uiso   1.00
H1404  H     0.21178   0.55289   0.61319   0.00000  Uiso   1.00
H1405  H     0.09880   0.41258   0.95626   0.00000  Uiso   1.00
H1406  H     0.23741   0.58404   0.54362   0.00000  Uiso   1.00
H1407  H     0.09922   0.41174   0.53812   0.00000  Uiso   1.00
H1408  H     0.23744   0.58438   0.96178   0.00000  Uiso   1.00
N1409  N     0.16667   0.61736   0.75000   0.00000  Uiso   1.00
N1410  N     0.16667   0.38264   0.75000   0.00000  Uiso   1.00
O1411  O     0.10655   0.53958   0.74999   0.00000  Uiso   1.00
O1412  O     0.22679   0.46042   0.75000   0.00000  Uiso   1.00
O1413  O     0.22679   0.53958   0.75000   0.00000  Uiso   1.00
O1414  O     0.10655   0.46042   0.74999   0.00000  Uiso   1.00
O1415  O     0.16666   0.53960   0.68513   0.00000  Uiso   1.00
O1416  O     0.16668   0.46040   0.81487   0.00000  Uiso   1.00
O1417  O     0.16668   0.53960   0.81487   0.00000  Uiso   1.00
O1418  O     0.16666   0.46040   0.68513   0.00000  Uiso   1.00
O1419  O     0.04241   0.41884   0.72292   0.00000  Uiso   1.00
C1420  C     0.05445   0.41990   0.67756   0.00000  Uiso   1.00
H1421  H     0.08024   0.39542   0.67319   0.00000  Uiso   1.00
H1422  H     0.06600   0.45413   0.66755   0.00000  Uiso   1.00
C1423  C     0.01998   0.40452   0.64633   0.00000  Uiso   1.00
H1424  H     0.32887   0.43119   0.64580   0.00000  Uiso   1.00
H1425  H     0.03201   0.39932   0.61188   0.00000  Uiso   1.00
H1426  H     0.00687   0.37174   0.65755   0.00000  Uiso   1.00
O1427  O     0.29161   0.58144   0.72943   0.00000  Uiso   1.00
C1428  C     0.28405   0.58187   0.68279   0.00000  Uiso   1.00
H1429  H     0.25998   0.60797   0.67694   0.00000  Uiso   1.00
H1430  H     0.27193   0.54858   0.66911   0.00000  Uiso   1.00
C1431  C     0.32209   0.59543   0.65687   0.00000  Uiso   1.00
H1432  H     0.01132   0.56670   0.65599   0.00000  Uiso   1.00
H1433  H     0.31359   0.60336   0.62199   0.00000  Uiso   1.00
H1434  H     0.00300   0.62620   0.67292   0.00000  Uiso   1.00
O1435  O     0.29347   0.41664   0.73182   0.00000  Uiso   1.00
C1436  C     0.29617   0.39257   0.77185   0.00000  Uiso   1.00
H1437  H     0.27690   0.40967   0.79781   0.00000  Uiso   1.00
H1438  H     0.32797   0.39053   0.78505   0.00000  Uiso   1.00
C1439  C     0.28180   0.34406   0.76236   0.00000  Uiso   1.00
H1440  H     0.30684   0.65922   0.74430   0.00000  Uiso   1.00
H1441  H     0.27470   0.65995   0.79386   0.00000  Uiso   1.00
H1442  H     0.25416   0.34389   0.74098   0.00000  Uiso   1.00
O1443  O     0.03776   0.58501   0.75445   0.00000  Uiso   1.00
C1444  C     0.04774   0.59237   0.80010   0.00000  Uiso   1.00
H1445  H     0.07145   0.61929   0.80127   0.00000  Uiso   1.00
H1446  H     0.06061   0.56118   0.81598   0.00000  Uiso   1.00
C1447  C     0.01184   0.61069   0.82785   0.00000  Uiso   1.00
H1448  H     0.31722   0.59022   0.82140   0.00000  Uiso   1.00
H1449  H     0.01952   0.60886   0.86389   0.00000  Uiso   1.00
H1450  H     0.00635   0.64734   0.82053   0.00000  Uiso   1.00
O1451  O     0.16300   0.37524   0.67086   0.00000  Uiso   1.00
C1452  C     0.20524   0.37173   0.66016   0.00000  Uiso   1.00
H1453  H     0.21782   0.33682   0.66647   0.00000  Uiso   1.00
H1454  H     0.22317   0.39712   0.68041   0.00000  Uiso   1.00
C1455  C     0.21220   0.38057   0.61088   0.00000  Uiso   1.00
H1456  H     0.21128   0.41795   0.60492   0.00000  Uiso   1.00
H1457  H     0.24290   0.36755   0.60078   0.00000  Uiso   1.00
H1458  H     0.18882   0.36281   0.58992   0.00000  Uiso   1.00
O1459  O     0.18015   0.62275   0.82855   0.00000  Uiso   1.00
C1460  C     0.14251   0.62902   0.85196   0.00000  Uiso   1.00
H1461  H     0.12242   0.59955   0.84398   0.00000  Uiso   1.00
H1462  H     0.12556   0.66105   0.84318   0.00000  Uiso   1.00
C1463  C     0.14911   0.63021   0.90265   0.00000  Uiso   1.00
H1464  H     0.13516   0.66187   0.91796   0.00000  Uiso   1.00
H1465  H     0.13419   0.60026   0.91791   0.00000  Uiso   1.00
H1466  H     0.18203   0.62974   0.91135   0.00000  Uiso   1.00
O1467  O     0.20793   0.38553   0.81346   0.00000  Uiso   1.00
C1468  C     0.20958   0.37420   0.85881   0.00000  Uiso   1.00
H1469  H     0.22382   0.33993   0.86314   0.00000  Uiso   1.00
H1470  H     0.17877   0.37754   0.87391   0.00000  Uiso   1.00
C1471  C     0.23758   0.40781   0.88378   0.00000  Uiso   1.00
H1472  H     0.23173   0.44360   0.87357   0.00000  Uiso   1.00
H1473  H     0.23253   0.40565   0.92035   0.00000  Uiso   1.00
H1474  H     0.27004   0.39915   0.87655   0.00000  Uiso   1.00
O1475  O     0.12397   0.61880   0.68622   0.00000  Uiso   1.00
C1476  C     0.13362   0.61915   0.64013   0.00000  Uiso   1.00
H1477  H     0.12925   0.58365   0.62671   0.00000  Uiso   1.00
H1478  H     0.16573   0.62793   0.63262   0.00000  Uiso   1.00
C1479  C     0.10336   0.64862   0.61440   0.00000  Uiso   1.00
H1480  H     0.11070   0.35228   0.61763   0.00000  Uiso   1.00
H1481  H     0.10482   0.63890   0.57829   0.00000  Uiso   1.00
H1482  H     0.07177   0.64294   0.62641   0.00000  Uiso   1.00
C1483  C     0.42083   0.50023   0.74869   0.00000  Uiso   1.00
C1484  C     0.57908   0.49971   0.74718   0.00000  Uiso   1.00
C1485  C     0.45174   0.43604   0.52125   0.00000  Uiso   1.00
C1486  C     0.55141   0.56027   0.97864   0.00000  Uiso   1.00
C1487  C     0.35531   0.45931   0.73454   0.00000  Uiso   1.00
C1488  C     0.64482   0.54112   0.73966   0.00000  Uiso   1.00
C1489  C     0.64620   0.45811   0.73805   0.00000  Uiso   1.00
C1490  C     0.35323   0.54228   0.74823   0.00000  Uiso   1.00
C1491  C     0.62378   0.49939   0.74196   0.00000  Uiso   1.00
C1492  C     0.37608   0.50070   0.74477   0.00000  Uiso   1.00
C1493  C     0.49100   0.35640   0.71216   0.00000  Uiso   1.00
C1494  C     0.51070   0.64364   0.78775   0.00000  Uiso   1.00
C1495  C     0.51448   0.36006   0.78626   0.00000  Uiso   1.00
C1496  C     0.48593   0.64068   0.71378   0.00000  Uiso   1.00
C1497  C     0.50013   0.49946   0.66459   0.00000  Uiso   1.00
C1498  C     0.49975   0.50045   0.83541   0.00000  Uiso   1.00
C1499  C     0.52562   0.53036   0.90764   0.00000  Uiso   1.00
C1500  C     0.47617   0.46735   0.59228   0.00000  Uiso   1.00
C1501  C     0.49957   0.50083   0.88374   0.00000  Uiso   1.00
C1502  C     0.50085   0.49843   0.61625   0.00000  Uiso   1.00
C1503  C     0.47523   0.46924   0.90580   0.00000  Uiso   1.00
C1504  C     0.52602   0.52912   0.59413   0.00000  Uiso   1.00
C1505  C     0.47587   0.46788   0.95222   0.00000  Uiso   1.00
C1506  C     0.52647   0.52929   0.54767   0.00000  Uiso   1.00
C1507  C     0.50123   0.49863   0.97657   0.00000  Uiso   1.00
C1508  C     0.50141   0.49821   0.52333   0.00000  Uiso   1.00
C1509  C     0.52632   0.52989   0.95416   0.00000  Uiso   1.00
C1510  C     0.47633   0.46694   0.54574   0.00000  Uiso   1.00
C1511  C     0.45150   0.43652   0.97469   0.00000  Uiso   1.00
C1512  C     0.55139   0.56008   0.52519   0.00000  Uiso   1.00
Cu1513 Cu    0.50000   0.54689   0.75000   0.00000  Uiso   1.00
Cu1514 Cu    0.50000   0.45311   0.75000   0.00000  Uiso   1.00
H1515  H     0.54536   0.55347   0.88994   0.00000  Uiso   1.00
H1516  H     0.45687   0.44373   0.60989   0.00000  Uiso   1.00
H1517  H     0.45573   0.44590   0.88672   0.00000  Uiso   1.00
H1518  H     0.54512   0.55289   0.61319   0.00000  Uiso   1.00
H1519  H     0.43213   0.41258   0.95626   0.00000  Uiso   1.00
H1520  H     0.57074   0.58404   0.54362   0.00000  Uiso   1.00
H1521  H     0.43256   0.41174   0.53812   0.00000  Uiso   1.00
H1522  H     0.57078   0.58438   0.96178   0.00000  Uiso   1.00
N1523  N     0.50000   0.61736   0.75000   0.00000  Uiso   1.00
N1524  N     0.50000   0.38264   0.75000   0.00000  Uiso   1.00
O1525  O     0.43988   0.53958   0.74999   0.00000  Uiso   1.00
O1526  O     0.56012   0.46042   0.75000   0.00000  Uiso   1.00
O1527  O     0.56012   0.53958   0.75000   0.00000  Uiso   1.00
O1528  O     0.43988   0.46042   0.74999   0.00000  Uiso   1.00
O1529  O     0.49999   0.53960   0.68513   0.00000  Uiso   1.00
O1530  O     0.50001   0.46040   0.81487   0.00000  Uiso   1.00
O1531  O     0.50001   0.53960   0.81487   0.00000  Uiso   1.00
O1532  O     0.49999   0.46040   0.68513   0.00000  Uiso   1.00
O1533  O     0.37574   0.41884   0.72292   0.00000  Uiso   1.00
C1534  C     0.38778   0.41990   0.67756   0.00000  Uiso   1.00
H1535  H     0.41357   0.39542   0.67319   0.00000  Uiso   1.00
H1536  H     0.39934   0.45413   0.66755   0.00000  Uiso   1.00
C1537  C     0.35331   0.40452   0.64633   0.00000  Uiso   1.00
H1538  H     0.66221   0.43119   0.64580   0.00000  Uiso   1.00
H1539  H     0.36535   0.39932   0.61188   0.00000  Uiso   1.00
H1540  H     0.34020   0.37174   0.65755   0.00000  Uiso   1.00
O1541  O     0.62494   0.58144   0.72943   0.00000  Uiso   1.00
C1542  C     0.61739   0.58187   0.68279   0.00000  Uiso   1.00
H1543  H     0.59331   0.60797   0.67694   0.00000  Uiso   1.00
H1544  H     0.60526   0.54858   0.66911   0.00000  Uiso   1.00
C1545  C     0.65542   0.59543   0.65687   0.00000  Uiso   1.00
H1546  H     0.34465   0.56670   0.65599   0.00000  Uiso   1.00
H1547  H     0.64692   0.60336   0.62199   0.00000  Uiso   1.00
H1548  H     0.33634   0.62620   0.67292   0.00000  Uiso   1.00
O1549  O     0.62681   0.41664   0.73182   0.00000  Uiso   1.00
C1550  C     0.62950   0.39257   0.77185   0.00000  Uiso   1.00
H1551  H     0.61023   0.40967   0.79781   0.00000  Uiso   1.00
H1552  H     0.66130   0.39053   0.78505   0.00000  Uiso   1.00
C1553  C     0.61514   0.34406   0.76236   0.00000  Uiso   1.00
H1554  H     0.64017   0.65922   0.74430   0.00000  Uiso   1.00
H1555  H     0.60803   0.65995   0.79386   0.00000  Uiso   1.00
H1556  H     0.58749   0.34389   0.74098   0.00000  Uiso   1.00
O1557  O     0.37109   0.58501   0.75445   0.00000  Uiso   1.00
C1558  C     0.38108   0.59237   0.80010   0.00000  Uiso   1.00
H1559  H     0.40478   0.61929   0.80127   0.00000  Uiso   1.00
H1560  H     0.39394   0.56118   0.81598   0.00000  Uiso   1.00
C1561  C     0.34517   0.61069   0.82785   0.00000  Uiso   1.00
H1562  H     0.65055   0.59022   0.82140   0.00000  Uiso   1.00
H1563  H     0.35285   0.60886   0.86389   0.00000  Uiso   1.00
H1564  H     0.33968   0.64734   0.82053   0.00000  Uiso   1.00
O1565  O     0.49633   0.37524   0.67086   0.00000  Uiso   1.00
C1566  C     0.53857   0.37173   0.66016   0.00000  Uiso   1.00
H1567  H     0.55115   0.33682   0.66647   0.00000  Uiso   1.00
H1568  H     0.55650   0.39712   0.68041   0.00000  Uiso   1.00
C1569  C     0.54553   0.38057   0.61088   0.00000  Uiso   1.00
H1570  H     0.54461   0.41795   0.60492   0.00000  Uiso   1.00
H1571  H     0.57623   0.36755   0.60078   0.00000  Uiso   1.00
H1572  H     0.52215   0.36281   0.58992   0.00000  Uiso   1.00
O1573  O     0.51348   0.62275   0.82855   0.00000  Uiso   1.00
C1574  C     0.47585   0.62902   0.85196   0.00000  Uiso   1.00
H1575  H     0.45575   0.59955   0.84398   0.00000  Uiso   1.00
H1576  H     0.45890   0.66105   0.84318   0.00000  Uiso   1.00
C1577  C     0.48244   0.63021   0.90265   0.00000  Uiso   1.00
H1578  H     0.46850   0.66187   0.91796   0.00000  Uiso   1.00
H1579  H     0.46752   0.60026   0.91791   0.00000  Uiso   1.00
H1580  H     0.51537   0.62974   0.91135   0.00000  Uiso   1.00
O1581  O     0.54126   0.38553   0.81346   0.00000  Uiso   1.00
C1582  C     0.54291   0.37420   0.85881   0.00000  Uiso   1.00
H1583  H     0.55715   0.33993   0.86314   0.00000  Uiso   1.00
H1584  H     0.51210   0.37754   0.87391   0.00000  Uiso   1.00
C1585  C     0.57091   0.40781   0.88378   0.00000  Uiso   1.00
H1586  H     0.56506   0.44360   0.87357   0.00000  Uiso   1.00
H1587  H     0.56586   0.40565   0.92035   0.00000  Uiso   1.00
H1588  H     0.60337   0.39915   0.87655   0.00000  Uiso   1.00
O1589  O     0.45730   0.61880   0.68622   0.00000  Uiso   1.00
C1590  C     0.46695   0.61915   0.64013   0.00000  Uiso   1.00
H1591  H     0.46259   0.58365   0.62671   0.00000  Uiso   1.00
H1592  H     0.49906   0.62793   0.63262   0.00000  Uiso   1.00
C1593  C     0.43669   0.64862   0.61440   0.00000  Uiso   1.00
H1594  H     0.44403   0.35228   0.61763   0.00000  Uiso   1.00
H1595  H     0.43815   0.63890   0.57829   0.00000  Uiso   1.00
H1596  H     0.40511   0.64294   0.62641   0.00000  Uiso   1.00
C1597  C     0.75416   0.50023   0.74869   0.00000  Uiso   1.00
C1598  C     0.91242   0.49971   0.74718   0.00000  Uiso   1.00
C1599  C     0.78507   0.43604   0.52125   0.00000  Uiso   1.00
C1600  C     0.88475   0.56027   0.97864   0.00000  Uiso   1.00
C1601  C     0.68864   0.45931   0.73454   0.00000  Uiso   1.00
C1602  C     0.97816   0.54112   0.73966   0.00000  Uiso   1.00
C1603  C     0.97954   0.45811   0.73805   0.00000  Uiso   1.00
C1604  C     0.68656   0.54228   0.74823   0.00000  Uiso   1.00
C1605  C     0.95712   0.49939   0.74196   0.00000  Uiso   1.00
C1606  C     0.70942   0.50070   0.74477   0.00000  Uiso   1.00
C1607  C     0.82434   0.35640   0.71216   0.00000  Uiso   1.00
C1608  C     0.84403   0.64364   0.78775   0.00000  Uiso   1.00
C1609  C     0.84782   0.36006   0.78626   0.00000  Uiso   1.00
C1610  C     0.81926   0.64068   0.71378   0.00000  Uiso   1.00
C1611  C     0.83347   0.49946   0.66459   0.00000  Uiso   1.00
C1612  C     0.83308   0.50045   0.83541   0.00000  Uiso   1.00
C1613  C     0.85895   0.53036   0.90764   0.00000  Uiso   1.00
C1614  C     0.80950   0.46735   0.59228   0.00000  Uiso   1.00
C1615  C     0.83290   0.50083   0.88374   0.00000  Uiso   1.00
C1616  C     0.83418   0.49843   0.61625   0.00000  Uiso   1.00
C1617  C     0.80856   0.46924   0.90580   0.00000  Uiso   1.00
C1618  C     0.85935   0.52912   0.59413   0.00000  Uiso   1.00
C1619  C     0.80920   0.46788   0.95222   0.00000  Uiso   1.00
C1620  C     0.85981   0.52929   0.54767   0.00000  Uiso   1.00
C1621  C     0.83457   0.49863   0.97657   0.00000  Uiso   1.00
C1622  C     0.83474   0.49821   0.52333   0.00000  Uiso   1.00
C1623  C     0.85965   0.52989   0.95416   0.00000  Uiso   1.00
C1624  C     0.80966   0.46694   0.54574   0.00000  Uiso   1.00
C1625  C     0.78484   0.43652   0.97469   0.00000  Uiso   1.00
C1626  C     0.88472   0.56008   0.52519   0.00000  Uiso   1.00
Cu1627 Cu    0.83333   0.54689   0.75000   0.00000  Uiso   1.00
Cu1628 Cu    0.83333   0.45311   0.75000   0.00000  Uiso   1.00
H1629  H     0.87869   0.55347   0.88994   0.00000  Uiso   1.00
H1630  H     0.79020   0.44373   0.60989   0.00000  Uiso   1.00
H1631  H     0.78906   0.44590   0.88672   0.00000  Uiso   1.00
H1632  H     0.87845   0.55289   0.61319   0.00000  Uiso   1.00
H1633  H     0.76547   0.41258   0.95626   0.00000  Uiso   1.00
H1634  H     0.90407   0.58404   0.54362   0.00000  Uiso   1.00
H1635  H     0.76589   0.41174   0.53812   0.00000  Uiso   1.00
H1636  H     0.90411   0.58438   0.96178   0.00000  Uiso   1.00
N1637  N     0.83333   0.61736   0.75000   0.00000  Uiso   1.00
N1638  N     0.83333   0.38264   0.75000   0.00000  Uiso   1.00
O1639  O     0.77321   0.53958   0.74999   0.00000  Uiso   1.00
O1640  O     0.89345   0.46042   0.75000   0.00000  Uiso   1.00
O1641  O     0.89345   0.53958   0.75000   0.00000  Uiso   1.00
O1642  O     0.77321   0.46042   0.74999   0.00000  Uiso   1.00
O1643  O     0.83332   0.53960   0.68513   0.00000  Uiso   1.00
O1644  O     0.83334   0.46040   0.81487   0.00000  Uiso   1.00
O1645  O     0.83334   0.53960   0.81487   0.00000  Uiso   1.00
O1646  O     0.83332   0.46040   0.68513   0.00000  Uiso   1.00
O1647  O     0.70908   0.41884   0.72292   0.00000  Uiso   1.00
C1648  C     0.72111   0.41990   0.67756   0.00000  Uiso   1.00
H1649  H     0.74690   0.39542   0.67319   0.00000  Uiso   1.00
H1650  H     0.73267   0.45413   0.66755   0.00000  Uiso   1.00
C1651  C     0.68664   0.40452   0.64633   0.00000  Uiso   1.00
H1652  H     0.99554   0.43119   0.64580   0.00000  Uiso   1.00
H1653  H     0.69868   0.39932   0.61188   0.00000  Uiso   1.00
H1654  H     0.67353   0.37174   0.65755   0.00000  Uiso   1.00
O1655  O     0.95828   0.58144   0.72943   0.00000  Uiso   1.00
C1656  C     0.95072   0.58187   0.68279   0.00000  Uiso   1.00
H1657  H     0.92665   0.60797   0.67694   0.00000  Uiso   1.00
H1658  H     0.93860   0.54858   0.66911   0.00000  Uiso   1.00
C1659  C     0.98876   0.59543   0.65687   0.00000  Uiso   1.00
H1660  H     0.67798   0.56670   0.65599   0.00000  Uiso   1.00
H1661  H     0.98026   0.60336   0.62199   0.00000  Uiso   1.00
H1662  H     0.66967   0.62620   0.67292   0.00000  Uiso   1.00
O1663  O     0.96014   0.41664   0.73182   0.00000  Uiso   1.00
C1664  C     0.96284   0.39257   0.77185   0.00000  Uiso   1.00
H1665  H     0.94357   0.40967   0.79781   0.00000  Uiso   1.00
H1666  H     0.99463   0.39053   0.78505   0.00000  Uiso   1.00
C1667  C     0.94847   0.34406   0.76236   0.00000  Uiso   1.00
H1668  H     0.97351   0.65922   0.74430   0.00000  Uiso   1.00
H1669  H     0.94136   0.65995   0.79386   0.00000  Uiso   1.00
H1670  H     0.92082   0.34389   0.74098   0.00000  Uiso   1.00
O1671  O     0.70443   0.58501   0.75445   0.00000  Uiso   1.00
C1672  C     0.71441   0.59237   0.80010   0.00000  Uiso   1.00
H1673  H     0.73811   0.61929   0.80127   0.00000  Uiso   1.00
H1674  H     0.72727   0.56118   0.81598   0.00000  Uiso   1.00
C1675  C     0.67851   0.61069   0.82785   0.00000  Uiso   1.00
H1676  H     0.98388   0.59022   0.82140   0.00000  Uiso   1.00
H1677  H     0.68619   0.60886   0.86389   0.00000  Uiso   1.00
H1678  H     0.67302   0.64734   0.82053   0.00000  Uiso   1.00
O1679  O     0.82967   0.37524   0.67086   0.00000  Uiso   1.00
C1680  C     0.87191   0.37173   0.66016   0.00000  Uiso   1.00
H1681  H     0.88448   0.33682   0.66647   0.00000  Uiso   1.00
H1682  H     0.88984   0.39712   0.68041   0.00000  Uiso   1.00
C1683  C     0.87887   0.38057   0.61088   0.00000  Uiso   1.00
H1684  H     0.87794   0.41795   0.60492   0.00000  Uiso   1.00
H1685  H     0.90956   0.36755   0.60078   0.00000  Uiso   1.00
H1686  H     0.85549   0.36281   0.58992   0.00000  Uiso   1.00
O1687  O     0.84681   0.62275   0.82855   0.00000  Uiso   1.00
C1688  C     0.80918   0.62902   0.85196   0.00000  Uiso   1.00
H1689  H     0.78909   0.59955   0.84398   0.00000  Uiso   1.00
H1690  H     0.79223   0.66105   0.84318   0.00000  Uiso   1.00
C1691  C     0.81578   0.63021   0.90265   0.00000  Uiso   1.00
H1692  H     0.80183   0.66187   0.91796   0.00000  Uiso   1.00
H1693  H     0.80085   0.60026   0.91791   0.00000  Uiso   1.00
H1694  H     0.84870   0.62974   0.91135   0.00000  Uiso   1.00
O1695  O     0.87460   0.38553   0.81346   0.00000  Uiso   1.00
C1696  C     0.87625   0.37420   0.85881   0.00000  Uiso   1.00
H1697  H     0.89049   0.33993   0.86314   0.00000  Uiso   1.00
H1698  H     0.84544   0.37754   0.87391   0.00000  Uiso   1.00
C1699  C     0.90425   0.40781   0.88378   0.00000  Uiso   1.00
H1700  H     0.89840   0.44360   0.87357   0.00000  Uiso   1.00
H1701  H     0.89919   0.40565   0.92035   0.00000  Uiso   1.00
H1702  H     0.93671   0.39915   0.87655   0.00000  Uiso   1.00
O1703  O     0.79064   0.61880   0.68622   0.00000  Uiso   1.00
C1704  C     0.80028   0.61915   0.64013   0.00000  Uiso   1.00
H1705  H     0.79592   0.58365   0.62671   0.00000  Uiso   1.00
H1706  H     0.83240   0.62793   0.63262   0.00000  Uiso   1.00
C1707  C     0.77002   0.64862   0.61440   0.00000  Uiso   1.00
H1708  H     0.77737   0.35228   0.61763   0.00000  Uiso   1.00
H1709  H     0.77148   0.63890   0.57829   0.00000  Uiso   1.00
H1710  H     0.73844   0.64294   0.62641   0.00000  Uiso   1.00
C1711  C     0.08750   0.83357   0.74869   0.00000  Uiso   1.00
C1712  C     0.24575   0.83305   0.74718   0.00000  Uiso   1.00
C1713  C     0.11840   0.76937   0.52125   0.00000  Uiso   1.00
C1714  C     0.21808   0.89360   0.97864   0.00000  Uiso   1.00
C1715  C     0.02197   0.79264   0.73454   0.00000  Uiso   1.00
C1716  C     0.31149   0.87445   0.73966   0.00000  Uiso   1.00
C1717  C     0.31287   0.79144   0.73805   0.00000  Uiso   1.00
C1718  C     0.01989   0.87561   0.74823   0.00000  Uiso   1.00
C1719  C     0.29045   0.83272   0.74196   0.00000  Uiso   1.00
C1720  C     0.04275   0.83403   0.74477   0.00000  Uiso   1.00
C1721  C     0.15767   0.68974   0.71216   0.00000  Uiso   1.00
C1722  C     0.17736   0.97697   0.78775   0.00000  Uiso   1.00
C1723  C     0.18115   0.69340   0.78626   0.00000  Uiso   1.00
C1724  C     0.15259   0.97402   0.71378   0.00000  Uiso   1.00
C1725  C     0.16680   0.83279   0.66459   0.00000  Uiso   1.00
C1726  C     0.16641   0.83378   0.83541   0.00000  Uiso   1.00
C1727  C     0.19229   0.86370   0.90764   0.00000  Uiso   1.00
C1728  C     0.14283   0.80068   0.59228   0.00000  Uiso   1.00
C1729  C     0.16624   0.83417   0.88374   0.00000  Uiso   1.00
C1730  C     0.16751   0.83176   0.61625   0.00000  Uiso   1.00
C1731  C     0.14189   0.80258   0.90580   0.00000  Uiso   1.00
C1732  C     0.19269   0.86246   0.59413   0.00000  Uiso   1.00
C1733  C     0.14254   0.80121   0.95222   0.00000  Uiso   1.00
C1734  C     0.19314   0.86263   0.54767   0.00000  Uiso   1.00
C1735  C     0.16790   0.83196   0.97657   0.00000  Uiso   1.00
C1736  C     0.16807   0.83155   0.52333   0.00000  Uiso   1.00
C1737  C     0.19299   0.86322   0.95416   0.00000  Uiso   1.00
C1738  C     0.14299   0.80027   0.54574   0.00000  Uiso   1.00
C1739  C     0.11817   0.76985   0.97469   0.00000  Uiso   1.00
C1740  C     0.21805   0.89341   0.52519   0.00000  Uiso   1.00
Cu1741 Cu    0.16667   0.88022   0.75000   0.00000  Uiso   1.00
Cu1742 Cu    0.16667   0.78645   0.75000   0.00000  Uiso   1.00
H1743  H     0.21202   0.88680   0.88994   0.00000  Uiso   1.00
H1744  H     0.12353   0.77707   0.60989   0.00000  Uiso   1.00
H1745  H     0.12240   0.77923   0.88672   0.00000  Uiso   1.00
H1746  H     0.21178   0.88622   0.61319   0.00000  Uiso   1.00
H1747  H     0.09880   0.74591   0.95626   0.00000  Uiso   1.00
H1748  H     0.23741   0.91738   0.54362   0.00000  Uiso   1.00
H1749  H     0.09922   0.74507   0.53812   0.00000  Uiso   1.00
H1750  H     0.23744   0.91771   0.96178   0.00000  Uiso   1.00
N1751  N     0.16667   0.95069   0.75000   0.00000  Uiso   1.00
N1752  N     0.16667   0.71598   0.75000   0.00000  Uiso   1.00
O1753  O     0.10655   0.87291   0.74999   0.00000  Uiso   1.00
O1754  O     0.22679   0.79375   0.75000   0.00000  Uiso   1.00
O1755  O     0.22679   0.87291   0.75000   0.00000  Uiso   1.00
O1756  O     0.10655   0.79375   0.74999   0.00000  Uiso   1.00
O1757  O     0.16666   0.87293   0.68513   0.00000  Uiso   1.00
O1758  O     0.16668   0.79373   0.81487   0.00000  Uiso   1.00
O1759  O     0.16668   0.87293   0.81487   0.00000  Uiso   1.00
O1760  O     0.16666   0.79373   0.68513   0.00000  Uiso   1.00
O1761  O     0.04241   0.75218   0.72292   0.00000  Uiso   1.00
C1762  C     0.05445   0.75323   0.67756   0.00000  Uiso   1.00
H1763  H     0.08024   0.72876   0.67319   0.00000  Uiso   1.00
H1764  H     0.06600   0.78746   0.66755   0.00000  Uiso   1.00
C1765  C     0.01998   0.73786   0.64633   0.00000  Uiso   1.00
H1766  H     0.32887   0.76452   0.64580   0.00000  Uiso   1.00
H1767  H     0.03201   0.73265   0.61188   0.00000  Uiso   1.00
H1768  H     0.00687   0.70507   0.65755   0.00000  Uiso   1.00
O1769  O     0.29161   0.91478   0.72943   0.00000  Uiso   1.00
C1770  C     0.28405   0.91521   0.68279   0.00000  Uiso   1.00
H1771  H     0.25998   0.94131   0.67694   0.00000  Uiso   1.00
H1772  H     0.27193   0.88192   0.66911   0.00000  Uiso   1.00
C1773  C     0.32209   0.92876   0.65687   0.00000  Uiso   1.00
H1774  H     0.01132   0.90003   0.65599   0.00000  Uiso   1.00
H1775  H     0.31359   0.93669   0.62199   0.00000  Uiso   1.00
H1776  H     0.00300   0.95953   0.67292   0.00000  Uiso   1.00
O1777  O     0.29347   0.74997   0.73182   0.00000  Uiso   1.00
C1778  C     0.29617   0.72590   0.77185   0.00000  Uiso   1.00
H1779  H     0.27690   0.74301   0.79781   0.00000  Uiso   1.00
H1780  H     0.32797   0.72386   0.78505   0.00000  Uiso   1.00
C1781  C     0.28180   0.67739   0.76236   0.00000  Uiso   1.00
H1782  H     0.30684   0.99255   0.74430   0.00000  Uiso   1.00
H1783  H     0.27470   0.99329   0.79386   0.00000  Uiso   1.00
H1784  H     0.25416   0.67723   0.74098   0.00000  Uiso   1.00
O1785  O     0.03776   0.91835   0.75445   0.00000  Uiso   1.00
C1786  C     0.04774   0.92571   0.80010   0.00000  Uiso   1.00
H1787  H     0.07145   0.95262   0.80127   0.00000  Uiso   1.00
H1788  H     0.06061   0.89451   0.81598   0.00000  Uiso   1.00
C1789  C     0.01184   0.94403   0.82785   0.00000  Uiso   1.00
H1790  H     0.31722   0.92356   0.82140   0.00000  Uiso   1.00
H1791  H     0.01952   0.94219   0.86389   0.00000  Uiso   1.00
H1792  H     0.00635   0.98067   0.82053   0.00000  Uiso   1.00
O1793  O     0.16300   0.70857   0.67086   0.00000  Uiso   1.00
C1794  C     0.20524   0.70507   0.66016   0.00000  Uiso   1.00
H1795  H     0.21782   0.67016   0.66647   0.00000  Uiso   1.00
H1796  H     0.22317   0.73045   0.68041   0.00000  Uiso   1.00
C1797  C     0.21220   0.71391   0.61088   0.00000  Uiso   1.00
H1798  H     0.21128   0.75129   0.60492   0.00000  Uiso   1.00
H1799  H     0.24290   0.70089   0.60078   0.00000  Uiso   1.00
H1800  H     0.18882   0.69614   0.58992   0.00000  Uiso   1.00
O1801  O     0.18015   0.95608   0.82855   0.00000  Uiso   1.00
C1802  C     0.14251   0.96235   0.85196   0.00000  Uiso   1.00
H1803  H     0.12242   0.93289   0.84398   0.00000  Uiso   1.00
H1804  H     0.12556   0.99438   0.84318   0.00000  Uiso   1.00
C1805  C     0.14911   0.96355   0.90265   0.00000  Uiso   1.00
H1806  H     0.13516   0.99521   0.91796   0.00000  Uiso   1.00
H1807  H     0.13419   0.93359   0.91791   0.00000  Uiso   1.00
H1808  H     0.18203   0.96308   0.91135   0.00000  Uiso   1.00
O1809  O     0.20793   0.71887   0.81346   0.00000  Uiso   1.00
C1810  C     0.20958   0.70754   0.85881   0.00000  Uiso   1.00
H1811  H     0.22382   0.67326   0.86314   0.00000  Uiso   1.00
H1812  H     0.17877   0.71088   0.87391   0.00000  Uiso   1.00
C1813  C     0.23758   0.74114   0.88378   0.00000  Uiso   1.00
H1814  H     0.23173   0.77694   0.87357   0.00000  Uiso   1.00
H1815  H     0.23253   0.73898   0.92035   0.00000  Uiso   1.00
H1816  H     0.27004   0.73248   0.87655   0.00000  Uiso   1.00
O1817  O     0.12397   0.95213   0.68622   0.00000  Uiso   1.00
C1818  C     0.13362   0.95249   0.64013   0.00000  Uiso   1.00
H1819  H     0.12925   0.91698   0.62671   0.00000  Uiso   1.00
H1820  H     0.16573   0.96127   0.63262   0.00000  Uiso   1.00
C1821  C     0.10336   0.98195   0.61440   0.00000  Uiso   1.00
H1822  H     0.11070   0.68561   0.61763   0.00000  Uiso   1.00
H1823  H     0.10482   0.97223   0.57829   0.00000  Uiso   1.00
H1824  H     0.07177   0.97627   0.62641   0.00000  Uiso   1.00
C1825  C     0.42083   0.83357   0.74869   0.00000  Uiso   1.00
C1826  C     0.57908   0.83305   0.74718   0.00000  Uiso   1.00
C1827  C     0.45174   0.76937   0.52125   0.00000  Uiso   1.00
C1828  C     0.55141   0.89360   0.97864   0.00000  Uiso   1.00
C1829  C     0.35531   0.79264   0.73454   0.00000  Uiso   1.00
C1830  C     0.64482   0.87445   0.73966   0.00000  Uiso   1.00
C1831  C     0.64620   0.79144   0.73805   0.00000  Uiso   1.00
C1832  C     0.35323   0.87561   0.74823   0.00000  Uiso   1.00
C1833  C     0.62378   0.83272   0.74196   0.00000  Uiso   1.00
C1834  C     0.37608   0.83403   0.74477   0.00000  Uiso   1.00
C1835  C     0.49100   0.68974   0.71216   0.00000  Uiso   1.00
C1836  C     0.51070   0.97697   0.78775   0.00000  Uiso   1.00
C1837  C     0.51448   0.69340   0.78626   0.00000  Uiso   1.00
C1838  C     0.48593   0.97402   0.71378   0.00000  Uiso   1.00
C1839  C     0.50013   0.83279   0.66459   0.00000  Uiso   1.00
C1840  C     0.49975   0.83378   0.83541   0.00000  Uiso   1.00
C1841  C     0.52562   0.86370   0.90764   0.00000  Uiso   1.00
C1842  C     0.47617   0.80068   0.59228   0.00000  Uiso   1.00
C1843  C     0.49957   0.83417   0.88374   0.00000  Uiso   1.00
C1844  C     0.50085   0.83176   0.61625   0.00000  Uiso   1.00
C1845  C     0.47523   0.80258   0.90580   0.00000  Uiso   1.00
C1846  C     0.52602   0.86246   0.59413   0.00000  Uiso   1.00
C1847  C     0.47587   0.80121   0.95222   0.00000  Uiso   1.00
C1848  C     0.52647   0.86263   0.54767   0.00000  Uiso   1.00
C1849  C     0.50123   0.83196   0.97657   0.00000  Uiso   1.00
C1850  C     0.50141   0.83155   0.52333   0.00000  Uiso   1.00
C1851  C     0.52632   0.86322   0.95416   0.00000  Uiso   1.00
C1852  C     0.47633   0.80027   0.54574   0.00000  Uiso   1.00
C1853  C     0.45150   0.76985   0.97469   0.00000  Uiso   1.00
C1854  C     0.55139   0.89341   0.52519   0.00000  Uiso   1.00
Cu1855 Cu    0.50000   0.88022   0.75000   0.00000  Uiso   1.00
Cu1856 Cu    0.50000   0.78645   0.75000   0.00000  Uiso   1.00
H1857  H     0.54536   0.88680   0.88994   0.00000  Uiso   1.00
H1858  H     0.45687   0.77707   0.60989   0.00000  Uiso   1.00
H1859  H     0.45573   0.77923   0.88672   0.00000  Uiso   1.00
H1860  H     0.54512   0.88622   0.61319   0.00000  Uiso   1.00
H1861  H     0.43213   0.74591   0.95626   0.00000  Uiso   1.00
H1862  H     0.57074   0.91738   0.54362   0.00000  Uiso   1.00
H1863  H     0.43256   0.74507   0.53812   0.00000  Uiso   1.00
H1864  H     0.57078   0.91771   0.96178   0.00000  Uiso   1.00
N1865  N     0.50000   0.95069   0.75000   0.00000  Uiso   1.00
N1866  N     0.50000   0.71598   0.75000   0.00000  Uiso   1.00
O1867  O     0.43988   0.87291   0.74999   0.00000  Uiso   1.00
O1868  O     0.56012   0.79375   0.75000   0.00000  Uiso   1.00
O1869  O     0.56012   0.87291   0.75000   0.00000  Uiso   1.00
O1870  O     0.43988   0.79375   0.74999   0.00000  Uiso   1.00
O1871  O     0.49999   0.87293   0.68513   0.00000  Uiso   1.00
O1872  O     0.50001   0.79373   0.81487   0.00000  Uiso   1.00
O1873  O     0.50001   0.87293   0.81487   0.00000  Uiso   1.00
O1874  O     0.49999   0.79373   0.68513   0.00000  Uiso   1.00
O1875  O     0.37574   0.75218   0.72292   0.00000  Uiso   1.00
C1876  C     0.38778   0.75323   0.67756   0.00000  Uiso   1.00
H1877  H     0.41357   0.72876   0.67319   0.00000  Uiso   1.00
H1878  H     0.39934   0.78746   0.66755   0.00000  Uiso   1.00
C1879  C     0.35331   0.73786   0.64633   0.00000  Uiso   1.00
H1880  H     0.66221   0.76452   0.64580   0.00000  Uiso   1.00
H1881  H     0.36535   0.73265   0.61188   0.00000  Uiso   1.00
H1882  H     0.34020   0.70507   0.65755   0.00000  Uiso   1.00
O1883  O     0.62494   0.91478   0.72943   0.00000  Uiso   1.00
C1884  C     0.61739   0.91521   0.68279   0.00000  Uiso   1.00
H1885  H     0.59331   0.94131   0.67694   0.00000  Uiso   1.00
H1886  H     0.60526   0.88192   0.66911   0.00000  Uiso   1.00
C1887  C     0.65542   0.92876   0.65687   0.00000  Uiso   1.00
H1888  H     0.34465   0.90003   0.65599   0.00000  Uiso   1.00
H1889  H     0.64692   0.93669   0.62199   0.00000  Uiso   1.00
H1890  H     0.33634   0.95953   0.67292   0.00000  Uiso   1.00
O1891  O     0.62681   0.74997   0.73182   0.00000  Uiso   1.00
C1892  C     0.62950   0.72590   0.77185   0.00000  Uiso   1.00
H1893  H     0.61023   0.74301   0.79781   0.00000  Uiso   1.00
H1894  H     0.66130   0.72386   0.78505   0.00000  Uiso   1.00
C1895  C     0.61514   0.67739   0.76236   0.00000  Uiso   1.00
H1896  H     0.64017   0.99255   0.74430   0.00000  Uiso   1.00
H1897  H     0.60803   0.99329   0.79386   0.00000  Uiso   1.00
H1898  H     0.58749   0.67723   0.74098   0.00000  Uiso   1.00
O1899  O     0.37109   0.91835   0.75445   0.00000  Uiso   1.00
C1900  C     0.38108   0.92571   0.80010   0.00000  Uiso   1.00
H1901  H     0.40478   0.95262   0.80127   0.00000  Uiso   1.00
H1902  H     0.39394   0.89451   0.81598   0.00000  Uiso   1.00
C1903  C     0.34517   0.94403   0.82785   0.00000  Uiso   1.00
H1904  H     0.65055   0.92356   0.82140   0.00000  Uiso   1.00
H1905  H     0.35285   0.94219   0.86389   0.00000  Uiso   1.00
H1906  H     0.33968   0.98067   0.82053   0.00000  Uiso   1.00
O1907  O     0.49633   0.70857   0.67086   0.00000  Uiso   1.00
C1908  C     0.53857   0.70507   0.66016   0.00000  Uiso   1.00
H1909  H     0.55115   0.67016   0.66647   0.00000  Uiso   1.00
H1910  H     0.55650   0.73045   0.68041   0.00000  Uiso   1.00
C1911  C     0.54553   0.71391   0.61088   0.00000  Uiso   1.00
H1912  H     0.54461   0.75129   0.60492   0.00000  Uiso   1.00
H1913  H     0.57623   0.70089   0.60078   0.00000  Uiso   1.00
H1914  H     0.52215   0.69614   0.58992   0.00000  Uiso   1.00
O1915  O     0.51348   0.95608   0.82855   0.00000  Uiso   1.00
C1916  C     0.47585   0.96235   0.85196   0.00000  Uiso   1.00
H1917  H     0.45575   0.93289   0.84398   0.00000  Uiso   1.00
H1918  H     0.45890   0.99438   0.84318   0.00000  Uiso   1.00
C1919  C     0.48244   0.96355   0.90265   0.00000  Uiso   1.00
H1920  H     0.46850   0.99521   0.91796   0.00000  Uiso   1.00
H1921  H     0.46752   0.93359   0.91791   0.00000  Uiso   1.00
H1922  H     0.51537   0.96308   0.91135   0.00000  Uiso   1.00
O1923  O     0.54126   0.71887   0.81346   0.00000  Uiso   1.00
C1924  C     0.54291   0.70754   0.85881   0.00000  Uiso   1.00
H1925  H     0.55715   0.67326   0.86314   0.00000  Uiso   1.00
H1926  H     0.51210   0.71088   0.87391   0.00000  Uiso   1.00
C1927  C     0.57091   0.74114   0.88378   0.00000  Uiso   1.00
H1928  H     0.56506   0.77694   0.87357   0.00000  Uiso   1.00
H1929  H     0.56586   0.73898   0.92035   0.00000  Uiso   1.00
H1930  H     0.60337   0.73248   0.87655   0.00000  Uiso   1.00
O1931  O     0.45730   0.95213   0.68622   0.00000  Uiso   1.00
C1932  C     0.46695   0.95249   0.64013   0.00000  Uiso   1.00
H1933  H     0.46259   0.91698   0.62671   0.00000  Uiso   1.00
H1934  H     0.49906   0.96127   0.63262   0.00000  Uiso   1.00
C1935  C     0.43669   0.98195   0.61440   0.00000  Uiso   1.00
H1936  H     0.44403   0.68561   0.61763   0.00000  Uiso   1.00
H1937  H     0.43815   0.97223   0.57829   0.00000  Uiso   1.00
H1938  H     0.40511   0.97627   0.62641   0.00000  Uiso   1.00
C1939  C     0.75416   0.83357   0.74869   0.00000  Uiso   1.00
C1940  C     0.91242   0.83305   0.74718   0.00000  Uiso   1.00
C1941  C     0.78507   0.76937   0.52125   0.00000  Uiso   1.00
C1942  C     0.88475   0.89360   0.97864   0.00000  Uiso   1.00
C1943  C     0.68864   0.79264   0.73454   0.00000  Uiso   1.00
C1944  C     0.97816   0.87445   0.73966   0.00000  Uiso   1.00
C1945  C     0.97954   0.79144   0.73805   0.00000  Uiso   1.00
C1946  C     0.68656   0.87561   0.74823   0.00000  Uiso   1.00
C1947  C     0.95712   0.83272   0.74196   0.00000  Uiso   1.00
C1948  C     0.70942   0.83403   0.74477   0.00000  Uiso   1.00
C1949  C     0.82434   0.68974   0.71216   0.00000  Uiso   1.00
C1950  C     0.84403   0.97697   0.78775   0.00000  Uiso   1.00
C1951  C     0.84782   0.69340   0.78626   0.00000  Uiso   1.00
C1952  C     0.81926   0.97402   0.71378   0.00000  Uiso   1.00
C1953  C     0.83347   0.83279   0.66459   0.00000  Uiso   1.00
C1954  C     0.83308   0.83378   0.83541   0.00000  Uiso   1.00
C1955  C     0.85895   0.86370   0.90764   0.00000  Uiso   1.00
C1956  C     0.80950   0.80068   0.59228   0.00000  Uiso   1.00
C1957  C     0.83290   0.83417   0.88374   0.00000  Uiso   1.00
C1958  C     0.83418   0.83176   0.61625   0.00000  Uiso   1.00
C1959  C     0.80856   0.80258   0.90580   0.00000  Uiso   1.00
C1960  C     0.85935   0.86246   0.59413   0.00000  Uiso   1.00
C1961  C     0.80920   0.80121   0.95222   0.00000  Uiso   1.00
C1962  C     0.85981   0.86263   0.54767   0.00000  Uiso   1.00
C1963  C     0.83457   0.83196   0.97657   0.00000  Uiso   1.00
C1964  C     0.83474   0.83155   0.52333   0.00000  Uiso   1.00
C1965  C     0.85965   0.86322   0.95416   0.00000  Uiso   1.00
C1966  C     0.80966   0.80027   0.54574   0.00000  Uiso   1.00
C1967  C     0.78484   0.76985   0.97469   0.00000  Uiso   1.00
C1968  C     0.88472   0.89341   0.52519   0.00000  Uiso   1.00
Cu1969 Cu    0.83333   0.88022   0.75000   0.00000  Uiso   1.00
Cu1970 Cu    0.83333   0.78645   0.75000   0.00000  Uiso   1.00
H1971  H     0.87869   0.88680   0.88994   0.00000  Uiso   1.00
H1972  H     0.79020   0.77707   0.60989   0.00000  Uiso   1.00
H1973  H     0.78906   0.77923   0.88672   0.00000  Uiso   1.00
H1974  H     0.87845   0.88622   0.61319   0.00000  Uiso   1.00
H1975  H     0.76547   0.74591   0.95626   0.00000  Uiso   1.00
H1976  H     0.90407   0.91738   0.54362   0.00000  Uiso   1.00
H1977  H     0.76589   0.74507   0.53812   0.00000  Uiso   1.00
H1978  H     0.90411   0.91771   0.96178   0.00000  Uiso   1.00
N1979  N     0.83333   0.95069   0.75000   0.00000  Uiso   1.00
N1980  N     0.83333   0.71598   0.75000   0.00000  Uiso   1.00
O1981  O     0.77321   0.87291   0.74999   0.00000  Uiso   1.00
O1982  O     0.89345   0.79375   0.75000   0.00000  Uiso   1.00
O1983  O     0.89345   0.87291   0.75000   0.00000  Uiso   1.00
O1984  O     0.77321   0.79375   0.74999   0.00000  Uiso   1.00
O1985  O     0.83332   0.87293   0.68513   0.00000  Uiso   1.00
O1986  O     0.83334   0.79373   0.81487   0.00000  Uiso   1.00
O1987  O     0.83334   0.87293   0.81487   0.00000  Uiso   1.00
O1988  O     0.83332   0.79373   0.68513   0.00000  Uiso   1.00
O1989  O     0.70908   0.75218   0.72292   0.00000  Uiso   1.00
C1990  C     0.72111   0.75323   0.67756   0.00000  Uiso   1.00
H1991  H     0.74690   0.72876   0.67319   0.00000  Uiso   1.00
H1992  H     0.73267   0.78746   0.66755   0.00000  Uiso   1.00
C1993  C     0.68664   0.73786   0.64633   0.00000  Uiso   1.00
H1994  H     0.99554   0.76452   0.64580   0.00000  Uiso   1.00
H1995  H     0.69868   0.73265   0.61188   0.00000  Uiso   1.00
H1996  H     0.67353   0.70507   0.65755   0.00000  Uiso   1.00
O1997  O     0.95828   0.91478   0.72943   0.00000  Uiso   1.00
C1998  C     0.95072   0.91521   0.68279   0.00000  Uiso   1.00
H1999  H     0.92665   0.94131   0.67694   0.00000  Uiso   1.00
H2000  H     0.93860   0.88192   0.66911   0.00000  Uiso   1.00
C2001  C     0.98876   0.92876   0.65687   0.00000  Uiso   1.00
H2002  H     0.67798   0.90003   0.65599   0.00000  Uiso   1.00
H2003  H     0.98026   0.93669   0.62199   0.00000  Uiso   1.00
H2004  H     0.66967   0.95953   0.67292   0.00000  Uiso   1.00
O2005  O     0.96014   0.74997   0.73182   0.00000  Uiso   1.00
C2006  C     0.96284   0.72590   0.77185   0.00000  Uiso   1.00
H2007  H     0.94357   0.74301   0.79781   0.00000  Uiso   1.00
H2008  H     0.99463   0.72386   0.78505   0.00000  Uiso   1.00
C2009  C     0.94847   0.67739   0.76236   0.00000  Uiso   1.00
H2010  H     0.97351   0.99255   0.74430   0.00000  Uiso   1.00
H2011  H     0.94136   0.99329   0.79386   0.00000  Uiso   1.00
H2012  H     0.92082   0.67723   0.74098   0.00000  Uiso   1.00
O2013  O     0.70443   0.91835   0.75445   0.00000  Uiso   1.00
C2014  C     0.71441   0.92571   0.80010   0.00000  Uiso   1.00
H2015  H     0.73811   0.95262   0.80127   0.00000  Uiso   1.00
H2016  H     0.72727   0.89451   0.81598   0.00000  Uiso   1.00
C2017  C     0.67851   0.94403   0.82785   0.00000  Uiso   1.00
H2018  H     0.98388   0.92356   0.82140   0.00000  Uiso   1.00
H2019  H     0.68619   0.94219   0.86389   0.00000  Uiso   1.00
H2020  H     0.67302   0.98067   0.82053   0.00000  Uiso   1.00
O2021  O     0.82967   0.70857   0.67086   0.00000  Uiso   1.00
C2022  C     0.87191   0.70507   0.66016   0.00000  Uiso   1.00
H2023  H     0.88448   0.67016   0.66647   0.00000  Uiso   1.00
H2024  H     0.88984   0.73045   0.68041   0.00000  Uiso   1.00
C2025  C     0.87887   0.71391   0.61088   0.00000  Uiso   1.00
H2026  H     0.87794   0.75129   0.60492   0.00000  Uiso   1.00
H2027  H     0.90956   0.70089   0.60078   0.00000  Uiso   1.00
H2028  H     0.85549   0.69614   0.58992   0.00000  Uiso   1.00
O2029  O     0.84681   0.95608   0.82855   0.00000  Uiso   1.00
C2030  C     0.80918   0.96235   0.85196   0.00000  Uiso   1.00
H2031  H     0.78909   0.93289   0.84398   0.00000  Uiso   1.00
H2032  H     0.79223   0.99438   0.84318   0.00000  Uiso   1.00
C2033  C     0.81578   0.96355   0.90265   0.00000  Uiso   1.00
H2034  H     0.80183   0.99521   0.91796   0.00000  Uiso   1.00
H2035  H     0.80085   0.93359   0.91791   0.00000  Uiso   1.00
H2036  H     0.84870   0.96308   0.91135   0.00000  Uiso   1.00
O2037  O     0.87460   0.71887   0.81346   0.00000  Uiso   1.00
C2038  C     0.87625   0.70754   0.85881   0.00000  Uiso   1.00
H2039  H     0.89049   0.67326   0.86314   0.00000  Uiso   1.00
H2040  H     0.84544   0.71088   0.87391   0.00000  Uiso   1.00
C2041  C     0.90425   0.74114   0.88378   0.00000  Uiso   1.00
H2042  H     0.89840   0.77694   0.87357   0.00000  Uiso   1.00
H2043  H     0.89919   0.73898   0.92035   0.00000  Uiso   1.00
H2044  H     0.93671   0.73248   0.87655   0.00000  Uiso   1.00
O2045  O     0.79064   0.95213   0.68622   0.00000  Uiso   1.00
C2046  C     0.80028   0.95249   0.64013   0.00000  Uiso   1.00
H2047  H     0.79592   0.91698   0.62671   0.00000  Uiso   1.00
H2048  H     0.83240   0.96127   0.63262   0.00000  Uiso   1.00
C2049  C     0.77002   0.98195   0.61440   0.00000  Uiso   1.00
H2050  H     0.77737   0.68561   0.61763   0.00000  Uiso   1.00
H2051  H     0.77148   0.97223   0.57829   0.00000  Uiso   1.00
H2052  H     0.73844   0.97627   0.62641   0.00000  Uiso   1.00
loop_
_geom_bond_atom_site_label_1
_geom_bond_atom_site_label_2
_geom_bond_distance
_geom_bond_site_symmetry_2
_ccdc_geom_bond_type
C1     O46     1.311   .     A
C1     O43     1.306   .     A
C1     C10     1.470   .     S
C2     O44     1.308   .     A
C2     O45     1.311   .     A
C2     C9      1.472   .     S
C3     C28     1.401   .     A
C3     H39     1.084   .     S
C3     C1055   1.395   1_554 S
C4     H40     1.084   .     S
C4     C27     1.401   .     A
C4     C1056   1.394   .     S
C5     C10     1.412   .     A
C5     O51     1.384   .     S
C5     C235    1.395   1_455 S
C6     C9      1.402   .     A
C6     O59     1.378   .     S
C6     C122    1.391   .     S
C7     C9      1.403   .     A
C7     O67     1.374   .     S
C7     C119    1.395   .     S
C8     O75     1.384   .     S
C8     C10     1.417   .     A
C8     C234    1.391   1_455 S
C11    N42     1.380   .     A
C11    O83     1.378   .     S
C11    C698    1.438   1_545 S
C12    O91     1.382   .     S
C12    N41     1.392   .     A
C12    C355    1.453   .     S
C13    N42     1.367   .     A
C13    O99     1.398   .     S
C13    C696    1.453   1_545 S
C14    N41     1.372   .     A
C14    O107    1.393   .     S
C14    C353    1.438   .     S
C15    O47     1.303   .     A
C15    O50     1.306   .     A
C15    C20     1.447   .     S
C16    O48     1.300   .     A
C16    O49     1.308   .     A
C16    C19     1.447   .     S
C17    H33     1.085   .     S
C17    C27     1.394   .     A
C17    C19     1.397   .     A
C18    C28     1.393   .     A
C18    H34     1.084   .     S
C18    C20     1.399   .     A
C19    C21     1.400   .     A
C20    C22     1.399   .     A
C21    C23     1.392   .     A
C21    H35     1.085   .     S
C22    C24     1.391   .     A
C22    H36     1.085   .     S
C23    C29     1.402   .     A
C23    C25     1.411   .     A
C24    C26     1.411   .     A
C24    C30     1.402   .     A
C25    C27     1.413   .     A
C25    C1052   1.401   .     S
C26    C28     1.413   .     A
C26    C1051   1.401   1_554 S
C29    H37     1.084   .     S
C29    C1029   1.395   .     S
C30    H38     1.084   .     S
C30    C1030   1.394   1_554 S
Cu31   O43     1.982   .     S
Cu31   O47     1.948   .     S
Cu31   O49     1.960   .     S
Cu31   N41     2.047   .     S
Cu31   Cu32    2.724   .     S
Cu31   O45     1.979   .     S
Cu32   O48     1.948   .     S
Cu32   O44     1.982   .     S
Cu32   O50     1.960   .     S
Cu32   O46     1.979   .     S
Cu32   N42     2.047   .     S
O51    C52     1.416   .     S
C52    C55     1.526   .     S
C52    H54     1.115   .     S
C52    H53     1.106   .     S
C55    H58     1.108   .     S
C55    H57     1.110   .     S
C55    H284    1.110   1_455 S
H56    C169    1.110   .     S
O59    C60     1.419   .     S
C60    C63     1.528   .     S
C60    H62     1.115   .     S
C60    H61     1.107   .     S
C63    H65     1.110   .     S
C63    H178    1.110   .     S
C63    H180    1.108   .     S
H64    C291    1.110   1_455 S
H66    C291    1.108   1_455 S
O67    C68     1.407   .     S
C68    C71     1.508   .     S
C68    H69     1.106   .     S
C68    H70     1.115   .     S
C71    H74     1.108   .     S
C71    H756    1.105   1_545 S
C71    H757    1.109   1_545 S
H72    C413    1.105   .     S
H73    C413    1.109   .     S
O75    C76     1.416   .     S
C76    C79     1.524   .     S
C76    H77     1.106   .     S
C76    H78     1.115   .     S
C79    H81     1.110   .     S
C79    H82     1.106   .     S
C79    H308    1.109   1_455 S
H80    C193    1.109   .     S
O83    C84     1.423   .     S
C84    C87     1.523   .     S
C84    H86     1.112   .     S
C84    H85     1.113   .     S
C87    H88     1.105   .     S
C87    H90     1.110   .     S
C87    H89     1.111   .     S
O91    C92     1.426   .     S
C92    H93     1.104   .     S
C92    H94     1.117   .     S
C92    C95     1.532   .     S
C95    H96     1.111   .     S
C95    H98     1.109   .     S
C95    H97     1.111   .     S
O99    C100    1.407   .     S
C100   H102    1.109   .     S
C100   H101    1.107   .     S
C100   C103    1.524   .     S
C103   H106    1.111   .     S
C103   H105    1.111   .     S
C103   H104    1.107   .     S
O107   C108    1.417   .     S
C108   H109    1.106   .     S
C108   C111    1.527   .     S
C108   H110    1.109   .     S
C111   H113    1.111   .     S
C111   H114    1.111   .     S
C111   H454    1.104   .     S
H112   C795    1.104   1_545 S
C115   O160    1.311   .     A
C115   O157    1.306   .     A
C115   C124    1.470   .     S
C116   O158    1.308   .     A
C116   O159    1.311   .     A
C116   C123    1.472   .     S
C117   C142    1.401   .     A
C117   H153    1.084   .     S
C117   C1169   1.395   1_554 S
C118   H154    1.084   .     S
C118   C141    1.401   .     A
C118   C1170   1.394   .     S
C119   C124    1.412   .     A
C119   O165    1.384   .     S
C120   C123    1.402   .     A
C120   O173    1.378   .     S
C120   C236    1.391   .     S
C121   C123    1.403   .     A
C121   O181    1.374   .     S
C121   C233    1.395   .     S
C122   O189    1.384   .     S
C122   C124    1.417   .     A
C125   N156    1.380   .     A
C125   O197    1.378   .     S
C125   C812    1.438   1_545 S
C126   O205    1.382   .     S
C126   N155    1.392   .     A
C126   C469    1.453   .     S
C127   N156    1.367   .     A
C127   O213    1.398   .     S
C127   C810    1.453   1_545 S
C128   N155    1.372   .     A
C128   O221    1.393   .     S
C128   C467    1.438   .     S
C129   O161    1.303   .     A
C129   O164    1.306   .     A
C129   C134    1.447   .     S
C130   O162    1.300   .     A
C130   O163    1.308   .     A
C130   C133    1.447   .     S
C131   H147    1.085   .     S
C131   C141    1.394   .     A
C131   C133    1.397   .     A
C132   C142    1.393   .     A
C132   H148    1.084   .     S
C132   C134    1.399   .     A
C133   C135    1.400   .     A
C134   C136    1.399   .     A
C135   C137    1.392   .     A
C135   H149    1.085   .     S
C136   C138    1.391   .     A
C136   H150    1.085   .     S
C137   C143    1.402   .     A
C137   C139    1.411   .     A
C138   C140    1.411   .     A
C138   C144    1.402   .     A
C139   C141    1.413   .     A
C139   C1166   1.401   .     S
C140   C142    1.413   .     A
C140   C1165   1.401   1_554 S
C143   H151    1.084   .     S
C143   C1143   1.395   .     S
C144   H152    1.084   .     S
C144   C1144   1.394   1_554 S
Cu145  O157    1.982   .     S
Cu145  O161    1.948   .     S
Cu145  O163    1.960   .     S
Cu145  N155    2.047   .     S
Cu145  Cu146   2.724   .     S
Cu145  O159    1.979   .     S
Cu146  O162    1.948   .     S
Cu146  O158    1.982   .     S
Cu146  O164    1.960   .     S
Cu146  O160    1.979   .     S
Cu146  N156    2.047   .     S
O165   C166    1.416   .     S
C166   C169    1.526   .     S
C166   H168    1.115   .     S
C166   H167    1.106   .     S
C169   H172    1.108   .     S
C169   H171    1.110   .     S
H170   C283    1.110   .     S
O173   C174    1.419   .     S
C174   C177    1.528   .     S
C174   H176    1.115   .     S
C174   H175    1.107   .     S
C177   H179    1.110   .     S
C177   H292    1.110   .     S
C177   H294    1.108   .     S
O181   C182    1.407   .     S
C182   C185    1.508   .     S
C182   H183    1.106   .     S
C182   H184    1.115   .     S
C185   H188    1.108   .     S
C185   H870    1.105   1_545 S
C185   H871    1.109   1_545 S
H186   C527    1.105   .     S
H187   C527    1.109   .     S
O189   C190    1.416   .     S
C190   C193    1.524   .     S
C190   H191    1.106   .     S
C190   H192    1.115   .     S
C193   H195    1.110   .     S
C193   H196    1.106   .     S
H194   C307    1.109   .     S
O197   C198    1.423   .     S
C198   C201    1.523   .     S
C198   H200    1.112   .     S
C198   H199    1.113   .     S
C201   H202    1.105   .     S
C201   H204    1.110   .     S
C201   H203    1.111   .     S
O205   C206    1.426   .     S
C206   H207    1.104   .     S
C206   H208    1.117   .     S
C206   C209    1.532   .     S
C209   H210    1.111   .     S
C209   H212    1.109   .     S
C209   H211    1.111   .     S
O213   C214    1.407   .     S
C214   H216    1.109   .     S
C214   H215    1.107   .     S
C214   C217    1.524   .     S
C217   H220    1.111   .     S
C217   H219    1.111   .     S
C217   H218    1.107   .     S
O221   C222    1.417   .     S
C222   H223    1.106   .     S
C222   C225    1.527   .     S
C222   H224    1.109   .     S
C225   H227    1.111   .     S
C225   H228    1.111   .     S
C225   H568    1.104   .     S
H226   C909    1.104   1_545 S
C229   O274    1.311   .     A
C229   O271    1.306   .     A
C229   C238    1.470   .     S
C230   O272    1.308   .     A
C230   O273    1.311   .     A
C230   C237    1.472   .     S
C231   C256    1.401   .     A
C231   H267    1.084   .     S
C231   C1283   1.395   1_554 S
C232   H268    1.084   .     S
C232   C255    1.401   .     A
C232   C1284   1.394   .     S
C233   C238    1.412   .     A
C233   O279    1.384   .     S
C234   C237    1.402   .     A
C234   O287    1.378   .     S
C234   C8      1.391   1_655 S
C235   C237    1.403   .     A
C235   O295    1.374   .     S
C235   C5      1.395   1_655 S
C236   O303    1.384   .     S
C236   C238    1.417   .     A
C239   N270    1.380   .     A
C239   O311    1.378   .     S
C239   C926    1.438   1_545 S
C240   O319    1.382   .     S
C240   N269    1.392   .     A
C240   C583    1.453   .     S
C241   N270    1.367   .     A
C241   O327    1.398   .     S
C241   C924    1.453   1_545 S
C242   N269    1.372   .     A
C242   O335    1.393   .     S
C242   C581    1.438   .     S
C243   O275    1.303   .     A
C243   O278    1.306   .     A
C243   C248    1.447   .     S
C244   O276    1.300   .     A
C244   O277    1.308   .     A
C244   C247    1.447   .     S
C245   H261    1.085   .     S
C245   C255    1.394   .     A
C245   C247    1.397   .     A
C246   C256    1.393   .     A
C246   H262    1.084   .     S
C246   C248    1.399   .     A
C247   C249    1.400   .     A
C248   C250    1.399   .     A
C249   C251    1.392   .     A
C249   H263    1.085   .     S
C250   C252    1.391   .     A
C250   H264    1.085   .     S
C251   C257    1.402   .     A
C251   C253    1.411   .     A
C252   C254    1.411   .     A
C252   C258    1.402   .     A
C253   C255    1.413   .     A
C253   C1280   1.401   .     S
C254   C256    1.413   .     A
C254   C1279   1.401   1_554 S
C257   H265    1.084   .     S
C257   C1257   1.395   .     S
C258   H266    1.084   .     S
C258   C1258   1.394   1_554 S
Cu259  O271    1.982   .     S
Cu259  O275    1.948   .     S
Cu259  O277    1.960   .     S
Cu259  N269    2.047   .     S
Cu259  Cu260   2.724   .     S
Cu259  O273    1.979   .     S
Cu260  O276    1.948   .     S
Cu260  O272    1.982   .     S
Cu260  O278    1.960   .     S
Cu260  O274    1.979   .     S
Cu260  N270    2.047   .     S
O279   C280    1.416   .     S
C280   C283    1.526   .     S
C280   H282    1.115   .     S
C280   H281    1.106   .     S
C283   H286    1.108   .     S
C283   H285    1.110   .     S
H284   C55     1.110   1_655 S
O287   C288    1.419   .     S
C288   C291    1.528   .     S
C288   H290    1.115   .     S
C288   H289    1.107   .     S
C291   H293    1.110   .     S
C291   H64     1.110   1_655 S
C291   H66     1.108   1_655 S
O295   C296    1.407   .     S
C296   C299    1.508   .     S
C296   H297    1.106   .     S
C296   H298    1.115   .     S
C299   H302    1.108   .     S
C299   H984    1.105   1_545 S
C299   H985    1.109   1_545 S
H300   C641    1.105   .     S
H301   C641    1.109   .     S
O303   C304    1.416   .     S
C304   C307    1.524   .     S
C304   H305    1.106   .     S
C304   H306    1.115   .     S
C307   H309    1.110   .     S
C307   H310    1.106   .     S
H308   C79     1.109   1_655 S
O311   C312    1.423   .     S
C312   C315    1.523   .     S
C312   H314    1.112   .     S
C312   H313    1.113   .     S
C315   H316    1.105   .     S
C315   H318    1.110   .     S
C315   H317    1.111   .     S
O319   C320    1.426   .     S
C320   H321    1.104   .     S
C320   H322    1.117   .     S
C320   C323    1.532   .     S
C323   H324    1.111   .     S
C323   H326    1.109   .     S
C323   H325    1.111   .     S
O327   C328    1.407   .     S
C328   H330    1.109   .     S
C328   H329    1.107   .     S
C328   C331    1.524   .     S
C331   H334    1.111   .     S
C331   H333    1.111   .     S
C331   H332    1.107   .     S
O335   C336    1.417   .     S
C336   H337    1.106   .     S
C336   C339    1.527   .     S
C336   H338    1.109   .     S
C339   H341    1.111   .     S
C339   H342    1.111   .     S
C339   H682    1.104   .     S
H340   C1023   1.104   1_545 S
C343   O388    1.311   .     A
C343   O385    1.306   .     A
C343   C352    1.470   .     S
C344   O386    1.308   .     A
C344   O387    1.311   .     A
C344   C351    1.472   .     S
C345   C370    1.401   .     A
C345   H381    1.084   .     S
C345   C1397   1.395   1_554 S
C346   H382    1.084   .     S
C346   C369    1.401   .     A
C346   C1398   1.394   .     S
C347   C352    1.412   .     A
C347   O393    1.384   .     S
C347   C577    1.395   1_455 S
C348   C351    1.402   .     A
C348   O401    1.378   .     S
C348   C464    1.391   .     S
C349   C351    1.403   .     A
C349   O409    1.374   .     S
C349   C461    1.395   .     S
C350   O417    1.384   .     S
C350   C352    1.417   .     A
C350   C576    1.391   1_455 S
C353   N384    1.380   .     A
C353   O425    1.378   .     S
C354   O433    1.382   .     S
C354   N383    1.392   .     A
C354   C697    1.453   .     S
C355   N384    1.367   .     A
C355   O441    1.398   .     S
C356   N383    1.372   .     A
C356   O449    1.393   .     S
C356   C695    1.438   .     S
C357   O389    1.303   .     A
C357   O392    1.306   .     A
C357   C362    1.447   .     S
C358   O390    1.300   .     A
C358   O391    1.308   .     A
C358   C361    1.447   .     S
C359   H375    1.085   .     S
C359   C369    1.394   .     A
C359   C361    1.397   .     A
C360   C370    1.393   .     A
C360   H376    1.084   .     S
C360   C362    1.399   .     A
C361   C363    1.400   .     A
C362   C364    1.399   .     A
C363   C365    1.392   .     A
C363   H377    1.085   .     S
C364   C366    1.391   .     A
C364   H378    1.085   .     S
C365   C371    1.402   .     A
C365   C367    1.411   .     A
C366   C368    1.411   .     A
C366   C372    1.402   .     A
C367   C369    1.413   .     A
C367   C1394   1.401   .     S
C368   C370    1.413   .     A
C368   C1393   1.401   1_554 S
C371   H379    1.084   .     S
C371   C1371   1.395   .     S
C372   H380    1.084   .     S
C372   C1372   1.394   1_554 S
Cu373  O385    1.982   .     S
Cu373  O389    1.948   .     S
Cu373  O391    1.960   .     S
Cu373  N383    2.047   .     S
Cu373  Cu374   2.724   .     S
Cu373  O387    1.979   .     S
Cu374  O390    1.948   .     S
Cu374  O386    1.982   .     S
Cu374  O392    1.960   .     S
Cu374  O388    1.979   .     S
Cu374  N384    2.047   .     S
O393   C394    1.416   .     S
C394   C397    1.526   .     S
C394   H396    1.115   .     S
C394   H395    1.106   .     S
C397   H400    1.108   .     S
C397   H399    1.110   .     S
C397   H626    1.110   1_455 S
H398   C511    1.110   .     S
O401   C402    1.419   .     S
C402   C405    1.528   .     S
C402   H404    1.115   .     S
C402   H403    1.107   .     S
C405   H407    1.110   .     S
C405   H520    1.110   .     S
C405   H522    1.108   .     S
H406   C633    1.110   1_455 S
H408   C633    1.108   1_455 S
O409   C410    1.407   .     S
C410   C413    1.508   .     S
C410   H411    1.106   .     S
C410   H412    1.115   .     S
C413   H416    1.108   .     S
H414   C755    1.105   .     S
H415   C755    1.109   .     S
O417   C418    1.416   .     S
C418   C421    1.524   .     S
C418   H419    1.106   .     S
C418   H420    1.115   .     S
C421   H423    1.110   .     S
C421   H424    1.106   .     S
C421   H650    1.109   1_455 S
H422   C535    1.109   .     S
O425   C426    1.423   .     S
C426   C429    1.523   .     S
C426   H428    1.112   .     S
C426   H427    1.113   .     S
C429   H430    1.105   .     S
C429   H432    1.110   .     S
C429   H431    1.111   .     S
O433   C434    1.426   .     S
C434   H435    1.104   .     S
C434   H436    1.117   .     S
C434   C437    1.532   .     S
C437   H438    1.111   .     S
C437   H440    1.109   .     S
C437   H439    1.111   .     S
O441   C442    1.407   .     S
C442   H444    1.109   .     S
C442   H443    1.107   .     S
C442   C445    1.524   .     S
C445   H448    1.111   .     S
C445   H447    1.111   .     S
C445   H446    1.107   .     S
O449   C450    1.417   .     S
C450   H451    1.106   .     S
C450   C453    1.527   .     S
C450   H452    1.109   .     S
C453   H455    1.111   .     S
C453   H456    1.111   .     S
C453   H796    1.104   .     S
C457   O502    1.311   .     A
C457   O499    1.306   .     A
C457   C466    1.470   .     S
C458   O500    1.308   .     A
C458   O501    1.311   .     A
C458   C465    1.472   .     S
C459   C484    1.401   .     A
C459   H495    1.084   .     S
C459   C1511   1.395   1_554 S
C460   H496    1.084   .     S
C460   C483    1.401   .     A
C460   C1512   1.394   .     S
C461   C466    1.412   .     A
C461   O507    1.384   .     S
C462   C465    1.402   .     A
C462   O515    1.378   .     S
C462   C578    1.391   .     S
C463   C465    1.403   .     A
C463   O523    1.374   .     S
C463   C575    1.395   .     S
C464   O531    1.384   .     S
C464   C466    1.417   .     A
C467   N498    1.380   .     A
C467   O539    1.378   .     S
C468   O547    1.382   .     S
C468   N497    1.392   .     A
C468   C811    1.453   .     S
C469   N498    1.367   .     A
C469   O555    1.398   .     S
C470   N497    1.372   .     A
C470   O563    1.393   .     S
C470   C809    1.438   .     S
C471   O503    1.303   .     A
C471   O506    1.306   .     A
C471   C476    1.447   .     S
C472   O504    1.300   .     A
C472   O505    1.308   .     A
C472   C475    1.447   .     S
C473   H489    1.085   .     S
C473   C483    1.394   .     A
C473   C475    1.397   .     A
C474   C484    1.393   .     A
C474   H490    1.084   .     S
C474   C476    1.399   .     A
C475   C477    1.400   .     A
C476   C478    1.399   .     A
C477   C479    1.392   .     A
C477   H491    1.085   .     S
C478   C480    1.391   .     A
C478   H492    1.085   .     S
C479   C485    1.402   .     A
C479   C481    1.411   .     A
C480   C482    1.411   .     A
C480   C486    1.402   .     A
C481   C483    1.413   .     A
C481   C1508   1.401   .     S
C482   C484    1.413   .     A
C482   C1507   1.401   1_554 S
C485   H493    1.084   .     S
C485   C1485   1.395   .     S
C486   H494    1.084   .     S
C486   C1486   1.394   1_554 S
Cu487  O499    1.982   .     S
Cu487  O503    1.948   .     S
Cu487  O505    1.960   .     S
Cu487  N497    2.047   .     S
Cu487  Cu488   2.724   .     S
Cu487  O501    1.979   .     S
Cu488  O504    1.948   .     S
Cu488  O500    1.982   .     S
Cu488  O506    1.960   .     S
Cu488  O502    1.979   .     S
Cu488  N498    2.047   .     S
O507   C508    1.416   .     S
C508   C511    1.526   .     S
C508   H510    1.115   .     S
C508   H509    1.106   .     S
C511   H514    1.108   .     S
C511   H513    1.110   .     S
H512   C625    1.110   .     S
O515   C516    1.419   .     S
C516   C519    1.528   .     S
C516   H518    1.115   .     S
C516   H517    1.107   .     S
C519   H521    1.110   .     S
C519   H634    1.110   .     S
C519   H636    1.108   .     S
O523   C524    1.407   .     S
C524   C527    1.508   .     S
C524   H525    1.106   .     S
C524   H526    1.115   .     S
C527   H530    1.108   .     S
H528   C869    1.105   .     S
H529   C869    1.109   .     S
O531   C532    1.416   .     S
C532   C535    1.524   .     S
C532   H533    1.106   .     S
C532   H534    1.115   .     S
C535   H537    1.110   .     S
C535   H538    1.106   .     S
H536   C649    1.109   .     S
O539   C540    1.423   .     S
C540   C543    1.523   .     S
C540   H542    1.112   .     S
C540   H541    1.113   .     S
C543   H544    1.105   .     S
C543   H546    1.110   .     S
C543   H545    1.111   .     S
O547   C548    1.426   .     S
C548   H549    1.104   .     S
C548   H550    1.117   .     S
C548   C551    1.532   .     S
C551   H552    1.111   .     S
C551   H554    1.109   .     S
C551   H553    1.111   .     S
O555   C556    1.407   .     S
C556   H558    1.109   .     S
C556   H557    1.107   .     S
C556   C559    1.524   .     S
C559   H562    1.111   .     S
C559   H561    1.111   .     S
C559   H560    1.107   .     S
O563   C564    1.417   .     S
C564   H565    1.106   .     S
C564   C567    1.527   .     S
C564   H566    1.109   .     S
C567   H569    1.111   .     S
C567   H570    1.111   .     S
C567   H910    1.104   .     S
C571   O616    1.311   .     A
C571   O613    1.306   .     A
C571   C580    1.470   .     S
C572   O614    1.308   .     A
C572   O615    1.311   .     A
C572   C579    1.472   .     S
C573   C598    1.401   .     A
C573   H609    1.084   .     S
C573   C1625   1.395   1_554 S
C574   H610    1.084   .     S
C574   C597    1.401   .     A
C574   C1626   1.394   .     S
C575   C580    1.412   .     A
C575   O621    1.384   .     S
C576   C579    1.402   .     A
C576   O629    1.378   .     S
C576   C350    1.391   1_655 S
C577   C579    1.403   .     A
C577   O637    1.374   .     S
C577   C347    1.395   1_655 S
C578   O645    1.384   .     S
C578   C580    1.417   .     A
C581   N612    1.380   .     A
C581   O653    1.378   .     S
C582   O661    1.382   .     S
C582   N611    1.392   .     A
C582   C925    1.453   .     S
C583   N612    1.367   .     A
C583   O669    1.398   .     S
C584   N611    1.372   .     A
C584   O677    1.393   .     S
C584   C923    1.438   .     S
C585   O617    1.303   .     A
C585   O620    1.306   .     A
C585   C590    1.447   .     S
C586   O618    1.300   .     A
C586   O619    1.308   .     A
C586   C589    1.447   .     S
C587   H603    1.085   .     S
C587   C597    1.394   .     A
C587   C589    1.397   .     A
C588   C598    1.393   .     A
C588   H604    1.084   .     S
C588   C590    1.399   .     A
C589   C591    1.400   .     A
C590   C592    1.399   .     A
C591   C593    1.392   .     A
C591   H605    1.085   .     S
C592   C594    1.391   .     A
C592   H606    1.085   .     S
C593   C599    1.402   .     A
C593   C595    1.411   .     A
C594   C596    1.411   .     A
C594   C600    1.402   .     A
C595   C597    1.413   .     A
C595   C1622   1.401   .     S
C596   C598    1.413   .     A
C596   C1621   1.401   1_554 S
C599   H607    1.084   .     S
C599   C1599   1.395   .     S
C600   H608    1.084   .     S
C600   C1600   1.394   1_554 S
Cu601  O613    1.982   .     S
Cu601  O617    1.948   .     S
Cu601  O619    1.960   .     S
Cu601  N611    2.047   .     S
Cu601  Cu602   2.724   .     S
Cu601  O615    1.979   .     S
Cu602  O618    1.948   .     S
Cu602  O614    1.982   .     S
Cu602  O620    1.960   .     S
Cu602  O616    1.979   .     S
Cu602  N612    2.047   .     S
O621   C622    1.416   .     S
C622   C625    1.526   .     S
C622   H624    1.115   .     S
C622   H623    1.106   .     S
C625   H628    1.108   .     S
C625   H627    1.110   .     S
H626   C397    1.110   1_655 S
O629   C630    1.419   .     S
C630   C633    1.528   .     S
C630   H632    1.115   .     S
C630   H631    1.107   .     S
C633   H635    1.110   .     S
C633   H406    1.110   1_655 S
C633   H408    1.108   1_655 S
O637   C638    1.407   .     S
C638   C641    1.508   .     S
C638   H639    1.106   .     S
C638   H640    1.115   .     S
C641   H644    1.108   .     S
H642   C983    1.105   .     S
H643   C983    1.109   .     S
O645   C646    1.416   .     S
C646   C649    1.524   .     S
C646   H647    1.106   .     S
C646   H648    1.115   .     S
C649   H651    1.110   .     S
C649   H652    1.106   .     S
H650   C421    1.109   1_655 S
O653   C654    1.423   .     S
C654   C657    1.523   .     S
C654   H656    1.112   .     S
C654   H655    1.113   .     S
C657   H658    1.105   .     S
C657   H660    1.110   .     S
C657   H659    1.111   .     S
O661   C662    1.426   .     S
C662   H663    1.104   .     S
C662   H664    1.117   .     S
C662   C665    1.532   .     S
C665   H666    1.111   .     S
C665   H668    1.109   .     S
C665   H667    1.111   .     S
O669   C670    1.407   .     S
C670   H672    1.109   .     S
C670   H671    1.107   .     S
C670   C673    1.524   .     S
C673   H676    1.111   .     S
C673   H675    1.111   .     S
C673   H674    1.107   .     S
O677   C678    1.417   .     S
C678   H679    1.106   .     S
C678   C681    1.527   .     S
C678   H680    1.109   .     S
C681   H683    1.111   .     S
C681   H684    1.111   .     S
C681   H1024   1.104   .     S
C685   O730    1.311   .     A
C685   O727    1.306   .     A
C685   C694    1.470   .     S
C686   O728    1.308   .     A
C686   O729    1.311   .     A
C686   C693    1.472   .     S
C687   C712    1.401   .     A
C687   H723    1.084   .     S
C687   C1739   1.395   1_554 S
C688   H724    1.084   .     S
C688   C711    1.401   .     A
C688   C1740   1.394   .     S
C689   C694    1.412   .     A
C689   O735    1.384   .     S
C689   C919    1.395   1_455 S
C690   C693    1.402   .     A
C690   O743    1.378   .     S
C690   C806    1.391   .     S
C691   C693    1.403   .     A
C691   O751    1.374   .     S
C691   C803    1.395   .     S
C692   O759    1.384   .     S
C692   C694    1.417   .     A
C692   C918    1.391   1_455 S
C695   N726    1.380   .     A
C695   O767    1.378   .     S
C696   O775    1.382   .     S
C696   N725    1.392   .     A
C696   C13     1.453   1_565 S
C697   N726    1.367   .     A
C697   O783    1.398   .     S
C698   N725    1.372   .     A
C698   O791    1.393   .     S
C698   C11     1.438   1_565 S
C699   O731    1.303   .     A
C699   O734    1.306   .     A
C699   C704    1.447   .     S
C700   O732    1.300   .     A
C700   O733    1.308   .     A
C700   C703    1.447   .     S
C701   H717    1.085   .     S
C701   C711    1.394   .     A
C701   C703    1.397   .     A
C702   C712    1.393   .     A
C702   H718    1.084   .     S
C702   C704    1.399   .     A
C703   C705    1.400   .     A
C704   C706    1.399   .     A
C705   C707    1.392   .     A
C705   H719    1.085   .     S
C706   C708    1.391   .     A
C706   H720    1.085   .     S
C707   C713    1.402   .     A
C707   C709    1.411   .     A
C708   C710    1.411   .     A
C708   C714    1.402   .     A
C709   C711    1.413   .     A
C709   C1736   1.401   .     S
C710   C712    1.413   .     A
C710   C1735   1.401   1_554 S
C713   H721    1.084   .     S
C713   C1713   1.395   .     S
C714   H722    1.084   .     S
C714   C1714   1.394   1_554 S
Cu715  O727    1.982   .     S
Cu715  O731    1.948   .     S
Cu715  O733    1.960   .     S
Cu715  N725    2.047   .     S
Cu715  Cu716   2.724   .     S
Cu715  O729    1.979   .     S
Cu716  O732    1.948   .     S
Cu716  O728    1.982   .     S
Cu716  O734    1.960   .     S
Cu716  O730    1.979   .     S
Cu716  N726    2.047   .     S
O735   C736    1.416   .     S
C736   C739    1.526   .     S
C736   H738    1.115   .     S
C736   H737    1.106   .     S
C739   H742    1.108   .     S
C739   H741    1.110   .     S
C739   H968    1.110   1_455 S
H740   C853    1.110   .     S
O743   C744    1.419   .     S
C744   C747    1.528   .     S
C744   H746    1.115   .     S
C744   H745    1.107   .     S
C747   H749    1.110   .     S
C747   H862    1.110   .     S
C747   H864    1.108   .     S
H748   C975    1.110   1_455 S
H750   C975    1.108   1_455 S
O751   C752    1.407   .     S
C752   C755    1.508   .     S
C752   H753    1.106   .     S
C752   H754    1.115   .     S
C755   H758    1.108   .     S
H756   C71     1.105   1_565 S
H757   C71     1.109   1_565 S
O759   C760    1.416   .     S
C760   C763    1.524   .     S
C760   H761    1.106   .     S
C760   H762    1.115   .     S
C763   H765    1.110   .     S
C763   H766    1.106   .     S
C763   H992    1.109   1_455 S
H764   C877    1.109   .     S
O767   C768    1.423   .     S
C768   C771    1.523   .     S
C768   H770    1.112   .     S
C768   H769    1.113   .     S
C771   H772    1.105   .     S
C771   H774    1.110   .     S
C771   H773    1.111   .     S
O775   C776    1.426   .     S
C776   H777    1.104   .     S
C776   H778    1.117   .     S
C776   C779    1.532   .     S
C779   H780    1.111   .     S
C779   H782    1.109   .     S
C779   H781    1.111   .     S
O783   C784    1.407   .     S
C784   H786    1.109   .     S
C784   H785    1.107   .     S
C784   C787    1.524   .     S
C787   H790    1.111   .     S
C787   H789    1.111   .     S
C787   H788    1.107   .     S
O791   C792    1.417   .     S
C792   H793    1.106   .     S
C792   C795    1.527   .     S
C792   H794    1.109   .     S
C795   H797    1.111   .     S
C795   H798    1.111   .     S
C795   H112    1.104   1_565 S
C799   O844    1.311   .     A
C799   O841    1.306   .     A
C799   C808    1.470   .     S
C800   O842    1.308   .     A
C800   O843    1.311   .     A
C800   C807    1.472   .     S
C801   C826    1.401   .     A
C801   H837    1.084   .     S
C801   C1853   1.395   1_554 S
C802   H838    1.084   .     S
C802   C825    1.401   .     A
C802   C1854   1.394   .     S
C803   C808    1.412   .     A
C803   O849    1.384   .     S
C804   C807    1.402   .     A
C804   O857    1.378   .     S
C804   C920    1.391   .     S
C805   C807    1.403   .     A
C805   O865    1.374   .     S
C805   C917    1.395   .     S
C806   O873    1.384   .     S
C806   C808    1.417   .     A
C809   N840    1.380   .     A
C809   O881    1.378   .     S
C810   O889    1.382   .     S
C810   N839    1.392   .     A
C810   C127    1.453   1_565 S
C811   N840    1.367   .     A
C811   O897    1.398   .     S
C812   N839    1.372   .     A
C812   O905    1.393   .     S
C812   C125    1.438   1_565 S
C813   O845    1.303   .     A
C813   O848    1.306   .     A
C813   C818    1.447   .     S
C814   O846    1.300   .     A
C814   O847    1.308   .     A
C814   C817    1.447   .     S
C815   H831    1.085   .     S
C815   C825    1.394   .     A
C815   C817    1.397   .     A
C816   C826    1.393   .     A
C816   H832    1.084   .     S
C816   C818    1.399   .     A
C817   C819    1.400   .     A
C818   C820    1.399   .     A
C819   C821    1.392   .     A
C819   H833    1.085   .     S
C820   C822    1.391   .     A
C820   H834    1.085   .     S
C821   C827    1.402   .     A
C821   C823    1.411   .     A
C822   C824    1.411   .     A
C822   C828    1.402   .     A
C823   C825    1.413   .     A
C823   C1850   1.401   .     S
C824   C826    1.413   .     A
C824   C1849   1.401   1_554 S
C827   H835    1.084   .     S
C827   C1827   1.395   .     S
C828   H836    1.084   .     S
C828   C1828   1.394   1_554 S
Cu829  O841    1.982   .     S
Cu829  O845    1.948   .     S
Cu829  O847    1.960   .     S
Cu829  N839    2.047   .     S
Cu829  Cu830   2.724   .     S
Cu829  O843    1.979   .     S
Cu830  O846    1.948   .     S
Cu830  O842    1.982   .     S
Cu830  O848    1.960   .     S
Cu830  O844    1.979   .     S
Cu830  N840    2.047   .     S
O849   C850    1.416   .     S
C850   C853    1.526   .     S
C850   H852    1.115   .     S
C850   H851    1.106   .     S
C853   H856    1.108   .     S
C853   H855    1.110   .     S
H854   C967    1.110   .     S
O857   C858    1.419   .     S
C858   C861    1.528   .     S
C858   H860    1.115   .     S
C858   H859    1.107   .     S
C861   H863    1.110   .     S
C861   H976    1.110   .     S
C861   H978    1.108   .     S
O865   C866    1.407   .     S
C866   C869    1.508   .     S
C866   H867    1.106   .     S
C866   H868    1.115   .     S
C869   H872    1.108   .     S
H870   C185    1.105   1_565 S
H871   C185    1.109   1_565 S
O873   C874    1.416   .     S
C874   C877    1.524   .     S
C874   H875    1.106   .     S
C874   H876    1.115   .     S
C877   H879    1.110   .     S
C877   H880    1.106   .     S
H878   C991    1.109   .     S
O881   C882    1.423   .     S
C882   C885    1.523   .     S
C882   H884    1.112   .     S
C882   H883    1.113   .     S
C885   H886    1.105   .     S
C885   H888    1.110   .     S
C885   H887    1.111   .     S
O889   C890    1.426   .     S
C890   H891    1.104   .     S
C890   H892    1.117   .     S
C890   C893    1.532   .     S
C893   H894    1.111   .     S
C893   H896    1.109   .     S
C893   H895    1.111   .     S
O897   C898    1.407   .     S
C898   H900    1.109   .     S
C898   H899    1.107   .     S
C898   C901    1.524   .     S
C901   H904    1.111   .     S
C901   H903    1.111   .     S
C901   H902    1.107   .     S
O905   C906    1.417   .     S
C906   H907    1.106   .     S
C906   C909    1.527   .     S
C906   H908    1.109   .     S
C909   H911    1.111   .     S
C909   H912    1.111   .     S
C909   H226    1.104   1_565 S
C913   O958    1.311   .     A
C913   O955    1.306   .     A
C913   C922    1.470   .     S
C914   O956    1.308   .     A
C914   O957    1.311   .     A
C914   C921    1.472   .     S
C915   C940    1.401   .     A
C915   H951    1.084   .     S
C915   C1967   1.395   1_554 S
C916   H952    1.084   .     S
C916   C939    1.401   .     A
C916   C1968   1.394   .     S
C917   C922    1.412   .     A
C917   O963    1.384   .     S
C918   C921    1.402   .     A
C918   O971    1.378   .     S
C918   C692    1.391   1_655 S
C919   C921    1.403   .     A
C919   O979    1.374   .     S
C919   C689    1.395   1_655 S
C920   O987    1.384   .     S
C920   C922    1.417   .     A
C923   N954    1.380   .     A
C923   O995    1.378   .     S
C924   O1003   1.382   .     S
C924   N953    1.392   .     A
C924   C241    1.453   1_565 S
C925   N954    1.367   .     A
C925   O1011   1.398   .     S
C926   N953    1.372   .     A
C926   O1019   1.393   .     S
C926   C239    1.438   1_565 S
C927   O959    1.303   .     A
C927   O962    1.306   .     A
C927   C932    1.447   .     S
C928   O960    1.300   .     A
C928   O961    1.308   .     A
C928   C931    1.447   .     S
C929   H945    1.085   .     S
C929   C939    1.394   .     A
C929   C931    1.397   .     A
C930   C940    1.393   .     A
C930   H946    1.084   .     S
C930   C932    1.399   .     A
C931   C933    1.400   .     A
C932   C934    1.399   .     A
C933   C935    1.392   .     A
C933   H947    1.085   .     S
C934   C936    1.391   .     A
C934   H948    1.085   .     S
C935   C941    1.402   .     A
C935   C937    1.411   .     A
C936   C938    1.411   .     A
C936   C942    1.402   .     A
C937   C939    1.413   .     A
C937   C1964   1.401   .     S
C938   C940    1.413   .     A
C938   C1963   1.401   1_554 S
C941   H949    1.084   .     S
C941   C1941   1.395   .     S
C942   H950    1.084   .     S
C942   C1942   1.394   1_554 S
Cu943  O955    1.982   .     S
Cu943  O959    1.948   .     S
Cu943  O961    1.960   .     S
Cu943  N953    2.047   .     S
Cu943  Cu944   2.724   .     S
Cu943  O957    1.979   .     S
Cu944  O960    1.948   .     S
Cu944  O956    1.982   .     S
Cu944  O962    1.960   .     S
Cu944  O958    1.979   .     S
Cu944  N954    2.047   .     S
O963   C964    1.416   .     S
C964   C967    1.526   .     S
C964   H966    1.115   .     S
C964   H965    1.106   .     S
C967   H970    1.108   .     S
C967   H969    1.110   .     S
H968   C739    1.110   1_655 S
O971   C972    1.419   .     S
C972   C975    1.528   .     S
C972   H974    1.115   .     S
C972   H973    1.107   .     S
C975   H977    1.110   .     S
C975   H748    1.110   1_655 S
C975   H750    1.108   1_655 S
O979   C980    1.407   .     S
C980   C983    1.508   .     S
C980   H981    1.106   .     S
C980   H982    1.115   .     S
C983   H986    1.108   .     S
H984   C299    1.105   1_565 S
H985   C299    1.109   1_565 S
O987   C988    1.416   .     S
C988   C991    1.524   .     S
C988   H989    1.106   .     S
C988   H990    1.115   .     S
C991   H993    1.110   .     S
C991   H994    1.106   .     S
H992   C763    1.109   1_655 S
O995   C996    1.423   .     S
C996   C999    1.523   .     S
C996   H998    1.112   .     S
C996   H997    1.113   .     S
C999   H1000   1.105   .     S
C999   H1002   1.110   .     S
C999   H1001   1.111   .     S
O1003  C1004   1.426   .     S
C1004  H1005   1.104   .     S
C1004  H1006   1.117   .     S
C1004  C1007   1.532   .     S
C1007  H1008   1.111   .     S
C1007  H1010   1.109   .     S
C1007  H1009   1.111   .     S
O1011  C1012   1.407   .     S
C1012  H1014   1.109   .     S
C1012  H1013   1.107   .     S
C1012  C1015   1.524   .     S
C1015  H1018   1.111   .     S
C1015  H1017   1.111   .     S
C1015  H1016   1.107   .     S
O1019  C1020   1.417   .     S
C1020  H1021   1.106   .     S
C1020  C1023   1.527   .     S
C1020  H1022   1.109   .     S
C1023  H1025   1.111   .     S
C1023  H1026   1.111   .     S
C1023  H340    1.104   1_565 S
C1027  O1072   1.311   .     A
C1027  O1069   1.306   .     A
C1027  C1036   1.470   .     S
C1028  O1070   1.308   .     A
C1028  O1071   1.311   .     A
C1028  C1035   1.472   .     S
C1029  C1054   1.401   .     A
C1029  H1065   1.084   .     S
C1030  H1066   1.084   .     S
C1030  C1053   1.401   .     A
C1030  C30     1.394   1_556 S
C1031  C1036   1.412   .     A
C1031  O1077   1.384   .     S
C1031  C1261   1.395   1_455 S
C1032  C1035   1.402   .     A
C1032  O1085   1.378   .     S
C1032  C1148   1.391   .     S
C1033  C1035   1.403   .     A
C1033  O1093   1.374   .     S
C1033  C1145   1.395   .     S
C1034  O1101   1.384   .     S
C1034  C1036   1.417   .     A
C1034  C1260   1.391   1_455 S
C1037  N1068   1.380   .     A
C1037  O1109   1.378   .     S
C1037  C1724   1.438   1_545 S
C1038  O1117   1.382   .     S
C1038  N1067   1.392   .     A
C1038  C1381   1.453   .     S
C1039  N1068   1.367   .     A
C1039  O1125   1.398   .     S
C1039  C1722   1.453   1_545 S
C1040  N1067   1.372   .     A
C1040  O1133   1.393   .     S
C1040  C1379   1.438   .     S
C1041  O1073   1.303   .     A
C1041  O1076   1.306   .     A
C1041  C1046   1.447   .     S
C1042  O1074   1.300   .     A
C1042  O1075   1.308   .     A
C1042  C1045   1.447   .     S
C1043  H1059   1.085   .     S
C1043  C1053   1.394   .     A
C1043  C1045   1.397   .     A
C1044  C1054   1.393   .     A
C1044  H1060   1.084   .     S
C1044  C1046   1.399   .     A
C1045  C1047   1.400   .     A
C1046  C1048   1.399   .     A
C1047  C1049   1.392   .     A
C1047  H1061   1.085   .     S
C1048  C1050   1.391   .     A
C1048  H1062   1.085   .     S
C1049  C1055   1.402   .     A
C1049  C1051   1.411   .     A
C1050  C1052   1.411   .     A
C1050  C1056   1.402   .     A
C1051  C1053   1.413   .     A
C1051  C26     1.401   1_556 S
C1052  C1054   1.413   .     A
C1055  H1063   1.084   .     S
C1055  C3      1.395   1_556 S
C1056  H1064   1.084   .     S
Cu1057 O1069   1.982   .     S
Cu1057 O1073   1.948   .     S
Cu1057 O1075   1.960   .     S
Cu1057 N1067   2.047   .     S
Cu1057 Cu1058  2.724   .     S
Cu1057 O1071   1.979   .     S
Cu1058 O1074   1.948   .     S
Cu1058 O1070   1.982   .     S
Cu1058 O1076   1.960   .     S
Cu1058 O1072   1.979   .     S
Cu1058 N1068   2.047   .     S
O1077  C1078   1.416   .     S
C1078  C1081   1.526   .     S
C1078  H1080   1.115   .     S
C1078  H1079   1.106   .     S
C1081  H1084   1.108   .     S
C1081  H1083   1.110   .     S
C1081  H1310   1.110   1_455 S
H1082  C1195   1.110   .     S
O1085  C1086   1.419   .     S
C1086  C1089   1.528   .     S
C1086  H1088   1.115   .     S
C1086  H1087   1.107   .     S
C1089  H1091   1.110   .     S
C1089  H1204   1.110   .     S
C1089  H1206   1.108   .     S
H1090  C1317   1.110   1_455 S
H1092  C1317   1.108   1_455 S
O1093  C1094   1.407   .     S
C1094  C1097   1.508   .     S
C1094  H1095   1.106   .     S
C1094  H1096   1.115   .     S
C1097  H1100   1.108   .     S
C1097  H1782   1.105   1_545 S
C1097  H1783   1.109   1_545 S
H1098  C1439   1.105   .     S
H1099  C1439   1.109   .     S
O1101  C1102   1.416   .     S
C1102  C1105   1.524   .     S
C1102  H1103   1.106   .     S
C1102  H1104   1.115   .     S
C1105  H1107   1.110   .     S
C1105  H1108   1.106   .     S
C1105  H1334   1.109   1_455 S
H1106  C1219   1.109   .     S
O1109  C1110   1.423   .     S
C1110  C1113   1.523   .     S
C1110  H1112   1.112   .     S
C1110  H1111   1.113   .     S
C1113  H1114   1.105   .     S
C1113  H1116   1.110   .     S
C1113  H1115   1.111   .     S
O1117  C1118   1.426   .     S
C1118  H1119   1.104   .     S
C1118  H1120   1.117   .     S
C1118  C1121   1.532   .     S
C1121  H1122   1.111   .     S
C1121  H1124   1.109   .     S
C1121  H1123   1.111   .     S
O1125  C1126   1.407   .     S
C1126  H1128   1.109   .     S
C1126  H1127   1.107   .     S
C1126  C1129   1.524   .     S
C1129  H1132   1.111   .     S
C1129  H1131   1.111   .     S
C1129  H1130   1.107   .     S
O1133  C1134   1.417   .     S
C1134  H1135   1.106   .     S
C1134  C1137   1.527   .     S
C1134  H1136   1.109   .     S
C1137  H1139   1.111   .     S
C1137  H1140   1.111   .     S
C1137  H1480   1.104   .     S
H1138  C1821   1.104   1_545 S
C1141  O1186   1.311   .     A
C1141  O1183   1.306   .     A
C1141  C1150   1.470   .     S
C1142  O1184   1.308   .     A
C1142  O1185   1.311   .     A
C1142  C1149   1.472   .     S
C1143  C1168   1.401   .     A
C1143  H1179   1.084   .     S
C1144  H1180   1.084   .     S
C1144  C1167   1.401   .     A
C1144  C144    1.394   1_556 S
C1145  C1150   1.412   .     A
C1145  O1191   1.384   .     S
C1146  C1149   1.402   .     A
C1146  O1199   1.378   .     S
C1146  C1262   1.391   .     S
C1147  C1149   1.403   .     A
C1147  O1207   1.374   .     S
C1147  C1259   1.395   .     S
C1148  O1215   1.384   .     S
C1148  C1150   1.417   .     A
C1151  N1182   1.380   .     A
C1151  O1223   1.378   .     S
C1151  C1838   1.438   1_545 S
C1152  O1231   1.382   .     S
C1152  N1181   1.392   .     A
C1152  C1495   1.453   .     S
C1153  N1182   1.367   .     A
C1153  O1239   1.398   .     S
C1153  C1836   1.453   1_545 S
C1154  N1181   1.372   .     A
C1154  O1247   1.393   .     S
C1154  C1493   1.438   .     S
C1155  O1187   1.303   .     A
C1155  O1190   1.306   .     A
C1155  C1160   1.447   .     S
C1156  O1188   1.300   .     A
C1156  O1189   1.308   .     A
C1156  C1159   1.447   .     S
C1157  H1173   1.085   .     S
C1157  C1167   1.394   .     A
C1157  C1159   1.397   .     A
C1158  C1168   1.393   .     A
C1158  H1174   1.084   .     S
C1158  C1160   1.399   .     A
C1159  C1161   1.400   .     A
C1160  C1162   1.399   .     A
C1161  C1163   1.392   .     A
C1161  H1175   1.085   .     S
C1162  C1164   1.391   .     A
C1162  H1176   1.085   .     S
C1163  C1169   1.402   .     A
C1163  C1165   1.411   .     A
C1164  C1166   1.411   .     A
C1164  C1170   1.402   .     A
C1165  C1167   1.413   .     A
C1165  C140    1.401   1_556 S
C1166  C1168   1.413   .     A
C1169  H1177   1.084   .     S
C1169  C117    1.395   1_556 S
C1170  H1178   1.084   .     S
Cu1171 O1183   1.982   .     S
Cu1171 O1187   1.948   .     S
Cu1171 O1189   1.960   .     S
Cu1171 N1181   2.047   .     S
Cu1171 Cu1172  2.724   .     S
Cu1171 O1185   1.979   .     S
Cu1172 O1188   1.948   .     S
Cu1172 O1184   1.982   .     S
Cu1172 O1190   1.960   .     S
Cu1172 O1186   1.979   .     S
Cu1172 N1182   2.047   .     S
O1191  C1192   1.416   .     S
C1192  C1195   1.526   .     S
C1192  H1194   1.115   .     S
C1192  H1193   1.106   .     S
C1195  H1198   1.108   .     S
C1195  H1197   1.110   .     S
H1196  C1309   1.110   .     S
O1199  C1200   1.419   .     S
C1200  C1203   1.528   .     S
C1200  H1202   1.115   .     S
C1200  H1201   1.107   .     S
C1203  H1205   1.110   .     S
C1203  H1318   1.110   .     S
C1203  H1320   1.108   .     S
O1207  C1208   1.407   .     S
C1208  C1211   1.508   .     S
C1208  H1209   1.106   .     S
C1208  H1210   1.115   .     S
C1211  H1214   1.108   .     S
C1211  H1896   1.105   1_545 S
C1211  H1897   1.109   1_545 S
H1212  C1553   1.105   .     S
H1213  C1553   1.109   .     S
O1215  C1216   1.416   .     S
C1216  C1219   1.524   .     S
C1216  H1217   1.106   .     S
C1216  H1218   1.115   .     S
C1219  H1221   1.110   .     S
C1219  H1222   1.106   .     S
H1220  C1333   1.109   .     S
O1223  C1224   1.423   .     S
C1224  C1227   1.523   .     S
C1224  H1226   1.112   .     S
C1224  H1225   1.113   .     S
C1227  H1228   1.105   .     S
C1227  H1230   1.110   .     S
C1227  H1229   1.111   .     S
O1231  C1232   1.426   .     S
C1232  H1233   1.104   .     S
C1232  H1234   1.117   .     S
C1232  C1235   1.532   .     S
C1235  H1236   1.111   .     S
C1235  H1238   1.109   .     S
C1235  H1237   1.111   .     S
O1239  C1240   1.407   .     S
C1240  H1242   1.109   .     S
C1240  H1241   1.107   .     S
C1240  C1243   1.524   .     S
C1243  H1246   1.111   .     S
C1243  H1245   1.111   .     S
C1243  H1244   1.107   .     S
O1247  C1248   1.417   .     S
C1248  H1249   1.106   .     S
C1248  C1251   1.527   .     S
C1248  H1250   1.109   .     S
C1251  H1253   1.111   .     S
C1251  H1254   1.111   .     S
C1251  H1594   1.104   .     S
H1252  C1935   1.104   1_545 S
C1255  O1300   1.311   .     A
C1255  O1297   1.306   .     A
C1255  C1264   1.470   .     S
C1256  O1298   1.308   .     A
C1256  O1299   1.311   .     A
C1256  C1263   1.472   .     S
C1257  C1282   1.401   .     A
C1257  H1293   1.084   .     S
C1258  H1294   1.084   .     S
C1258  C1281   1.401   .     A
C1258  C258    1.394   1_556 S
C1259  C1264   1.412   .     A
C1259  O1305   1.384   .     S
C1260  C1263   1.402   .     A
C1260  O1313   1.378   .     S
C1260  C1034   1.391   1_655 S
C1261  C1263   1.403   .     A
C1261  O1321   1.374   .     S
C1261  C1031   1.395   1_655 S
C1262  O1329   1.384   .     S
C1262  C1264   1.417   .     A
C1265  N1296   1.380   .     A
C1265  O1337   1.378   .     S
C1265  C1952   1.438   1_545 S
C1266  O1345   1.382   .     S
C1266  N1295   1.392   .     A
C1266  C1609   1.453   .     S
C1267  N1296   1.367   .     A
C1267  O1353   1.398   .     S
C1267  C1950   1.453   1_545 S
C1268  N1295   1.372   .     A
C1268  O1361   1.393   .     S
C1268  C1607   1.438   .     S
C1269  O1301   1.303   .     A
C1269  O1304   1.306   .     A
C1269  C1274   1.447   .     S
C1270  O1302   1.300   .     A
C1270  O1303   1.308   .     A
C1270  C1273   1.447   .     S
C1271  H1287   1.085   .     S
C1271  C1281   1.394   .     A
C1271  C1273   1.397   .     A
C1272  C1282   1.393   .     A
C1272  H1288   1.084   .     S
C1272  C1274   1.399   .     A
C1273  C1275   1.400   .     A
C1274  C1276   1.399   .     A
C1275  C1277   1.392   .     A
C1275  H1289   1.085   .     S
C1276  C1278   1.391   .     A
C1276  H1290   1.085   .     S
C1277  C1283   1.402   .     A
C1277  C1279   1.411   .     A
C1278  C1280   1.411   .     A
C1278  C1284   1.402   .     A
C1279  C1281   1.413   .     A
C1279  C254    1.401   1_556 S
C1280  C1282   1.413   .     A
C1283  H1291   1.084   .     S
C1283  C231    1.395   1_556 S
C1284  H1292   1.084   .     S
Cu1285 O1297   1.982   .     S
Cu1285 O1301   1.948   .     S
Cu1285 O1303   1.960   .     S
Cu1285 N1295   2.047   .     S
Cu1285 Cu1286  2.724   .     S
Cu1285 O1299   1.979   .     S
Cu1286 O1302   1.948   .     S
Cu1286 O1298   1.982   .     S
Cu1286 O1304   1.960   .     S
Cu1286 O1300   1.979   .     S
Cu1286 N1296   2.047   .     S
O1305  C1306   1.416   .     S
C1306  C1309   1.526   .     S
C1306  H1308   1.115   .     S
C1306  H1307   1.106   .     S
C1309  H1312   1.108   .     S
C1309  H1311   1.110   .     S
H1310  C1081   1.110   1_655 S
O1313  C1314   1.419   .     S
C1314  C1317   1.528   .     S
C1314  H1316   1.115   .     S
C1314  H1315   1.107   .     S
C1317  H1319   1.110   .     S
C1317  H1090   1.110   1_655 S
C1317  H1092   1.108   1_655 S
O1321  C1322   1.407   .     S
C1322  C1325   1.508   .     S
C1322  H1323   1.106   .     S
C1322  H1324   1.115   .     S
C1325  H1328   1.108   .     S
C1325  H2010   1.105   1_545 S
C1325  H2011   1.109   1_545 S
H1326  C1667   1.105   .     S
H1327  C1667   1.109   .     S
O1329  C1330   1.416   .     S
C1330  C1333   1.524   .     S
C1330  H1331   1.106   .     S
C1330  H1332   1.115   .     S
C1333  H1335   1.110   .     S
C1333  H1336   1.106   .     S
H1334  C1105   1.109   1_655 S
O1337  C1338   1.423   .     S
C1338  C1341   1.523   .     S
C1338  H1340   1.112   .     S
C1338  H1339   1.113   .     S
C1341  H1342   1.105   .     S
C1341  H1344   1.110   .     S
C1341  H1343   1.111   .     S
O1345  C1346   1.426   .     S
C1346  H1347   1.104   .     S
C1346  H1348   1.117   .     S
C1346  C1349   1.532   .     S
C1349  H1350   1.111   .     S
C1349  H1352   1.109   .     S
C1349  H1351   1.111   .     S
O1353  C1354   1.407   .     S
C1354  H1356   1.109   .     S
C1354  H1355   1.107   .     S
C1354  C1357   1.524   .     S
C1357  H1360   1.111   .     S
C1357  H1359   1.111   .     S
C1357  H1358   1.107   .     S
O1361  C1362   1.417   .     S
C1362  H1363   1.106   .     S
C1362  C1365   1.527   .     S
C1362  H1364   1.109   .     S
C1365  H1367   1.111   .     S
C1365  H1368   1.111   .     S
C1365  H1708   1.104   .     S
H1366  C2049   1.104   1_545 S
C1369  O1414   1.311   .     A
C1369  O1411   1.306   .     A
C1369  C1378   1.470   .     S
C1370  O1412   1.308   .     A
C1370  O1413   1.311   .     A
C1370  C1377   1.472   .     S
C1371  C1396   1.401   .     A
C1371  H1407   1.084   .     S
C1372  H1408   1.084   .     S
C1372  C1395   1.401   .     A
C1372  C372    1.394   1_556 S
C1373  C1378   1.412   .     A
C1373  O1419   1.384   .     S
C1373  C1603   1.395   1_455 S
C1374  C1377   1.402   .     A
C1374  O1427   1.378   .     S
C1374  C1490   1.391   .     S
C1375  C1377   1.403   .     A
C1375  O1435   1.374   .     S
C1375  C1487   1.395   .     S
C1376  O1443   1.384   .     S
C1376  C1378   1.417   .     A
C1376  C1602   1.391   1_455 S
C1379  N1410   1.380   .     A
C1379  O1451   1.378   .     S
C1380  O1459   1.382   .     S
C1380  N1409   1.392   .     A
C1380  C1723   1.453   .     S
C1381  N1410   1.367   .     A
C1381  O1467   1.398   .     S
C1382  N1409   1.372   .     A
C1382  O1475   1.393   .     S
C1382  C1721   1.438   .     S
C1383  O1415   1.303   .     A
C1383  O1418   1.306   .     A
C1383  C1388   1.447   .     S
C1384  O1416   1.300   .     A
C1384  O1417   1.308   .     A
C1384  C1387   1.447   .     S
C1385  H1401   1.085   .     S
C1385  C1395   1.394   .     A
C1385  C1387   1.397   .     A
C1386  C1396   1.393   .     A
C1386  H1402   1.084   .     S
C1386  C1388   1.399   .     A
C1387  C1389   1.400   .     A
C1388  C1390   1.399   .     A
C1389  C1391   1.392   .     A
C1389  H1403   1.085   .     S
C1390  C1392   1.391   .     A
C1390  H1404   1.085   .     S
C1391  C1397   1.402   .     A
C1391  C1393   1.411   .     A
C1392  C1394   1.411   .     A
C1392  C1398   1.402   .     A
C1393  C1395   1.413   .     A
C1393  C368    1.401   1_556 S
C1394  C1396   1.413   .     A
C1397  H1405   1.084   .     S
C1397  C345    1.395   1_556 S
C1398  H1406   1.084   .     S
Cu1399 O1411   1.982   .     S
Cu1399 O1415   1.948   .     S
Cu1399 O1417   1.960   .     S
Cu1399 N1409   2.047   .     S
Cu1399 Cu1400  2.724   .     S
Cu1399 O1413   1.979   .     S
Cu1400 O1416   1.948   .     S
Cu1400 O1412   1.982   .     S
Cu1400 O1418   1.960   .     S
Cu1400 O1414   1.979   .     S
Cu1400 N1410   2.047   .     S
O1419  C1420   1.416   .     S
C1420  C1423   1.526   .     S
C1420  H1422   1.115   .     S
C1420  H1421   1.106   .     S
C1423  H1426   1.108   .     S
C1423  H1425   1.110   .     S
C1423  H1652   1.110   1_455 S
H1424  C1537   1.110   .     S
O1427  C1428   1.419   .     S
C1428  C1431   1.528   .     S
C1428  H1430   1.115   .     S
C1428  H1429   1.107   .     S
C1431  H1433   1.110   .     S
C1431  H1546   1.110   .     S
C1431  H1548   1.108   .     S
H1432  C1659   1.110   1_455 S
H1434  C1659   1.108   1_455 S
O1435  C1436   1.407   .     S
C1436  C1439   1.508   .     S
C1436  H1437   1.106   .     S
C1436  H1438   1.115   .     S
C1439  H1442   1.108   .     S
H1440  C1781   1.105   .     S
H1441  C1781   1.109   .     S
O1443  C1444   1.416   .     S
C1444  C1447   1.524   .     S
C1444  H1445   1.106   .     S
C1444  H1446   1.115   .     S
C1447  H1449   1.110   .     S
C1447  H1450   1.106   .     S
C1447  H1676   1.109   1_455 S
H1448  C1561   1.109   .     S
O1451  C1452   1.423   .     S
C1452  C1455   1.523   .     S
C1452  H1454   1.112   .     S
C1452  H1453   1.113   .     S
C1455  H1456   1.105   .     S
C1455  H1458   1.110   .     S
C1455  H1457   1.111   .     S
O1459  C1460   1.426   .     S
C1460  H1461   1.104   .     S
C1460  H1462   1.117   .     S
C1460  C1463   1.532   .     S
C1463  H1464   1.111   .     S
C1463  H1466   1.109   .     S
C1463  H1465   1.111   .     S
O1467  C1468   1.407   .     S
C1468  H1470   1.109   .     S
C1468  H1469   1.107   .     S
C1468  C1471   1.524   .     S
C1471  H1474   1.111   .     S
C1471  H1473   1.111   .     S
C1471  H1472   1.107   .     S
O1475  C1476   1.417   .     S
C1476  H1477   1.106   .     S
C1476  C1479   1.527   .     S
C1476  H1478   1.109   .     S
C1479  H1481   1.111   .     S
C1479  H1482   1.111   .     S
C1479  H1822   1.104   .     S
C1483  O1528   1.311   .     A
C1483  O1525   1.306   .     A
C1483  C1492   1.470   .     S
C1484  O1526   1.308   .     A
C1484  O1527   1.311   .     A
C1484  C1491   1.472   .     S
C1485  C1510   1.401   .     A
C1485  H1521   1.084   .     S
C1486  H1522   1.084   .     S
C1486  C1509   1.401   .     A
C1486  C486    1.394   1_556 S
C1487  C1492   1.412   .     A
C1487  O1533   1.384   .     S
C1488  C1491   1.402   .     A
C1488  O1541   1.378   .     S
C1488  C1604   1.391   .     S
C1489  C1491   1.403   .     A
C1489  O1549   1.374   .     S
C1489  C1601   1.395   .     S
C1490  O1557   1.384   .     S
C1490  C1492   1.417   .     A
C1493  N1524   1.380   .     A
C1493  O1565   1.378   .     S
C1494  O1573   1.382   .     S
C1494  N1523   1.392   .     A
C1494  C1837   1.453   .     S
C1495  N1524   1.367   .     A
C1495  O1581   1.398   .     S
C1496  N1523   1.372   .     A
C1496  O1589   1.393   .     S
C1496  C1835   1.438   .     S
C1497  O1529   1.303   .     A
C1497  O1532   1.306   .     A
C1497  C1502   1.447   .     S
C1498  O1530   1.300   .     A
C1498  O1531   1.308   .     A
C1498  C1501   1.447   .     S
C1499  H1515   1.085   .     S
C1499  C1509   1.394   .     A
C1499  C1501   1.397   .     A
C1500  C1510   1.393   .     A
C1500  H1516   1.084   .     S
C1500  C1502   1.399   .     A
C1501  C1503   1.400   .     A
C1502  C1504   1.399   .     A
C1503  C1505   1.392   .     A
C1503  H1517   1.085   .     S
C1504  C1506   1.391   .     A
C1504  H1518   1.085   .     S
C1505  C1511   1.402   .     A
C1505  C1507   1.411   .     A
C1506  C1508   1.411   .     A
C1506  C1512   1.402   .     A
C1507  C1509   1.413   .     A
C1507  C482    1.401   1_556 S
C1508  C1510   1.413   .     A
C1511  H1519   1.084   .     S
C1511  C459    1.395   1_556 S
C1512  H1520   1.084   .     S
Cu1513 O1525   1.982   .     S
Cu1513 O1529   1.948   .     S
Cu1513 O1531   1.960   .     S
Cu1513 N1523   2.047   .     S
Cu1513 Cu1514  2.724   .     S
Cu1513 O1527   1.979   .     S
Cu1514 O1530   1.948   .     S
Cu1514 O1526   1.982   .     S
Cu1514 O1532   1.960   .     S
Cu1514 O1528   1.979   .     S
Cu1514 N1524   2.047   .     S
O1533  C1534   1.416   .     S
C1534  C1537   1.526   .     S
C1534  H1536   1.115   .     S
C1534  H1535   1.106   .     S
C1537  H1540   1.108   .     S
C1537  H1539   1.110   .     S
H1538  C1651   1.110   .     S
O1541  C1542   1.419   .     S
C1542  C1545   1.528   .     S
C1542  H1544   1.115   .     S
C1542  H1543   1.107   .     S
C1545  H1547   1.110   .     S
C1545  H1660   1.110   .     S
C1545  H1662   1.108   .     S
O1549  C1550   1.407   .     S
C1550  C1553   1.508   .     S
C1550  H1551   1.106   .     S
C1550  H1552   1.115   .     S
C1553  H1556   1.108   .     S
H1554  C1895   1.105   .     S
H1555  C1895   1.109   .     S
O1557  C1558   1.416   .     S
C1558  C1561   1.524   .     S
C1558  H1559   1.106   .     S
C1558  H1560   1.115   .     S
C1561  H1563   1.110   .     S
C1561  H1564   1.106   .     S
H1562  C1675   1.109   .     S
O1565  C1566   1.423   .     S
C1566  C1569   1.523   .     S
C1566  H1568   1.112   .     S
C1566  H1567   1.113   .     S
C1569  H1570   1.105   .     S
C1569  H1572   1.110   .     S
C1569  H1571   1.111   .     S
O1573  C1574   1.426   .     S
C1574  H1575   1.104   .     S
C1574  H1576   1.117   .     S
C1574  C1577   1.532   .     S
C1577  H1578   1.111   .     S
C1577  H1580   1.109   .     S
C1577  H1579   1.111   .     S
O1581  C1582   1.407   .     S
C1582  H1584   1.109   .     S
C1582  H1583   1.107   .     S
C1582  C1585   1.524   .     S
C1585  H1588   1.111   .     S
C1585  H1587   1.111   .     S
C1585  H1586   1.107   .     S
O1589  C1590   1.417   .     S
C1590  H1591   1.106   .     S
C1590  C1593   1.527   .     S
C1590  H1592   1.109   .     S
C1593  H1595   1.111   .     S
C1593  H1596   1.111   .     S
C1593  H1936   1.104   .     S
C1597  O1642   1.311   .     A
C1597  O1639   1.306   .     A
C1597  C1606   1.470   .     S
C1598  O1640   1.308   .     A
C1598  O1641   1.311   .     A
C1598  C1605   1.472   .     S
C1599  C1624   1.401   .     A
C1599  H1635   1.084   .     S
C1600  H1636   1.084   .     S
C1600  C1623   1.401   .     A
C1600  C600    1.394   1_556 S
C1601  C1606   1.412   .     A
C1601  O1647   1.384   .     S
C1602  C1605   1.402   .     A
C1602  O1655   1.378   .     S
C1602  C1376   1.391   1_655 S
C1603  C1605   1.403   .     A
C1603  O1663   1.374   .     S
C1603  C1373   1.395   1_655 S
C1604  O1671   1.384   .     S
C1604  C1606   1.417   .     A
C1607  N1638   1.380   .     A
C1607  O1679   1.378   .     S
C1608  O1687   1.382   .     S
C1608  N1637   1.392   .     A
C1608  C1951   1.453   .     S
C1609  N1638   1.367   .     A
C1609  O1695   1.398   .     S
C1610  N1637   1.372   .     A
C1610  O1703   1.393   .     S
C1610  C1949   1.438   .     S
C1611  O1643   1.303   .     A
C1611  O1646   1.306   .     A
C1611  C1616   1.447   .     S
C1612  O1644   1.300   .     A
C1612  O1645   1.308   .     A
C1612  C1615   1.447   .     S
C1613  H1629   1.085   .     S
C1613  C1623   1.394   .     A
C1613  C1615   1.397   .     A
C1614  C1624   1.393   .     A
C1614  H1630   1.084   .     S
C1614  C1616   1.399   .     A
C1615  C1617   1.400   .     A
C1616  C1618   1.399   .     A
C1617  C1619   1.392   .     A
C1617  H1631   1.085   .     S
C1618  C1620   1.391   .     A
C1618  H1632   1.085   .     S
C1619  C1625   1.402   .     A
C1619  C1621   1.411   .     A
C1620  C1622   1.411   .     A
C1620  C1626   1.402   .     A
C1621  C1623   1.413   .     A
C1621  C596    1.401   1_556 S
C1622  C1624   1.413   .     A
C1625  H1633   1.084   .     S
C1625  C573    1.395   1_556 S
C1626  H1634   1.084   .     S
Cu1627 O1639   1.982   .     S
Cu1627 O1643   1.948   .     S
Cu1627 O1645   1.960   .     S
Cu1627 N1637   2.047   .     S
Cu1627 Cu1628  2.724   .     S
Cu1627 O1641   1.979   .     S
Cu1628 O1644   1.948   .     S
Cu1628 O1640   1.982   .     S
Cu1628 O1646   1.960   .     S
Cu1628 O1642   1.979   .     S
Cu1628 N1638   2.047   .     S
O1647  C1648   1.416   .     S
C1648  C1651   1.526   .     S
C1648  H1650   1.115   .     S
C1648  H1649   1.106   .     S
C1651  H1654   1.108   .     S
C1651  H1653   1.110   .     S
H1652  C1423   1.110   1_655 S
O1655  C1656   1.419   .     S
C1656  C1659   1.528   .     S
C1656  H1658   1.115   .     S
C1656  H1657   1.107   .     S
C1659  H1661   1.110   .     S
C1659  H1432   1.110   1_655 S
C1659  H1434   1.108   1_655 S
O1663  C1664   1.407   .     S
C1664  C1667   1.508   .     S
C1664  H1665   1.106   .     S
C1664  H1666   1.115   .     S
C1667  H1670   1.108   .     S
H1668  C2009   1.105   .     S
H1669  C2009   1.109   .     S
O1671  C1672   1.416   .     S
C1672  C1675   1.524   .     S
C1672  H1673   1.106   .     S
C1672  H1674   1.115   .     S
C1675  H1677   1.110   .     S
C1675  H1678   1.106   .     S
H1676  C1447   1.109   1_655 S
O1679  C1680   1.423   .     S
C1680  C1683   1.523   .     S
C1680  H1682   1.112   .     S
C1680  H1681   1.113   .     S
C1683  H1684   1.105   .     S
C1683  H1686   1.110   .     S
C1683  H1685   1.111   .     S
O1687  C1688   1.426   .     S
C1688  H1689   1.104   .     S
C1688  H1690   1.117   .     S
C1688  C1691   1.532   .     S
C1691  H1692   1.111   .     S
C1691  H1694   1.109   .     S
C1691  H1693   1.111   .     S
O1695  C1696   1.407   .     S
C1696  H1698   1.109   .     S
C1696  H1697   1.107   .     S
C1696  C1699   1.524   .     S
C1699  H1702   1.111   .     S
C1699  H1701   1.111   .     S
C1699  H1700   1.107   .     S
O1703  C1704   1.417   .     S
C1704  H1705   1.106   .     S
C1704  C1707   1.527   .     S
C1704  H1706   1.109   .     S
C1707  H1709   1.111   .     S
C1707  H1710   1.111   .     S
C1707  H2050   1.104   .     S
C1711  O1756   1.311   .     A
C1711  O1753   1.306   .     A
C1711  C1720   1.470   .     S
C1712  O1754   1.308   .     A
C1712  O1755   1.311   .     A
C1712  C1719   1.472   .     S
C1713  C1738   1.401   .     A
C1713  H1749   1.084   .     S
C1714  H1750   1.084   .     S
C1714  C1737   1.401   .     A
C1714  C714    1.394   1_556 S
C1715  C1720   1.412   .     A
C1715  O1761   1.384   .     S
C1715  C1945   1.395   1_455 S
C1716  C1719   1.402   .     A
C1716  O1769   1.378   .     S
C1716  C1832   1.391   .     S
C1717  C1719   1.403   .     A
C1717  O1777   1.374   .     S
C1717  C1829   1.395   .     S
C1718  O1785   1.384   .     S
C1718  C1720   1.417   .     A
C1718  C1944   1.391   1_455 S
C1721  N1752   1.380   .     A
C1721  O1793   1.378   .     S
C1722  O1801   1.382   .     S
C1722  N1751   1.392   .     A
C1722  C1039   1.453   1_565 S
C1723  N1752   1.367   .     A
C1723  O1809   1.398   .     S
C1724  N1751   1.372   .     A
C1724  O1817   1.393   .     S
C1724  C1037   1.438   1_565 S
C1725  O1757   1.303   .     A
C1725  O1760   1.306   .     A
C1725  C1730   1.447   .     S
C1726  O1758   1.300   .     A
C1726  O1759   1.308   .     A
C1726  C1729   1.447   .     S
C1727  H1743   1.085   .     S
C1727  C1737   1.394   .     A
C1727  C1729   1.397   .     A
C1728  C1738   1.393   .     A
C1728  H1744   1.084   .     S
C1728  C1730   1.399   .     A
C1729  C1731   1.400   .     A
C1730  C1732   1.399   .     A
C1731  C1733   1.392   .     A
C1731  H1745   1.085   .     S
C1732  C1734   1.391   .     A
C1732  H1746   1.085   .     S
C1733  C1739   1.402   .     A
C1733  C1735   1.411   .     A
C1734  C1736   1.411   .     A
C1734  C1740   1.402   .     A
C1735  C1737   1.413   .     A
C1735  C710    1.401   1_556 S
C1736  C1738   1.413   .     A
C1739  H1747   1.084   .     S
C1739  C687    1.395   1_556 S
C1740  H1748   1.084   .     S
Cu1741 O1753   1.982   .     S
Cu1741 O1757   1.948   .     S
Cu1741 O1759   1.960   .     S
Cu1741 N1751   2.047   .     S
Cu1741 Cu1742  2.724   .     S
Cu1741 O1755   1.979   .     S
Cu1742 O1758   1.948   .     S
Cu1742 O1754   1.982   .     S
Cu1742 O1760   1.960   .     S
Cu1742 O1756   1.979   .     S
Cu1742 N1752   2.047   .     S
O1761  C1762   1.416   .     S
C1762  C1765   1.526   .     S
C1762  H1764   1.115   .     S
C1762  H1763   1.106   .     S
C1765  H1768   1.108   .     S
C1765  H1767   1.110   .     S
C1765  H1994   1.110   1_455 S
H1766  C1879   1.110   .     S
O1769  C1770   1.419   .     S
C1770  C1773   1.528   .     S
C1770  H1772   1.115   .     S
C1770  H1771   1.107   .     S
C1773  H1775   1.110   .     S
C1773  H1888   1.110   .     S
C1773  H1890   1.108   .     S
H1774  C2001   1.110   1_455 S
H1776  C2001   1.108   1_455 S
O1777  C1778   1.407   .     S
C1778  C1781   1.508   .     S
C1778  H1779   1.106   .     S
C1778  H1780   1.115   .     S
C1781  H1784   1.108   .     S
H1782  C1097   1.105   1_565 S
H1783  C1097   1.109   1_565 S
O1785  C1786   1.416   .     S
C1786  C1789   1.524   .     S
C1786  H1787   1.106   .     S
C1786  H1788   1.115   .     S
C1789  H1791   1.110   .     S
C1789  H1792   1.106   .     S
C1789  H2018   1.109   1_455 S
H1790  C1903   1.109   .     S
O1793  C1794   1.423   .     S
C1794  C1797   1.523   .     S
C1794  H1796   1.112   .     S
C1794  H1795   1.113   .     S
C1797  H1798   1.105   .     S
C1797  H1800   1.110   .     S
C1797  H1799   1.111   .     S
O1801  C1802   1.426   .     S
C1802  H1803   1.104   .     S
C1802  H1804   1.117   .     S
C1802  C1805   1.532   .     S
C1805  H1806   1.111   .     S
C1805  H1808   1.109   .     S
C1805  H1807   1.111   .     S
O1809  C1810   1.407   .     S
C1810  H1812   1.109   .     S
C1810  H1811   1.107   .     S
C1810  C1813   1.524   .     S
C1813  H1816   1.111   .     S
C1813  H1815   1.111   .     S
C1813  H1814   1.107   .     S
O1817  C1818   1.417   .     S
C1818  H1819   1.106   .     S
C1818  C1821   1.527   .     S
C1818  H1820   1.109   .     S
C1821  H1823   1.111   .     S
C1821  H1824   1.111   .     S
C1821  H1138   1.104   1_565 S
C1825  O1870   1.311   .     A
C1825  O1867   1.306   .     A
C1825  C1834   1.470   .     S
C1826  O1868   1.308   .     A
C1826  O1869   1.311   .     A
C1826  C1833   1.472   .     S
C1827  C1852   1.401   .     A
C1827  H1863   1.084   .     S
C1828  H1864   1.084   .     S
C1828  C1851   1.401   .     A
C1828  C828    1.394   1_556 S
C1829  C1834   1.412   .     A
C1829  O1875   1.384   .     S
C1830  C1833   1.402   .     A
C1830  O1883   1.378   .     S
C1830  C1946   1.391   .     S
C1831  C1833   1.403   .     A
C1831  O1891   1.374   .     S
C1831  C1943   1.395   .     S
C1832  O1899   1.384   .     S
C1832  C1834   1.417   .     A
C1835  N1866   1.380   .     A
C1835  O1907   1.378   .     S
C1836  O1915   1.382   .     S
C1836  N1865   1.392   .     A
C1836  C1153   1.453   1_565 S
C1837  N1866   1.367   .     A
C1837  O1923   1.398   .     S
C1838  N1865   1.372   .     A
C1838  O1931   1.393   .     S
C1838  C1151   1.438   1_565 S
C1839  O1871   1.303   .     A
C1839  O1874   1.306   .     A
C1839  C1844   1.447   .     S
C1840  O1872   1.300   .     A
C1840  O1873   1.308   .     A
C1840  C1843   1.447   .     S
C1841  H1857   1.085   .     S
C1841  C1851   1.394   .     A
C1841  C1843   1.397   .     A
C1842  C1852   1.393   .     A
C1842  H1858   1.084   .     S
C1842  C1844   1.399   .     A
C1843  C1845   1.400   .     A
C1844  C1846   1.399   .     A
C1845  C1847   1.392   .     A
C1845  H1859   1.085   .     S
C1846  C1848   1.391   .     A
C1846  H1860   1.085   .     S
C1847  C1853   1.402   .     A
C1847  C1849   1.411   .     A
C1848  C1850   1.411   .     A
C1848  C1854   1.402   .     A
C1849  C1851   1.413   .     A
C1849  C824    1.401   1_556 S
C1850  C1852   1.413   .     A
C1853  H1861   1.084   .     S
C1853  C801    1.395   1_556 S
C1854  H1862   1.084   .     S
Cu1855 O1867   1.982   .     S
Cu1855 O1871   1.948   .     S
Cu1855 O1873   1.960   .     S
Cu1855 N1865   2.047   .     S
Cu1855 Cu1856  2.724   .     S
Cu1855 O1869   1.979   .     S
Cu1856 O1872   1.948   .     S
Cu1856 O1868   1.982   .     S
Cu1856 O1874   1.960   .     S
Cu1856 O1870   1.979   .     S
Cu1856 N1866   2.047   .     S
O1875  C1876   1.416   .     S
C1876  C1879   1.526   .     S
C1876  H1878   1.115   .     S
C1876  H1877   1.106   .     S
C1879  H1882   1.108   .     S
C1879  H1881   1.110   .     S
H1880  C1993   1.110   .     S
O1883  C1884   1.419   .     S
C1884  C1887   1.528   .     S
C1884  H1886   1.115   .     S
C1884  H1885   1.107   .     S
C1887  H1889   1.110   .     S
C1887  H2002   1.110   .     S
C1887  H2004   1.108   .     S
O1891  C1892   1.407   .     S
C1892  C1895   1.508   .     S
C1892  H1893   1.106   .     S
C1892  H1894   1.115   .     S
C1895  H1898   1.108   .     S
H1896  C1211   1.105   1_565 S
H1897  C1211   1.109   1_565 S
O1899  C1900   1.416   .     S
C1900  C1903   1.524   .     S
C1900  H1901   1.106   .     S
C1900  H1902   1.115   .     S
C1903  H1905   1.110   .     S
C1903  H1906   1.106   .     S
H1904  C2017   1.109   .     S
O1907  C1908   1.423   .     S
C1908  C1911   1.523   .     S
C1908  H1910   1.112   .     S
C1908  H1909   1.113   .     S
C1911  H1912   1.105   .     S
C1911  H1914   1.110   .     S
C1911  H1913   1.111   .     S
O1915  C1916   1.426   .     S
C1916  H1917   1.104   .     S
C1916  H1918   1.117   .     S
C1916  C1919   1.532   .     S
C1919  H1920   1.111   .     S
C1919  H1922   1.109   .     S
C1919  H1921   1.111   .     S
O1923  C1924   1.407   .     S
C1924  H1926   1.109   .     S
C1924  H1925   1.107   .     S
C1924  C1927   1.524   .     S
C1927  H1930   1.111   .     S
C1927  H1929   1.111   .     S
C1927  H1928   1.107   .     S
O1931  C1932   1.417   .     S
C1932  H1933   1.106   .     S
C1932  C1935   1.527   .     S
C1932  H1934   1.109   .     S
C1935  H1937   1.111   .     S
C1935  H1938   1.111   .     S
C1935  H1252   1.104   1_565 S
C1939  O1984   1.311   .     A
C1939  O1981   1.306   .     A
C1939  C1948   1.470   .     S
C1940  O1982   1.308   .     A
C1940  O1983   1.311   .     A
C1940  C1947   1.472   .     S
C1941  C1966   1.401   .     A
C1941  H1977   1.084   .     S
C1942  H1978   1.084   .     S
C1942  C1965   1.401   .     A
C1942  C942    1.394   1_556 S
C1943  C1948   1.412   .     A
C1943  O1989   1.384   .     S
C1944  C1947   1.402   .     A
C1944  O1997   1.378   .     S
C1944  C1718   1.391   1_655 S
C1945  C1947   1.403   .     A
C1945  O2005   1.374   .     S
C1945  C1715   1.395   1_655 S
C1946  O2013   1.384   .     S
C1946  C1948   1.417   .     A
C1949  N1980   1.380   .     A
C1949  O2021   1.378   .     S
C1950  O2029   1.382   .     S
C1950  N1979   1.392   .     A
C1950  C1267   1.453   1_565 S
C1951  N1980   1.367   .     A
C1951  O2037   1.398   .     S
C1952  N1979   1.372   .     A
C1952  O2045   1.393   .     S
C1952  C1265   1.438   1_565 S
C1953  O1985   1.303   .     A
C1953  O1988   1.306   .     A
C1953  C1958   1.447   .     S
C1954  O1986   1.300   .     A
C1954  O1987   1.308   .     A
C1954  C1957   1.447   .     S
C1955  H1971   1.085   .     S
C1955  C1965   1.394   .     A
C1955  C1957   1.397   .     A
C1956  C1966   1.393   .     A
C1956  H1972   1.084   .     S
C1956  C1958   1.399   .     A
C1957  C1959   1.400   .     A
C1958  C1960   1.399   .     A
C1959  C1961   1.392   .     A
C1959  H1973   1.085   .     S
C1960  C1962   1.391   .     A
C1960  H1974   1.085   .     S
C1961  C1967   1.402   .     A
C1961  C1963   1.411   .     A
C1962  C1964   1.411   .     A
C1962  C1968   1.402   .     A
C1963  C1965   1.413   .     A
C1963  C938    1.401   1_556 S
C1964  C1966   1.413   .     A
C1967  H1975   1.084   .     S
C1967  C915    1.395   1_556 S
C1968  H1976   1.084   .     S
Cu1969 O1981   1.982   .     S
Cu1969 O1985   1.948   .     S
Cu1969 O1987   1.960   .     S
Cu1969 N1979   2.047   .     S
Cu1969 Cu1970  2.724   .     S
Cu1969 O1983   1.979   .     S
Cu1970 O1986   1.948   .     S
Cu1970 O1982   1.982   .     S
Cu1970 O1988   1.960   .     S
Cu1970 O1984   1.979   .     S
Cu1970 N1980   2.047   .     S
O1989  C1990   1.416   .     S
C1990  C1993   1.526   .     S
C1990  H1992   1.115   .     S
C1990  H1991   1.106   .     S
C1993  H1996   1.108   .     S
C1993  H1995   1.110   .     S
H1994  C1765   1.110   1_655 S
O1997  C1998   1.419   .     S
C1998  C2001   1.528   .     S
C1998  H2000   1.115   .     S
C1998  H1999   1.107   .     S
C2001  H2003   1.110   .     S
C2001  H1774   1.110   1_655 S
C2001  H1776   1.108   1_655 S
O2005  C2006   1.407   .     S
C2006  C2009   1.508   .     S
C2006  H2007   1.106   .     S
C2006  H2008   1.115   .     S
C2009  H2012   1.108   .     S
H2010  C1325   1.105   1_565 S
H2011  C1325   1.109   1_565 S
O2013  C2014   1.416   .     S
C2014  C2017   1.524   .     S
C2014  H2015   1.106   .     S
C2014  H2016   1.115   .     S
C2017  H2019   1.110   .     S
C2017  H2020   1.106   .     S
H2018  C1789   1.109   1_655 S
O2021  C2022   1.423   .     S
C2022  C2025   1.523   .     S
C2022  H2024   1.112   .     S
C2022  H2023   1.113   .     S
C2025  H2026   1.105   .     S
C2025  H2028   1.110   .     S
C2025  H2027   1.111   .     S
O2029  C2030   1.426   .     S
C2030  H2031   1.104   .     S
C2030  H2032   1.117   .     S
C2030  C2033   1.532   .     S
C2033  H2034   1.111   .     S
C2033  H2036   1.109   .     S
C2033  H2035   1.111   .     S
O2037  C2038   1.407   .     S
C2038  H2040   1.109   .     S
C2038  H2039   1.107   .     S
C2038  C2041   1.524   .     S
C2041  H2044   1.111   .     S
C2041  H2043   1.111   .     S
C2041  H2042   1.107   .     S
O2045  C2046   1.417   .     S
C2046  H2047   1.106   .     S
C2046  C2049   1.527   .     S
C2046  H2048   1.109   .     S
C2049  H2051   1.111   .     S
C2049  H2052   1.111   .     S
C2049  H1366   1.104   1_565 S
