data_str_m2_o1_o17_pcu_sym.220
_audit_creation_date              2020-01-03
_audit_creation_method            'Materials Studio'
_symmetry_space_group_name_H-M    'P1'
_symmetry_Int_Tables_number       1
_symmetry_cell_setting            triclinic
loop_
_symmetry_equiv_pos_as_xyz
  x,y,z
_cell_length_a                    32.5047
_cell_length_b                    28.5069
_cell_length_c                    30.2366
_cell_angle_alpha                 89.4975
_cell_angle_beta                  90.1736
_cell_angle_gamma                 89.9931
loop_
_atom_site_label
_atom_site_type_symbol
_atom_site_fract_x
_atom_site_fract_y
_atom_site_fract_z
_atom_site_U_iso_or_equiv
_atom_site_adp_type
_atom_site_occupancy
C1     C     0.08734   0.16667   0.24996   0.00000  Uiso   1.00
C2     C     0.24600   0.16666   0.25003   0.00000  Uiso   1.00
C3     C     0.14321   0.08626   0.02557   0.00000  Uiso   1.00
C4     C     0.19012   0.24707   0.47443   0.00000  Uiso   1.00
C5     C     0.02129   0.12404   0.25005   0.00000  Uiso   1.00
C6     C     0.31205   0.20930   0.24995   0.00000  Uiso   1.00
C7     C     0.31206   0.12403   0.25009   0.00000  Uiso   1.00
C8     C     0.02128   0.20930   0.24991   0.00000  Uiso   1.00
C9     C     0.29060   0.16666   0.25004   0.00000  Uiso   1.00
C10    C     0.04273   0.16667   0.24996   0.00000  Uiso   1.00
C11    C     0.14135   0.02508   0.22218   0.00000  Uiso   1.00
C12    C     0.19199   0.30825   0.27781   0.00000  Uiso   1.00
C13    C     0.19198   0.02457   0.27782   0.00000  Uiso   1.00
C14    C     0.14135   0.30876   0.22218   0.00000  Uiso   1.00
C15    C     0.16709   0.16693   0.16427   0.00000  Uiso   1.00
C16    C     0.16625   0.16640   0.33573   0.00000  Uiso   1.00
C17    C     0.17563   0.20662   0.40677   0.00000  Uiso   1.00
C18    C     0.15770   0.12671   0.09323   0.00000  Uiso   1.00
C19    C     0.16527   0.16584   0.38417   0.00000  Uiso   1.00
C20    C     0.16806   0.16749   0.11583   0.00000  Uiso   1.00
C21    C     0.15446   0.12491   0.40773   0.00000  Uiso   1.00
C22    C     0.17887   0.20842   0.09227   0.00000  Uiso   1.00
C23    C     0.15282   0.12503   0.45436   0.00000  Uiso   1.00
C24    C     0.18051   0.20830   0.04564   0.00000  Uiso   1.00
C25    C     0.16571   0.16626   0.47676   0.00000  Uiso   1.00
C26    C     0.16762   0.16707   0.02324   0.00000  Uiso   1.00
C27    C     0.17678   0.20685   0.45268   0.00000  Uiso   1.00
C28    C     0.15655   0.12649   0.04732   0.00000  Uiso   1.00
C29    C     0.14001   0.08519   0.47948   0.00000  Uiso   1.00
C30    C     0.19332   0.24814   0.02052   0.00000  Uiso   1.00
Cu31   Cu    0.16667   0.21355   0.25000   0.00000  Uiso   1.00
Cu32   Cu    0.16667   0.11978   0.25000   0.00000  Uiso   1.00
H33    H     0.18428   0.23802   0.38852   0.00000  Uiso   1.00
H34    H     0.14905   0.09531   0.11148   0.00000  Uiso   1.00
H35    H     0.13364   0.05596   0.04493   0.00000  Uiso   1.00
H36    H     0.19969   0.27737   0.45507   0.00000  Uiso   1.00
H37    H     0.03730   0.09071   0.25008   0.00000  Uiso   1.00
H38    H     0.29603   0.24262   0.24992   0.00000  Uiso   1.00
H39    H     0.29605   0.09071   0.25017   0.00000  Uiso   1.00
H40    H     0.03728   0.24263   0.24983   0.00000  Uiso   1.00
H41    H     0.12107   0.04404   0.19993   0.00000  Uiso   1.00
H42    H     0.21226   0.28929   0.30007   0.00000  Uiso   1.00
H43    H     0.21224   0.04312   0.30008   0.00000  Uiso   1.00
H44    H     0.12109   0.29021   0.19991   0.00000  Uiso   1.00
N45    N     0.16667   0.28402   0.25000   0.00000  Uiso   1.00
N46    N     0.16667   0.04931   0.25000   0.00000  Uiso   1.00
O47    O     0.10655   0.20625   0.24999   0.00000  Uiso   1.00
O48    O     0.22679   0.12709   0.25000   0.00000  Uiso   1.00
O49    O     0.22679   0.20625   0.25000   0.00000  Uiso   1.00
O50    O     0.10655   0.12709   0.24999   0.00000  Uiso   1.00
O51    O     0.16666   0.20627   0.18513   0.00000  Uiso   1.00
O52    O     0.16668   0.12707   0.31487   0.00000  Uiso   1.00
O53    O     0.16668   0.20627   0.31487   0.00000  Uiso   1.00
O54    O     0.16666   0.12707   0.18513   0.00000  Uiso   1.00
F55    F     0.14741   0.08490   0.38493   0.00000  Uiso   1.00
F56    F     0.18592   0.24843   0.11507   0.00000  Uiso   1.00
C57    C     0.12028   0.04327   0.45964   0.00000  Uiso   1.00
H58    H     0.10165   0.04637   0.43000   0.00000  Uiso   1.00
O59    O     0.12339   0.00472   0.47727   0.00000  Uiso   1.00
C60    C     0.21305   0.29006   0.04036   0.00000  Uiso   1.00
H61    H     0.23168   0.28696   0.07000   0.00000  Uiso   1.00
O62    O     0.20994   0.32862   0.02273   0.00000  Uiso   1.00
C63    C     0.42067   0.16667   0.24996   0.00000  Uiso   1.00
C64    C     0.57933   0.16666   0.25003   0.00000  Uiso   1.00
C65    C     0.47654   0.08626   0.02557   0.00000  Uiso   1.00
C66    C     0.52346   0.24707   0.47443   0.00000  Uiso   1.00
C67    C     0.35462   0.12404   0.25005   0.00000  Uiso   1.00
C68    C     0.64538   0.20930   0.24995   0.00000  Uiso   1.00
C69    C     0.64539   0.12403   0.25009   0.00000  Uiso   1.00
C70    C     0.35461   0.20930   0.24991   0.00000  Uiso   1.00
C71    C     0.62394   0.16666   0.25004   0.00000  Uiso   1.00
C72    C     0.37606   0.16667   0.24996   0.00000  Uiso   1.00
C73    C     0.47468   0.02508   0.22218   0.00000  Uiso   1.00
C74    C     0.52532   0.30825   0.27781   0.00000  Uiso   1.00
C75    C     0.52531   0.02457   0.27782   0.00000  Uiso   1.00
C76    C     0.47469   0.30876   0.22218   0.00000  Uiso   1.00
C77    C     0.50042   0.16693   0.16427   0.00000  Uiso   1.00
C78    C     0.49958   0.16640   0.33573   0.00000  Uiso   1.00
C79    C     0.50897   0.20662   0.40677   0.00000  Uiso   1.00
C80    C     0.49103   0.12671   0.09323   0.00000  Uiso   1.00
C81    C     0.49861   0.16584   0.38417   0.00000  Uiso   1.00
C82    C     0.50139   0.16749   0.11583   0.00000  Uiso   1.00
C83    C     0.48780   0.12491   0.40773   0.00000  Uiso   1.00
C84    C     0.51220   0.20842   0.09227   0.00000  Uiso   1.00
C85    C     0.48616   0.12503   0.45436   0.00000  Uiso   1.00
C86    C     0.51384   0.20830   0.04564   0.00000  Uiso   1.00
C87    C     0.49904   0.16626   0.47676   0.00000  Uiso   1.00
C88    C     0.50096   0.16707   0.02324   0.00000  Uiso   1.00
C89    C     0.51012   0.20685   0.45268   0.00000  Uiso   1.00
C90    C     0.48988   0.12649   0.04732   0.00000  Uiso   1.00
C91    C     0.47334   0.08519   0.47948   0.00000  Uiso   1.00
C92    C     0.52666   0.24814   0.02052   0.00000  Uiso   1.00
Cu93   Cu    0.50000   0.21355   0.25000   0.00000  Uiso   1.00
Cu94   Cu    0.50000   0.11978   0.25000   0.00000  Uiso   1.00
H95    H     0.51762   0.23802   0.38852   0.00000  Uiso   1.00
H96    H     0.48238   0.09531   0.11148   0.00000  Uiso   1.00
H97    H     0.46697   0.05596   0.04493   0.00000  Uiso   1.00
H98    H     0.53303   0.27737   0.45507   0.00000  Uiso   1.00
H99    H     0.37063   0.09071   0.25008   0.00000  Uiso   1.00
H100   H     0.62937   0.24262   0.24992   0.00000  Uiso   1.00
H101   H     0.62938   0.09071   0.25017   0.00000  Uiso   1.00
H102   H     0.37062   0.24263   0.24983   0.00000  Uiso   1.00
H103   H     0.45440   0.04404   0.19993   0.00000  Uiso   1.00
H104   H     0.54560   0.28929   0.30007   0.00000  Uiso   1.00
H105   H     0.54557   0.04312   0.30008   0.00000  Uiso   1.00
H106   H     0.45442   0.29021   0.19991   0.00000  Uiso   1.00
N107   N     0.50000   0.28402   0.25000   0.00000  Uiso   1.00
N108   N     0.50000   0.04931   0.25000   0.00000  Uiso   1.00
O109   O     0.43988   0.20625   0.24999   0.00000  Uiso   1.00
O110   O     0.56012   0.12709   0.25000   0.00000  Uiso   1.00
O111   O     0.56012   0.20625   0.25000   0.00000  Uiso   1.00
O112   O     0.43988   0.12709   0.24999   0.00000  Uiso   1.00
O113   O     0.49999   0.20627   0.18513   0.00000  Uiso   1.00
O114   O     0.50001   0.12707   0.31487   0.00000  Uiso   1.00
O115   O     0.50001   0.20627   0.31487   0.00000  Uiso   1.00
O116   O     0.49999   0.12707   0.18513   0.00000  Uiso   1.00
F117   F     0.48074   0.08490   0.38493   0.00000  Uiso   1.00
F118   F     0.51926   0.24843   0.11507   0.00000  Uiso   1.00
C119   C     0.45362   0.04327   0.45964   0.00000  Uiso   1.00
H120   H     0.43499   0.04637   0.43000   0.00000  Uiso   1.00
O121   O     0.45673   0.00472   0.47727   0.00000  Uiso   1.00
C122   C     0.54638   0.29006   0.04036   0.00000  Uiso   1.00
H123   H     0.56501   0.28696   0.07000   0.00000  Uiso   1.00
O124   O     0.54327   0.32862   0.02273   0.00000  Uiso   1.00
C125   C     0.75400   0.16667   0.24996   0.00000  Uiso   1.00
C126   C     0.91266   0.16666   0.25003   0.00000  Uiso   1.00
C127   C     0.80988   0.08626   0.02557   0.00000  Uiso   1.00
C128   C     0.85679   0.24707   0.47443   0.00000  Uiso   1.00
C129   C     0.68795   0.12404   0.25005   0.00000  Uiso   1.00
C130   C     0.97871   0.20930   0.24995   0.00000  Uiso   1.00
C131   C     0.97872   0.12403   0.25009   0.00000  Uiso   1.00
C132   C     0.68794   0.20930   0.24991   0.00000  Uiso   1.00
C133   C     0.95727   0.16666   0.25004   0.00000  Uiso   1.00
C134   C     0.70940   0.16667   0.24996   0.00000  Uiso   1.00
C135   C     0.80801   0.02508   0.22218   0.00000  Uiso   1.00
C136   C     0.85865   0.30825   0.27781   0.00000  Uiso   1.00
C137   C     0.85865   0.02457   0.27782   0.00000  Uiso   1.00
C138   C     0.80802   0.30876   0.22218   0.00000  Uiso   1.00
C139   C     0.83375   0.16693   0.16427   0.00000  Uiso   1.00
C140   C     0.83291   0.16640   0.33573   0.00000  Uiso   1.00
C141   C     0.84230   0.20662   0.40677   0.00000  Uiso   1.00
C142   C     0.82437   0.12671   0.09323   0.00000  Uiso   1.00
C143   C     0.83194   0.16584   0.38417   0.00000  Uiso   1.00
C144   C     0.83472   0.16749   0.11583   0.00000  Uiso   1.00
C145   C     0.82113   0.12491   0.40773   0.00000  Uiso   1.00
C146   C     0.84554   0.20842   0.09227   0.00000  Uiso   1.00
C147   C     0.81949   0.12503   0.45436   0.00000  Uiso   1.00
C148   C     0.84718   0.20830   0.04564   0.00000  Uiso   1.00
C149   C     0.83238   0.16626   0.47676   0.00000  Uiso   1.00
C150   C     0.83429   0.16707   0.02324   0.00000  Uiso   1.00
C151   C     0.84345   0.20685   0.45268   0.00000  Uiso   1.00
C152   C     0.82322   0.12649   0.04732   0.00000  Uiso   1.00
C153   C     0.80667   0.08519   0.47948   0.00000  Uiso   1.00
C154   C     0.85999   0.24814   0.02052   0.00000  Uiso   1.00
Cu155  Cu    0.83333   0.21355   0.25000   0.00000  Uiso   1.00
Cu156  Cu    0.83333   0.11978   0.25000   0.00000  Uiso   1.00
H157   H     0.85095   0.23802   0.38852   0.00000  Uiso   1.00
H158   H     0.81572   0.09531   0.11148   0.00000  Uiso   1.00
H159   H     0.80030   0.05596   0.04493   0.00000  Uiso   1.00
H160   H     0.86636   0.27737   0.45507   0.00000  Uiso   1.00
H161   H     0.70397   0.09071   0.25008   0.00000  Uiso   1.00
H162   H     0.96270   0.24262   0.24992   0.00000  Uiso   1.00
H163   H     0.96272   0.09071   0.25017   0.00000  Uiso   1.00
H164   H     0.70395   0.24263   0.24983   0.00000  Uiso   1.00
H165   H     0.78774   0.04404   0.19993   0.00000  Uiso   1.00
H166   H     0.87893   0.28929   0.30007   0.00000  Uiso   1.00
H167   H     0.87891   0.04312   0.30008   0.00000  Uiso   1.00
H168   H     0.78776   0.29021   0.19991   0.00000  Uiso   1.00
N169   N     0.83333   0.28402   0.25000   0.00000  Uiso   1.00
N170   N     0.83333   0.04931   0.25000   0.00000  Uiso   1.00
O171   O     0.77321   0.20625   0.24999   0.00000  Uiso   1.00
O172   O     0.89345   0.12709   0.25000   0.00000  Uiso   1.00
O173   O     0.89345   0.20625   0.25000   0.00000  Uiso   1.00
O174   O     0.77321   0.12709   0.24999   0.00000  Uiso   1.00
O175   O     0.83332   0.20627   0.18513   0.00000  Uiso   1.00
O176   O     0.83334   0.12707   0.31487   0.00000  Uiso   1.00
O177   O     0.83334   0.20627   0.31487   0.00000  Uiso   1.00
O178   O     0.83332   0.12707   0.18513   0.00000  Uiso   1.00
F179   F     0.81408   0.08490   0.38493   0.00000  Uiso   1.00
F180   F     0.85259   0.24843   0.11507   0.00000  Uiso   1.00
C181   C     0.78695   0.04327   0.45964   0.00000  Uiso   1.00
H182   H     0.76832   0.04637   0.43000   0.00000  Uiso   1.00
O183   O     0.79006   0.00472   0.47727   0.00000  Uiso   1.00
C184   C     0.87971   0.29006   0.04036   0.00000  Uiso   1.00
H185   H     0.89834   0.28696   0.07000   0.00000  Uiso   1.00
O186   O     0.87660   0.32862   0.02273   0.00000  Uiso   1.00
C187   C     0.08734   0.50000   0.24996   0.00000  Uiso   1.00
C188   C     0.24600   0.50000   0.25003   0.00000  Uiso   1.00
C189   C     0.14321   0.41960   0.02557   0.00000  Uiso   1.00
C190   C     0.19012   0.58040   0.47443   0.00000  Uiso   1.00
C191   C     0.02129   0.45737   0.25005   0.00000  Uiso   1.00
C192   C     0.31205   0.54263   0.24995   0.00000  Uiso   1.00
C193   C     0.31206   0.45737   0.25009   0.00000  Uiso   1.00
C194   C     0.02128   0.54263   0.24991   0.00000  Uiso   1.00
C195   C     0.29060   0.50000   0.25004   0.00000  Uiso   1.00
C196   C     0.04273   0.50000   0.24996   0.00000  Uiso   1.00
C197   C     0.14135   0.35842   0.22218   0.00000  Uiso   1.00
C198   C     0.19199   0.64158   0.27781   0.00000  Uiso   1.00
C199   C     0.19198   0.35790   0.27782   0.00000  Uiso   1.00
C200   C     0.14135   0.64210   0.22218   0.00000  Uiso   1.00
C201   C     0.16709   0.50026   0.16427   0.00000  Uiso   1.00
C202   C     0.16625   0.49973   0.33573   0.00000  Uiso   1.00
C203   C     0.17563   0.53995   0.40677   0.00000  Uiso   1.00
C204   C     0.15770   0.46005   0.09323   0.00000  Uiso   1.00
C205   C     0.16527   0.49918   0.38417   0.00000  Uiso   1.00
C206   C     0.16806   0.50082   0.11583   0.00000  Uiso   1.00
C207   C     0.15446   0.45825   0.40773   0.00000  Uiso   1.00
C208   C     0.17887   0.54175   0.09227   0.00000  Uiso   1.00
C209   C     0.15282   0.45836   0.45436   0.00000  Uiso   1.00
C210   C     0.18051   0.54164   0.04564   0.00000  Uiso   1.00
C211   C     0.16571   0.49960   0.47676   0.00000  Uiso   1.00
C212   C     0.16762   0.50040   0.02324   0.00000  Uiso   1.00
C213   C     0.17678   0.54018   0.45268   0.00000  Uiso   1.00
C214   C     0.15655   0.45982   0.04732   0.00000  Uiso   1.00
C215   C     0.14001   0.41853   0.47948   0.00000  Uiso   1.00
C216   C     0.19332   0.58147   0.02052   0.00000  Uiso   1.00
Cu217  Cu    0.16667   0.54689   0.25000   0.00000  Uiso   1.00
Cu218  Cu    0.16667   0.45311   0.25000   0.00000  Uiso   1.00
H219   H     0.18428   0.57135   0.38852   0.00000  Uiso   1.00
H220   H     0.14905   0.42865   0.11148   0.00000  Uiso   1.00
H221   H     0.13364   0.38929   0.04493   0.00000  Uiso   1.00
H222   H     0.19969   0.61071   0.45507   0.00000  Uiso   1.00
H223   H     0.03730   0.42404   0.25008   0.00000  Uiso   1.00
H224   H     0.29603   0.57596   0.24992   0.00000  Uiso   1.00
H225   H     0.29605   0.42404   0.25017   0.00000  Uiso   1.00
H226   H     0.03728   0.57596   0.24983   0.00000  Uiso   1.00
H227   H     0.12107   0.37737   0.19993   0.00000  Uiso   1.00
H228   H     0.21226   0.62263   0.30007   0.00000  Uiso   1.00
H229   H     0.21224   0.37645   0.30008   0.00000  Uiso   1.00
H230   H     0.12109   0.62355   0.19991   0.00000  Uiso   1.00
N231   N     0.16667   0.61736   0.25000   0.00000  Uiso   1.00
N232   N     0.16667   0.38264   0.25000   0.00000  Uiso   1.00
O233   O     0.10655   0.53958   0.24999   0.00000  Uiso   1.00
O234   O     0.22679   0.46042   0.25000   0.00000  Uiso   1.00
O235   O     0.22679   0.53958   0.25000   0.00000  Uiso   1.00
O236   O     0.10655   0.46042   0.24999   0.00000  Uiso   1.00
O237   O     0.16666   0.53960   0.18513   0.00000  Uiso   1.00
O238   O     0.16668   0.46040   0.31487   0.00000  Uiso   1.00
O239   O     0.16668   0.53960   0.31487   0.00000  Uiso   1.00
O240   O     0.16666   0.46040   0.18513   0.00000  Uiso   1.00
F241   F     0.14741   0.41823   0.38493   0.00000  Uiso   1.00
F242   F     0.18592   0.58177   0.11507   0.00000  Uiso   1.00
C243   C     0.12028   0.37660   0.45964   0.00000  Uiso   1.00
H244   H     0.10165   0.37971   0.43000   0.00000  Uiso   1.00
O245   O     0.12339   0.33805   0.47727   0.00000  Uiso   1.00
C246   C     0.21305   0.62340   0.04036   0.00000  Uiso   1.00
H247   H     0.23168   0.62029   0.07000   0.00000  Uiso   1.00
O248   O     0.20994   0.66195   0.02273   0.00000  Uiso   1.00
C249   C     0.42067   0.50000   0.24996   0.00000  Uiso   1.00
C250   C     0.57933   0.50000   0.25003   0.00000  Uiso   1.00
C251   C     0.47654   0.41960   0.02557   0.00000  Uiso   1.00
C252   C     0.52346   0.58040   0.47443   0.00000  Uiso   1.00
C253   C     0.35462   0.45737   0.25005   0.00000  Uiso   1.00
C254   C     0.64538   0.54263   0.24995   0.00000  Uiso   1.00
C255   C     0.64539   0.45737   0.25009   0.00000  Uiso   1.00
C256   C     0.35461   0.54263   0.24991   0.00000  Uiso   1.00
C257   C     0.62394   0.50000   0.25004   0.00000  Uiso   1.00
C258   C     0.37606   0.50000   0.24996   0.00000  Uiso   1.00
C259   C     0.47468   0.35842   0.22218   0.00000  Uiso   1.00
C260   C     0.52532   0.64158   0.27781   0.00000  Uiso   1.00
C261   C     0.52531   0.35790   0.27782   0.00000  Uiso   1.00
C262   C     0.47469   0.64210   0.22218   0.00000  Uiso   1.00
C263   C     0.50042   0.50026   0.16427   0.00000  Uiso   1.00
C264   C     0.49958   0.49973   0.33573   0.00000  Uiso   1.00
C265   C     0.50897   0.53995   0.40677   0.00000  Uiso   1.00
C266   C     0.49103   0.46005   0.09323   0.00000  Uiso   1.00
C267   C     0.49861   0.49918   0.38417   0.00000  Uiso   1.00
C268   C     0.50139   0.50082   0.11583   0.00000  Uiso   1.00
C269   C     0.48780   0.45825   0.40773   0.00000  Uiso   1.00
C270   C     0.51220   0.54175   0.09227   0.00000  Uiso   1.00
C271   C     0.48616   0.45836   0.45436   0.00000  Uiso   1.00
C272   C     0.51384   0.54164   0.04564   0.00000  Uiso   1.00
C273   C     0.49904   0.49960   0.47676   0.00000  Uiso   1.00
C274   C     0.50096   0.50040   0.02324   0.00000  Uiso   1.00
C275   C     0.51012   0.54018   0.45268   0.00000  Uiso   1.00
C276   C     0.48988   0.45982   0.04732   0.00000  Uiso   1.00
C277   C     0.47334   0.41853   0.47948   0.00000  Uiso   1.00
C278   C     0.52666   0.58147   0.02052   0.00000  Uiso   1.00
Cu279  Cu    0.50000   0.54689   0.25000   0.00000  Uiso   1.00
Cu280  Cu    0.50000   0.45311   0.25000   0.00000  Uiso   1.00
H281   H     0.51762   0.57135   0.38852   0.00000  Uiso   1.00
H282   H     0.48238   0.42865   0.11148   0.00000  Uiso   1.00
H283   H     0.46697   0.38929   0.04493   0.00000  Uiso   1.00
H284   H     0.53303   0.61071   0.45507   0.00000  Uiso   1.00
H285   H     0.37063   0.42404   0.25008   0.00000  Uiso   1.00
H286   H     0.62937   0.57596   0.24992   0.00000  Uiso   1.00
H287   H     0.62938   0.42404   0.25017   0.00000  Uiso   1.00
H288   H     0.37062   0.57596   0.24983   0.00000  Uiso   1.00
H289   H     0.45440   0.37737   0.19993   0.00000  Uiso   1.00
H290   H     0.54560   0.62263   0.30007   0.00000  Uiso   1.00
H291   H     0.54557   0.37645   0.30008   0.00000  Uiso   1.00
H292   H     0.45442   0.62355   0.19991   0.00000  Uiso   1.00
N293   N     0.50000   0.61736   0.25000   0.00000  Uiso   1.00
N294   N     0.50000   0.38264   0.25000   0.00000  Uiso   1.00
O295   O     0.43988   0.53958   0.24999   0.00000  Uiso   1.00
O296   O     0.56012   0.46042   0.25000   0.00000  Uiso   1.00
O297   O     0.56012   0.53958   0.25000   0.00000  Uiso   1.00
O298   O     0.43988   0.46042   0.24999   0.00000  Uiso   1.00
O299   O     0.49999   0.53960   0.18513   0.00000  Uiso   1.00
O300   O     0.50001   0.46040   0.31487   0.00000  Uiso   1.00
O301   O     0.50001   0.53960   0.31487   0.00000  Uiso   1.00
O302   O     0.49999   0.46040   0.18513   0.00000  Uiso   1.00
F303   F     0.48074   0.41823   0.38493   0.00000  Uiso   1.00
F304   F     0.51926   0.58177   0.11507   0.00000  Uiso   1.00
C305   C     0.45362   0.37660   0.45964   0.00000  Uiso   1.00
H306   H     0.43499   0.37971   0.43000   0.00000  Uiso   1.00
O307   O     0.45673   0.33805   0.47727   0.00000  Uiso   1.00
C308   C     0.54638   0.62340   0.04036   0.00000  Uiso   1.00
H309   H     0.56501   0.62029   0.07000   0.00000  Uiso   1.00
O310   O     0.54327   0.66195   0.02273   0.00000  Uiso   1.00
C311   C     0.75400   0.50000   0.24996   0.00000  Uiso   1.00
C312   C     0.91266   0.50000   0.25003   0.00000  Uiso   1.00
C313   C     0.80988   0.41960   0.02557   0.00000  Uiso   1.00
C314   C     0.85679   0.58040   0.47443   0.00000  Uiso   1.00
C315   C     0.68795   0.45737   0.25005   0.00000  Uiso   1.00
C316   C     0.97871   0.54263   0.24995   0.00000  Uiso   1.00
C317   C     0.97872   0.45737   0.25009   0.00000  Uiso   1.00
C318   C     0.68794   0.54263   0.24991   0.00000  Uiso   1.00
C319   C     0.95727   0.50000   0.25004   0.00000  Uiso   1.00
C320   C     0.70940   0.50000   0.24996   0.00000  Uiso   1.00
C321   C     0.80801   0.35842   0.22218   0.00000  Uiso   1.00
C322   C     0.85865   0.64158   0.27781   0.00000  Uiso   1.00
C323   C     0.85865   0.35790   0.27782   0.00000  Uiso   1.00
C324   C     0.80802   0.64210   0.22218   0.00000  Uiso   1.00
C325   C     0.83375   0.50026   0.16427   0.00000  Uiso   1.00
C326   C     0.83291   0.49973   0.33573   0.00000  Uiso   1.00
C327   C     0.84230   0.53995   0.40677   0.00000  Uiso   1.00
C328   C     0.82437   0.46005   0.09323   0.00000  Uiso   1.00
C329   C     0.83194   0.49918   0.38417   0.00000  Uiso   1.00
C330   C     0.83472   0.50082   0.11583   0.00000  Uiso   1.00
C331   C     0.82113   0.45825   0.40773   0.00000  Uiso   1.00
C332   C     0.84554   0.54175   0.09227   0.00000  Uiso   1.00
C333   C     0.81949   0.45836   0.45436   0.00000  Uiso   1.00
C334   C     0.84718   0.54164   0.04564   0.00000  Uiso   1.00
C335   C     0.83238   0.49960   0.47676   0.00000  Uiso   1.00
C336   C     0.83429   0.50040   0.02324   0.00000  Uiso   1.00
C337   C     0.84345   0.54018   0.45268   0.00000  Uiso   1.00
C338   C     0.82322   0.45982   0.04732   0.00000  Uiso   1.00
C339   C     0.80667   0.41853   0.47948   0.00000  Uiso   1.00
C340   C     0.85999   0.58147   0.02052   0.00000  Uiso   1.00
Cu341  Cu    0.83333   0.54689   0.25000   0.00000  Uiso   1.00
Cu342  Cu    0.83333   0.45311   0.25000   0.00000  Uiso   1.00
H343   H     0.85095   0.57135   0.38852   0.00000  Uiso   1.00
H344   H     0.81572   0.42865   0.11148   0.00000  Uiso   1.00
H345   H     0.80030   0.38929   0.04493   0.00000  Uiso   1.00
H346   H     0.86636   0.61071   0.45507   0.00000  Uiso   1.00
H347   H     0.70397   0.42404   0.25008   0.00000  Uiso   1.00
H348   H     0.96270   0.57596   0.24992   0.00000  Uiso   1.00
H349   H     0.96272   0.42404   0.25017   0.00000  Uiso   1.00
H350   H     0.70395   0.57596   0.24983   0.00000  Uiso   1.00
H351   H     0.78774   0.37737   0.19993   0.00000  Uiso   1.00
H352   H     0.87893   0.62263   0.30007   0.00000  Uiso   1.00
H353   H     0.87891   0.37645   0.30008   0.00000  Uiso   1.00
H354   H     0.78776   0.62355   0.19991   0.00000  Uiso   1.00
N355   N     0.83333   0.61736   0.25000   0.00000  Uiso   1.00
N356   N     0.83333   0.38264   0.25000   0.00000  Uiso   1.00
O357   O     0.77321   0.53958   0.24999   0.00000  Uiso   1.00
O358   O     0.89345   0.46042   0.25000   0.00000  Uiso   1.00
O359   O     0.89345   0.53958   0.25000   0.00000  Uiso   1.00
O360   O     0.77321   0.46042   0.24999   0.00000  Uiso   1.00
O361   O     0.83332   0.53960   0.18513   0.00000  Uiso   1.00
O362   O     0.83334   0.46040   0.31487   0.00000  Uiso   1.00
O363   O     0.83334   0.53960   0.31487   0.00000  Uiso   1.00
O364   O     0.83332   0.46040   0.18513   0.00000  Uiso   1.00
F365   F     0.81408   0.41823   0.38493   0.00000  Uiso   1.00
F366   F     0.85259   0.58177   0.11507   0.00000  Uiso   1.00
C367   C     0.78695   0.37660   0.45964   0.00000  Uiso   1.00
H368   H     0.76832   0.37971   0.43000   0.00000  Uiso   1.00
O369   O     0.79006   0.33805   0.47727   0.00000  Uiso   1.00
C370   C     0.87971   0.62340   0.04036   0.00000  Uiso   1.00
H371   H     0.89834   0.62029   0.07000   0.00000  Uiso   1.00
O372   O     0.87660   0.66195   0.02273   0.00000  Uiso   1.00
C373   C     0.08734   0.83334   0.24996   0.00000  Uiso   1.00
C374   C     0.24600   0.83333   0.25003   0.00000  Uiso   1.00
C375   C     0.14321   0.75293   0.02557   0.00000  Uiso   1.00
C376   C     0.19012   0.91374   0.47443   0.00000  Uiso   1.00
C377   C     0.02129   0.79070   0.25005   0.00000  Uiso   1.00
C378   C     0.31205   0.87596   0.24995   0.00000  Uiso   1.00
C379   C     0.31206   0.79070   0.25009   0.00000  Uiso   1.00
C380   C     0.02128   0.87597   0.24991   0.00000  Uiso   1.00
C381   C     0.29060   0.83333   0.25004   0.00000  Uiso   1.00
C382   C     0.04273   0.83334   0.24996   0.00000  Uiso   1.00
C383   C     0.14135   0.69175   0.22218   0.00000  Uiso   1.00
C384   C     0.19199   0.97492   0.27781   0.00000  Uiso   1.00
C385   C     0.19198   0.69124   0.27782   0.00000  Uiso   1.00
C386   C     0.14135   0.97543   0.22218   0.00000  Uiso   1.00
C387   C     0.16709   0.83360   0.16427   0.00000  Uiso   1.00
C388   C     0.16625   0.83307   0.33573   0.00000  Uiso   1.00
C389   C     0.17563   0.87329   0.40677   0.00000  Uiso   1.00
C390   C     0.15770   0.79338   0.09323   0.00000  Uiso   1.00
C391   C     0.16527   0.83251   0.38417   0.00000  Uiso   1.00
C392   C     0.16806   0.83416   0.11583   0.00000  Uiso   1.00
C393   C     0.15446   0.79158   0.40773   0.00000  Uiso   1.00
C394   C     0.17887   0.87509   0.09227   0.00000  Uiso   1.00
C395   C     0.15282   0.79170   0.45436   0.00000  Uiso   1.00
C396   C     0.18051   0.87497   0.04564   0.00000  Uiso   1.00
C397   C     0.16571   0.83293   0.47676   0.00000  Uiso   1.00
C398   C     0.16762   0.83374   0.02324   0.00000  Uiso   1.00
C399   C     0.17678   0.87351   0.45268   0.00000  Uiso   1.00
C400   C     0.15655   0.79315   0.04732   0.00000  Uiso   1.00
C401   C     0.14001   0.75186   0.47948   0.00000  Uiso   1.00
C402   C     0.19332   0.91481   0.02052   0.00000  Uiso   1.00
Cu403  Cu    0.16667   0.88022   0.25000   0.00000  Uiso   1.00
Cu404  Cu    0.16667   0.78645   0.25000   0.00000  Uiso   1.00
H405   H     0.18428   0.90469   0.38852   0.00000  Uiso   1.00
H406   H     0.14905   0.76198   0.11148   0.00000  Uiso   1.00
H407   H     0.13364   0.72263   0.04493   0.00000  Uiso   1.00
H408   H     0.19969   0.94404   0.45507   0.00000  Uiso   1.00
H409   H     0.03730   0.75738   0.25008   0.00000  Uiso   1.00
H410   H     0.29603   0.90929   0.24992   0.00000  Uiso   1.00
H411   H     0.29605   0.75737   0.25017   0.00000  Uiso   1.00
H412   H     0.03728   0.90929   0.24983   0.00000  Uiso   1.00
H413   H     0.12107   0.71071   0.19993   0.00000  Uiso   1.00
H414   H     0.21226   0.95596   0.30007   0.00000  Uiso   1.00
H415   H     0.21224   0.70979   0.30008   0.00000  Uiso   1.00
H416   H     0.12109   0.95688   0.19991   0.00000  Uiso   1.00
N417   N     0.16667   0.95069   0.25000   0.00000  Uiso   1.00
N418   N     0.16667   0.71598   0.25000   0.00000  Uiso   1.00
O419   O     0.10655   0.87291   0.24999   0.00000  Uiso   1.00
O420   O     0.22679   0.79375   0.25000   0.00000  Uiso   1.00
O421   O     0.22679   0.87291   0.25000   0.00000  Uiso   1.00
O422   O     0.10655   0.79375   0.24999   0.00000  Uiso   1.00
O423   O     0.16666   0.87293   0.18513   0.00000  Uiso   1.00
O424   O     0.16668   0.79373   0.31487   0.00000  Uiso   1.00
O425   O     0.16668   0.87293   0.31487   0.00000  Uiso   1.00
O426   O     0.16666   0.79373   0.18513   0.00000  Uiso   1.00
F427   F     0.14741   0.75157   0.38493   0.00000  Uiso   1.00
F428   F     0.18592   0.91510   0.11507   0.00000  Uiso   1.00
C429   C     0.12028   0.70994   0.45964   0.00000  Uiso   1.00
H430   H     0.10165   0.71304   0.43000   0.00000  Uiso   1.00
O431   O     0.12339   0.67138   0.47727   0.00000  Uiso   1.00
C432   C     0.21305   0.95673   0.04036   0.00000  Uiso   1.00
H433   H     0.23168   0.95363   0.07000   0.00000  Uiso   1.00
O434   O     0.20994   0.99528   0.02273   0.00000  Uiso   1.00
C435   C     0.42067   0.83334   0.24996   0.00000  Uiso   1.00
C436   C     0.57933   0.83333   0.25003   0.00000  Uiso   1.00
C437   C     0.47654   0.75293   0.02557   0.00000  Uiso   1.00
C438   C     0.52346   0.91374   0.47443   0.00000  Uiso   1.00
C439   C     0.35462   0.79070   0.25005   0.00000  Uiso   1.00
C440   C     0.64538   0.87596   0.24995   0.00000  Uiso   1.00
C441   C     0.64539   0.79070   0.25009   0.00000  Uiso   1.00
C442   C     0.35461   0.87597   0.24991   0.00000  Uiso   1.00
C443   C     0.62394   0.83333   0.25004   0.00000  Uiso   1.00
C444   C     0.37606   0.83334   0.24996   0.00000  Uiso   1.00
C445   C     0.47468   0.69175   0.22218   0.00000  Uiso   1.00
C446   C     0.52532   0.97492   0.27781   0.00000  Uiso   1.00
C447   C     0.52531   0.69124   0.27782   0.00000  Uiso   1.00
C448   C     0.47469   0.97543   0.22218   0.00000  Uiso   1.00
C449   C     0.50042   0.83360   0.16427   0.00000  Uiso   1.00
C450   C     0.49958   0.83307   0.33573   0.00000  Uiso   1.00
C451   C     0.50897   0.87329   0.40677   0.00000  Uiso   1.00
C452   C     0.49103   0.79338   0.09323   0.00000  Uiso   1.00
C453   C     0.49861   0.83251   0.38417   0.00000  Uiso   1.00
C454   C     0.50139   0.83416   0.11583   0.00000  Uiso   1.00
C455   C     0.48780   0.79158   0.40773   0.00000  Uiso   1.00
C456   C     0.51220   0.87509   0.09227   0.00000  Uiso   1.00
C457   C     0.48616   0.79170   0.45436   0.00000  Uiso   1.00
C458   C     0.51384   0.87497   0.04564   0.00000  Uiso   1.00
C459   C     0.49904   0.83293   0.47676   0.00000  Uiso   1.00
C460   C     0.50096   0.83374   0.02324   0.00000  Uiso   1.00
C461   C     0.51012   0.87351   0.45268   0.00000  Uiso   1.00
C462   C     0.48988   0.79315   0.04732   0.00000  Uiso   1.00
C463   C     0.47334   0.75186   0.47948   0.00000  Uiso   1.00
C464   C     0.52666   0.91481   0.02052   0.00000  Uiso   1.00
Cu465  Cu    0.50000   0.88022   0.25000   0.00000  Uiso   1.00
Cu466  Cu    0.50000   0.78645   0.25000   0.00000  Uiso   1.00
H467   H     0.51762   0.90469   0.38852   0.00000  Uiso   1.00
H468   H     0.48238   0.76198   0.11148   0.00000  Uiso   1.00
H469   H     0.46697   0.72263   0.04493   0.00000  Uiso   1.00
H470   H     0.53303   0.94404   0.45507   0.00000  Uiso   1.00
H471   H     0.37063   0.75738   0.25008   0.00000  Uiso   1.00
H472   H     0.62937   0.90929   0.24992   0.00000  Uiso   1.00
H473   H     0.62938   0.75737   0.25017   0.00000  Uiso   1.00
H474   H     0.37062   0.90929   0.24983   0.00000  Uiso   1.00
H475   H     0.45440   0.71071   0.19993   0.00000  Uiso   1.00
H476   H     0.54560   0.95596   0.30007   0.00000  Uiso   1.00
H477   H     0.54557   0.70979   0.30008   0.00000  Uiso   1.00
H478   H     0.45442   0.95688   0.19991   0.00000  Uiso   1.00
N479   N     0.50000   0.95069   0.25000   0.00000  Uiso   1.00
N480   N     0.50000   0.71598   0.25000   0.00000  Uiso   1.00
O481   O     0.43988   0.87291   0.24999   0.00000  Uiso   1.00
O482   O     0.56012   0.79375   0.25000   0.00000  Uiso   1.00
O483   O     0.56012   0.87291   0.25000   0.00000  Uiso   1.00
O484   O     0.43988   0.79375   0.24999   0.00000  Uiso   1.00
O485   O     0.49999   0.87293   0.18513   0.00000  Uiso   1.00
O486   O     0.50001   0.79373   0.31487   0.00000  Uiso   1.00
O487   O     0.50001   0.87293   0.31487   0.00000  Uiso   1.00
O488   O     0.49999   0.79373   0.18513   0.00000  Uiso   1.00
F489   F     0.48074   0.75157   0.38493   0.00000  Uiso   1.00
F490   F     0.51926   0.91510   0.11507   0.00000  Uiso   1.00
C491   C     0.45362   0.70994   0.45964   0.00000  Uiso   1.00
H492   H     0.43499   0.71304   0.43000   0.00000  Uiso   1.00
O493   O     0.45673   0.67138   0.47727   0.00000  Uiso   1.00
C494   C     0.54638   0.95673   0.04036   0.00000  Uiso   1.00
H495   H     0.56501   0.95363   0.07000   0.00000  Uiso   1.00
O496   O     0.54327   0.99528   0.02273   0.00000  Uiso   1.00
C497   C     0.75400   0.83334   0.24996   0.00000  Uiso   1.00
C498   C     0.91266   0.83333   0.25003   0.00000  Uiso   1.00
C499   C     0.80988   0.75293   0.02557   0.00000  Uiso   1.00
C500   C     0.85679   0.91374   0.47443   0.00000  Uiso   1.00
C501   C     0.68795   0.79070   0.25005   0.00000  Uiso   1.00
C502   C     0.97871   0.87596   0.24995   0.00000  Uiso   1.00
C503   C     0.97872   0.79070   0.25009   0.00000  Uiso   1.00
C504   C     0.68794   0.87597   0.24991   0.00000  Uiso   1.00
C505   C     0.95727   0.83333   0.25004   0.00000  Uiso   1.00
C506   C     0.70940   0.83334   0.24996   0.00000  Uiso   1.00
C507   C     0.80801   0.69175   0.22218   0.00000  Uiso   1.00
C508   C     0.85865   0.97492   0.27781   0.00000  Uiso   1.00
C509   C     0.85865   0.69124   0.27782   0.00000  Uiso   1.00
C510   C     0.80802   0.97543   0.22218   0.00000  Uiso   1.00
C511   C     0.83375   0.83360   0.16427   0.00000  Uiso   1.00
C512   C     0.83291   0.83307   0.33573   0.00000  Uiso   1.00
C513   C     0.84230   0.87329   0.40677   0.00000  Uiso   1.00
C514   C     0.82437   0.79338   0.09323   0.00000  Uiso   1.00
C515   C     0.83194   0.83251   0.38417   0.00000  Uiso   1.00
C516   C     0.83472   0.83416   0.11583   0.00000  Uiso   1.00
C517   C     0.82113   0.79158   0.40773   0.00000  Uiso   1.00
C518   C     0.84554   0.87509   0.09227   0.00000  Uiso   1.00
C519   C     0.81949   0.79170   0.45436   0.00000  Uiso   1.00
C520   C     0.84718   0.87497   0.04564   0.00000  Uiso   1.00
C521   C     0.83238   0.83293   0.47676   0.00000  Uiso   1.00
C522   C     0.83429   0.83374   0.02324   0.00000  Uiso   1.00
C523   C     0.84345   0.87351   0.45268   0.00000  Uiso   1.00
C524   C     0.82322   0.79315   0.04732   0.00000  Uiso   1.00
C525   C     0.80667   0.75186   0.47948   0.00000  Uiso   1.00
C526   C     0.85999   0.91481   0.02052   0.00000  Uiso   1.00
Cu527  Cu    0.83333   0.88022   0.25000   0.00000  Uiso   1.00
Cu528  Cu    0.83333   0.78645   0.25000   0.00000  Uiso   1.00
H529   H     0.85095   0.90469   0.38852   0.00000  Uiso   1.00
H530   H     0.81572   0.76198   0.11148   0.00000  Uiso   1.00
H531   H     0.80030   0.72263   0.04493   0.00000  Uiso   1.00
H532   H     0.86636   0.94404   0.45507   0.00000  Uiso   1.00
H533   H     0.70397   0.75738   0.25008   0.00000  Uiso   1.00
H534   H     0.96270   0.90929   0.24992   0.00000  Uiso   1.00
H535   H     0.96272   0.75737   0.25017   0.00000  Uiso   1.00
H536   H     0.70395   0.90929   0.24983   0.00000  Uiso   1.00
H537   H     0.78774   0.71071   0.19993   0.00000  Uiso   1.00
H538   H     0.87893   0.95596   0.30007   0.00000  Uiso   1.00
H539   H     0.87891   0.70979   0.30008   0.00000  Uiso   1.00
H540   H     0.78776   0.95688   0.19991   0.00000  Uiso   1.00
N541   N     0.83333   0.95069   0.25000   0.00000  Uiso   1.00
N542   N     0.83333   0.71598   0.25000   0.00000  Uiso   1.00
O543   O     0.77321   0.87291   0.24999   0.00000  Uiso   1.00
O544   O     0.89345   0.79375   0.25000   0.00000  Uiso   1.00
O545   O     0.89345   0.87291   0.25000   0.00000  Uiso   1.00
O546   O     0.77321   0.79375   0.24999   0.00000  Uiso   1.00
O547   O     0.83332   0.87293   0.18513   0.00000  Uiso   1.00
O548   O     0.83334   0.79373   0.31487   0.00000  Uiso   1.00
O549   O     0.83334   0.87293   0.31487   0.00000  Uiso   1.00
O550   O     0.83332   0.79373   0.18513   0.00000  Uiso   1.00
F551   F     0.81408   0.75157   0.38493   0.00000  Uiso   1.00
F552   F     0.85259   0.91510   0.11507   0.00000  Uiso   1.00
C553   C     0.78695   0.70994   0.45964   0.00000  Uiso   1.00
H554   H     0.76832   0.71304   0.43000   0.00000  Uiso   1.00
O555   O     0.79006   0.67138   0.47727   0.00000  Uiso   1.00
C556   C     0.87971   0.95673   0.04036   0.00000  Uiso   1.00
H557   H     0.89834   0.95363   0.07000   0.00000  Uiso   1.00
O558   O     0.87660   0.99528   0.02273   0.00000  Uiso   1.00
C559   C     0.08734   0.16667   0.74996   0.00000  Uiso   1.00
C560   C     0.24600   0.16666   0.75003   0.00000  Uiso   1.00
C561   C     0.14321   0.08626   0.52557   0.00000  Uiso   1.00
C562   C     0.19012   0.24707   0.97443   0.00000  Uiso   1.00
C563   C     0.02129   0.12404   0.75005   0.00000  Uiso   1.00
C564   C     0.31205   0.20930   0.74995   0.00000  Uiso   1.00
C565   C     0.31206   0.12403   0.75009   0.00000  Uiso   1.00
C566   C     0.02128   0.20930   0.74991   0.00000  Uiso   1.00
C567   C     0.29060   0.16666   0.75004   0.00000  Uiso   1.00
C568   C     0.04273   0.16667   0.74996   0.00000  Uiso   1.00
C569   C     0.14135   0.02508   0.72218   0.00000  Uiso   1.00
C570   C     0.19199   0.30825   0.77781   0.00000  Uiso   1.00
C571   C     0.19198   0.02457   0.77782   0.00000  Uiso   1.00
C572   C     0.14135   0.30876   0.72218   0.00000  Uiso   1.00
C573   C     0.16709   0.16693   0.66427   0.00000  Uiso   1.00
C574   C     0.16625   0.16640   0.83573   0.00000  Uiso   1.00
C575   C     0.17563   0.20662   0.90677   0.00000  Uiso   1.00
C576   C     0.15770   0.12671   0.59323   0.00000  Uiso   1.00
C577   C     0.16527   0.16584   0.88417   0.00000  Uiso   1.00
C578   C     0.16806   0.16749   0.61583   0.00000  Uiso   1.00
C579   C     0.15446   0.12491   0.90773   0.00000  Uiso   1.00
C580   C     0.17887   0.20842   0.59227   0.00000  Uiso   1.00
C581   C     0.15282   0.12503   0.95436   0.00000  Uiso   1.00
C582   C     0.18051   0.20830   0.54564   0.00000  Uiso   1.00
C583   C     0.16571   0.16626   0.97676   0.00000  Uiso   1.00
C584   C     0.16762   0.16707   0.52324   0.00000  Uiso   1.00
C585   C     0.17678   0.20685   0.95268   0.00000  Uiso   1.00
C586   C     0.15655   0.12649   0.54732   0.00000  Uiso   1.00
C587   C     0.14001   0.08519   0.97948   0.00000  Uiso   1.00
C588   C     0.19332   0.24814   0.52052   0.00000  Uiso   1.00
Cu589  Cu    0.16667   0.21355   0.75000   0.00000  Uiso   1.00
Cu590  Cu    0.16667   0.11978   0.75000   0.00000  Uiso   1.00
H591   H     0.18428   0.23802   0.88852   0.00000  Uiso   1.00
H592   H     0.14905   0.09531   0.61148   0.00000  Uiso   1.00
H593   H     0.13364   0.05596   0.54493   0.00000  Uiso   1.00
H594   H     0.19969   0.27737   0.95507   0.00000  Uiso   1.00
H595   H     0.03730   0.09071   0.75008   0.00000  Uiso   1.00
H596   H     0.29603   0.24262   0.74992   0.00000  Uiso   1.00
H597   H     0.29605   0.09071   0.75017   0.00000  Uiso   1.00
H598   H     0.03728   0.24263   0.74983   0.00000  Uiso   1.00
H599   H     0.12107   0.04404   0.69993   0.00000  Uiso   1.00
H600   H     0.21226   0.28929   0.80007   0.00000  Uiso   1.00
H601   H     0.21224   0.04312   0.80008   0.00000  Uiso   1.00
H602   H     0.12109   0.29021   0.69991   0.00000  Uiso   1.00
N603   N     0.16667   0.28402   0.75000   0.00000  Uiso   1.00
N604   N     0.16667   0.04931   0.75000   0.00000  Uiso   1.00
O605   O     0.10655   0.20625   0.74999   0.00000  Uiso   1.00
O606   O     0.22679   0.12709   0.75000   0.00000  Uiso   1.00
O607   O     0.22679   0.20625   0.75000   0.00000  Uiso   1.00
O608   O     0.10655   0.12709   0.74999   0.00000  Uiso   1.00
O609   O     0.16666   0.20627   0.68513   0.00000  Uiso   1.00
O610   O     0.16668   0.12707   0.81487   0.00000  Uiso   1.00
O611   O     0.16668   0.20627   0.81487   0.00000  Uiso   1.00
O612   O     0.16666   0.12707   0.68513   0.00000  Uiso   1.00
F613   F     0.14741   0.08490   0.88493   0.00000  Uiso   1.00
F614   F     0.18592   0.24843   0.61507   0.00000  Uiso   1.00
C615   C     0.12028   0.04327   0.95964   0.00000  Uiso   1.00
H616   H     0.10165   0.04637   0.93000   0.00000  Uiso   1.00
O617   O     0.12339   0.00472   0.97727   0.00000  Uiso   1.00
C618   C     0.21305   0.29006   0.54036   0.00000  Uiso   1.00
H619   H     0.23168   0.28696   0.57000   0.00000  Uiso   1.00
O620   O     0.20994   0.32862   0.52273   0.00000  Uiso   1.00
C621   C     0.42067   0.16667   0.74996   0.00000  Uiso   1.00
C622   C     0.57933   0.16666   0.75003   0.00000  Uiso   1.00
C623   C     0.47654   0.08626   0.52557   0.00000  Uiso   1.00
C624   C     0.52346   0.24707   0.97443   0.00000  Uiso   1.00
C625   C     0.35462   0.12404   0.75005   0.00000  Uiso   1.00
C626   C     0.64538   0.20930   0.74995   0.00000  Uiso   1.00
C627   C     0.64539   0.12403   0.75009   0.00000  Uiso   1.00
C628   C     0.35461   0.20930   0.74991   0.00000  Uiso   1.00
C629   C     0.62394   0.16666   0.75004   0.00000  Uiso   1.00
C630   C     0.37606   0.16667   0.74996   0.00000  Uiso   1.00
C631   C     0.47468   0.02508   0.72218   0.00000  Uiso   1.00
C632   C     0.52532   0.30825   0.77781   0.00000  Uiso   1.00
C633   C     0.52531   0.02457   0.77782   0.00000  Uiso   1.00
C634   C     0.47469   0.30876   0.72218   0.00000  Uiso   1.00
C635   C     0.50042   0.16693   0.66427   0.00000  Uiso   1.00
C636   C     0.49958   0.16640   0.83573   0.00000  Uiso   1.00
C637   C     0.50897   0.20662   0.90677   0.00000  Uiso   1.00
C638   C     0.49103   0.12671   0.59323   0.00000  Uiso   1.00
C639   C     0.49861   0.16584   0.88417   0.00000  Uiso   1.00
C640   C     0.50139   0.16749   0.61583   0.00000  Uiso   1.00
C641   C     0.48780   0.12491   0.90773   0.00000  Uiso   1.00
C642   C     0.51220   0.20842   0.59227   0.00000  Uiso   1.00
C643   C     0.48616   0.12503   0.95436   0.00000  Uiso   1.00
C644   C     0.51384   0.20830   0.54564   0.00000  Uiso   1.00
C645   C     0.49904   0.16626   0.97676   0.00000  Uiso   1.00
C646   C     0.50096   0.16707   0.52324   0.00000  Uiso   1.00
C647   C     0.51012   0.20685   0.95268   0.00000  Uiso   1.00
C648   C     0.48988   0.12649   0.54732   0.00000  Uiso   1.00
C649   C     0.47334   0.08519   0.97948   0.00000  Uiso   1.00
C650   C     0.52666   0.24814   0.52052   0.00000  Uiso   1.00
Cu651  Cu    0.50000   0.21355   0.75000   0.00000  Uiso   1.00
Cu652  Cu    0.50000   0.11978   0.75000   0.00000  Uiso   1.00
H653   H     0.51762   0.23802   0.88852   0.00000  Uiso   1.00
H654   H     0.48238   0.09531   0.61148   0.00000  Uiso   1.00
H655   H     0.46697   0.05596   0.54493   0.00000  Uiso   1.00
H656   H     0.53303   0.27737   0.95507   0.00000  Uiso   1.00
H657   H     0.37063   0.09071   0.75008   0.00000  Uiso   1.00
H658   H     0.62937   0.24262   0.74992   0.00000  Uiso   1.00
H659   H     0.62938   0.09071   0.75017   0.00000  Uiso   1.00
H660   H     0.37062   0.24263   0.74983   0.00000  Uiso   1.00
H661   H     0.45440   0.04404   0.69993   0.00000  Uiso   1.00
H662   H     0.54560   0.28929   0.80007   0.00000  Uiso   1.00
H663   H     0.54557   0.04312   0.80008   0.00000  Uiso   1.00
H664   H     0.45442   0.29021   0.69991   0.00000  Uiso   1.00
N665   N     0.50000   0.28402   0.75000   0.00000  Uiso   1.00
N666   N     0.50000   0.04931   0.75000   0.00000  Uiso   1.00
O667   O     0.43988   0.20625   0.74999   0.00000  Uiso   1.00
O668   O     0.56012   0.12709   0.75000   0.00000  Uiso   1.00
O669   O     0.56012   0.20625   0.75000   0.00000  Uiso   1.00
O670   O     0.43988   0.12709   0.74999   0.00000  Uiso   1.00
O671   O     0.49999   0.20627   0.68513   0.00000  Uiso   1.00
O672   O     0.50001   0.12707   0.81487   0.00000  Uiso   1.00
O673   O     0.50001   0.20627   0.81487   0.00000  Uiso   1.00
O674   O     0.49999   0.12707   0.68513   0.00000  Uiso   1.00
F675   F     0.48074   0.08490   0.88493   0.00000  Uiso   1.00
F676   F     0.51926   0.24843   0.61507   0.00000  Uiso   1.00
C677   C     0.45362   0.04327   0.95964   0.00000  Uiso   1.00
H678   H     0.43499   0.04637   0.93000   0.00000  Uiso   1.00
O679   O     0.45673   0.00472   0.97727   0.00000  Uiso   1.00
C680   C     0.54638   0.29006   0.54036   0.00000  Uiso   1.00
H681   H     0.56501   0.28696   0.57000   0.00000  Uiso   1.00
O682   O     0.54327   0.32862   0.52273   0.00000  Uiso   1.00
C683   C     0.75400   0.16667   0.74996   0.00000  Uiso   1.00
C684   C     0.91266   0.16666   0.75003   0.00000  Uiso   1.00
C685   C     0.80988   0.08626   0.52557   0.00000  Uiso   1.00
C686   C     0.85679   0.24707   0.97443   0.00000  Uiso   1.00
C687   C     0.68795   0.12404   0.75005   0.00000  Uiso   1.00
C688   C     0.97871   0.20930   0.74995   0.00000  Uiso   1.00
C689   C     0.97872   0.12403   0.75009   0.00000  Uiso   1.00
C690   C     0.68794   0.20930   0.74991   0.00000  Uiso   1.00
C691   C     0.95727   0.16666   0.75004   0.00000  Uiso   1.00
C692   C     0.70940   0.16667   0.74996   0.00000  Uiso   1.00
C693   C     0.80801   0.02508   0.72218   0.00000  Uiso   1.00
C694   C     0.85865   0.30825   0.77781   0.00000  Uiso   1.00
C695   C     0.85865   0.02457   0.77782   0.00000  Uiso   1.00
C696   C     0.80802   0.30876   0.72218   0.00000  Uiso   1.00
C697   C     0.83375   0.16693   0.66427   0.00000  Uiso   1.00
C698   C     0.83291   0.16640   0.83573   0.00000  Uiso   1.00
C699   C     0.84230   0.20662   0.90677   0.00000  Uiso   1.00
C700   C     0.82437   0.12671   0.59323   0.00000  Uiso   1.00
C701   C     0.83194   0.16584   0.88417   0.00000  Uiso   1.00
C702   C     0.83472   0.16749   0.61583   0.00000  Uiso   1.00
C703   C     0.82113   0.12491   0.90773   0.00000  Uiso   1.00
C704   C     0.84554   0.20842   0.59227   0.00000  Uiso   1.00
C705   C     0.81949   0.12503   0.95436   0.00000  Uiso   1.00
C706   C     0.84718   0.20830   0.54564   0.00000  Uiso   1.00
C707   C     0.83238   0.16626   0.97676   0.00000  Uiso   1.00
C708   C     0.83429   0.16707   0.52324   0.00000  Uiso   1.00
C709   C     0.84345   0.20685   0.95268   0.00000  Uiso   1.00
C710   C     0.82322   0.12649   0.54732   0.00000  Uiso   1.00
C711   C     0.80667   0.08519   0.97948   0.00000  Uiso   1.00
C712   C     0.85999   0.24814   0.52052   0.00000  Uiso   1.00
Cu713  Cu    0.83333   0.21355   0.75000   0.00000  Uiso   1.00
Cu714  Cu    0.83333   0.11978   0.75000   0.00000  Uiso   1.00
H715   H     0.85095   0.23802   0.88852   0.00000  Uiso   1.00
H716   H     0.81572   0.09531   0.61148   0.00000  Uiso   1.00
H717   H     0.80030   0.05596   0.54493   0.00000  Uiso   1.00
H718   H     0.86636   0.27737   0.95507   0.00000  Uiso   1.00
H719   H     0.70397   0.09071   0.75008   0.00000  Uiso   1.00
H720   H     0.96270   0.24262   0.74992   0.00000  Uiso   1.00
H721   H     0.96272   0.09071   0.75017   0.00000  Uiso   1.00
H722   H     0.70395   0.24263   0.74983   0.00000  Uiso   1.00
H723   H     0.78774   0.04404   0.69993   0.00000  Uiso   1.00
H724   H     0.87893   0.28929   0.80007   0.00000  Uiso   1.00
H725   H     0.87891   0.04312   0.80008   0.00000  Uiso   1.00
H726   H     0.78776   0.29021   0.69991   0.00000  Uiso   1.00
N727   N     0.83333   0.28402   0.75000   0.00000  Uiso   1.00
N728   N     0.83333   0.04931   0.75000   0.00000  Uiso   1.00
O729   O     0.77321   0.20625   0.74999   0.00000  Uiso   1.00
O730   O     0.89345   0.12709   0.75000   0.00000  Uiso   1.00
O731   O     0.89345   0.20625   0.75000   0.00000  Uiso   1.00
O732   O     0.77321   0.12709   0.74999   0.00000  Uiso   1.00
O733   O     0.83332   0.20627   0.68513   0.00000  Uiso   1.00
O734   O     0.83334   0.12707   0.81487   0.00000  Uiso   1.00
O735   O     0.83334   0.20627   0.81487   0.00000  Uiso   1.00
O736   O     0.83332   0.12707   0.68513   0.00000  Uiso   1.00
F737   F     0.81408   0.08490   0.88493   0.00000  Uiso   1.00
F738   F     0.85259   0.24843   0.61507   0.00000  Uiso   1.00
C739   C     0.78695   0.04327   0.95964   0.00000  Uiso   1.00
H740   H     0.76832   0.04637   0.93000   0.00000  Uiso   1.00
O741   O     0.79006   0.00472   0.97727   0.00000  Uiso   1.00
C742   C     0.87971   0.29006   0.54036   0.00000  Uiso   1.00
H743   H     0.89834   0.28696   0.57000   0.00000  Uiso   1.00
O744   O     0.87660   0.32862   0.52273   0.00000  Uiso   1.00
C745   C     0.08734   0.50000   0.74996   0.00000  Uiso   1.00
C746   C     0.24600   0.50000   0.75003   0.00000  Uiso   1.00
C747   C     0.14321   0.41960   0.52557   0.00000  Uiso   1.00
C748   C     0.19012   0.58040   0.97443   0.00000  Uiso   1.00
C749   C     0.02129   0.45737   0.75005   0.00000  Uiso   1.00
C750   C     0.31205   0.54263   0.74995   0.00000  Uiso   1.00
C751   C     0.31206   0.45737   0.75009   0.00000  Uiso   1.00
C752   C     0.02128   0.54263   0.74991   0.00000  Uiso   1.00
C753   C     0.29060   0.50000   0.75004   0.00000  Uiso   1.00
C754   C     0.04273   0.50000   0.74996   0.00000  Uiso   1.00
C755   C     0.14135   0.35842   0.72218   0.00000  Uiso   1.00
C756   C     0.19199   0.64158   0.77781   0.00000  Uiso   1.00
C757   C     0.19198   0.35790   0.77782   0.00000  Uiso   1.00
C758   C     0.14135   0.64210   0.72218   0.00000  Uiso   1.00
C759   C     0.16709   0.50026   0.66427   0.00000  Uiso   1.00
C760   C     0.16625   0.49973   0.83573   0.00000  Uiso   1.00
C761   C     0.17563   0.53995   0.90677   0.00000  Uiso   1.00
C762   C     0.15770   0.46005   0.59323   0.00000  Uiso   1.00
C763   C     0.16527   0.49918   0.88417   0.00000  Uiso   1.00
C764   C     0.16806   0.50082   0.61583   0.00000  Uiso   1.00
C765   C     0.15446   0.45825   0.90773   0.00000  Uiso   1.00
C766   C     0.17887   0.54175   0.59227   0.00000  Uiso   1.00
C767   C     0.15282   0.45836   0.95436   0.00000  Uiso   1.00
C768   C     0.18051   0.54164   0.54564   0.00000  Uiso   1.00
C769   C     0.16571   0.49960   0.97676   0.00000  Uiso   1.00
C770   C     0.16762   0.50040   0.52324   0.00000  Uiso   1.00
C771   C     0.17678   0.54018   0.95268   0.00000  Uiso   1.00
C772   C     0.15655   0.45982   0.54732   0.00000  Uiso   1.00
C773   C     0.14001   0.41853   0.97948   0.00000  Uiso   1.00
C774   C     0.19332   0.58147   0.52052   0.00000  Uiso   1.00
Cu775  Cu    0.16667   0.54689   0.75000   0.00000  Uiso   1.00
Cu776  Cu    0.16667   0.45311   0.75000   0.00000  Uiso   1.00
H777   H     0.18428   0.57135   0.88852   0.00000  Uiso   1.00
H778   H     0.14905   0.42865   0.61148   0.00000  Uiso   1.00
H779   H     0.13364   0.38929   0.54493   0.00000  Uiso   1.00
H780   H     0.19969   0.61071   0.95507   0.00000  Uiso   1.00
H781   H     0.03730   0.42404   0.75008   0.00000  Uiso   1.00
H782   H     0.29603   0.57596   0.74992   0.00000  Uiso   1.00
H783   H     0.29605   0.42404   0.75017   0.00000  Uiso   1.00
H784   H     0.03728   0.57596   0.74983   0.00000  Uiso   1.00
H785   H     0.12107   0.37737   0.69993   0.00000  Uiso   1.00
H786   H     0.21226   0.62263   0.80007   0.00000  Uiso   1.00
H787   H     0.21224   0.37645   0.80008   0.00000  Uiso   1.00
H788   H     0.12109   0.62355   0.69991   0.00000  Uiso   1.00
N789   N     0.16667   0.61736   0.75000   0.00000  Uiso   1.00
N790   N     0.16667   0.38264   0.75000   0.00000  Uiso   1.00
O791   O     0.10655   0.53958   0.74999   0.00000  Uiso   1.00
O792   O     0.22679   0.46042   0.75000   0.00000  Uiso   1.00
O793   O     0.22679   0.53958   0.75000   0.00000  Uiso   1.00
O794   O     0.10655   0.46042   0.74999   0.00000  Uiso   1.00
O795   O     0.16666   0.53960   0.68513   0.00000  Uiso   1.00
O796   O     0.16668   0.46040   0.81487   0.00000  Uiso   1.00
O797   O     0.16668   0.53960   0.81487   0.00000  Uiso   1.00
O798   O     0.16666   0.46040   0.68513   0.00000  Uiso   1.00
F799   F     0.14741   0.41823   0.88493   0.00000  Uiso   1.00
F800   F     0.18592   0.58177   0.61507   0.00000  Uiso   1.00
C801   C     0.12028   0.37660   0.95964   0.00000  Uiso   1.00
H802   H     0.10165   0.37971   0.93000   0.00000  Uiso   1.00
O803   O     0.12339   0.33805   0.97727   0.00000  Uiso   1.00
C804   C     0.21305   0.62340   0.54036   0.00000  Uiso   1.00
H805   H     0.23168   0.62029   0.57000   0.00000  Uiso   1.00
O806   O     0.20994   0.66195   0.52273   0.00000  Uiso   1.00
C807   C     0.42067   0.50000   0.74996   0.00000  Uiso   1.00
C808   C     0.57933   0.50000   0.75003   0.00000  Uiso   1.00
C809   C     0.47654   0.41960   0.52557   0.00000  Uiso   1.00
C810   C     0.52346   0.58040   0.97443   0.00000  Uiso   1.00
C811   C     0.35462   0.45737   0.75005   0.00000  Uiso   1.00
C812   C     0.64538   0.54263   0.74995   0.00000  Uiso   1.00
C813   C     0.64539   0.45737   0.75009   0.00000  Uiso   1.00
C814   C     0.35461   0.54263   0.74991   0.00000  Uiso   1.00
C815   C     0.62394   0.50000   0.75004   0.00000  Uiso   1.00
C816   C     0.37606   0.50000   0.74996   0.00000  Uiso   1.00
C817   C     0.47468   0.35842   0.72218   0.00000  Uiso   1.00
C818   C     0.52532   0.64158   0.77781   0.00000  Uiso   1.00
C819   C     0.52531   0.35790   0.77782   0.00000  Uiso   1.00
C820   C     0.47469   0.64210   0.72218   0.00000  Uiso   1.00
C821   C     0.50042   0.50026   0.66427   0.00000  Uiso   1.00
C822   C     0.49958   0.49973   0.83573   0.00000  Uiso   1.00
C823   C     0.50897   0.53995   0.90677   0.00000  Uiso   1.00
C824   C     0.49103   0.46005   0.59323   0.00000  Uiso   1.00
C825   C     0.49861   0.49918   0.88417   0.00000  Uiso   1.00
C826   C     0.50139   0.50082   0.61583   0.00000  Uiso   1.00
C827   C     0.48780   0.45825   0.90773   0.00000  Uiso   1.00
C828   C     0.51220   0.54175   0.59227   0.00000  Uiso   1.00
C829   C     0.48616   0.45836   0.95436   0.00000  Uiso   1.00
C830   C     0.51384   0.54164   0.54564   0.00000  Uiso   1.00
C831   C     0.49904   0.49960   0.97676   0.00000  Uiso   1.00
C832   C     0.50096   0.50040   0.52324   0.00000  Uiso   1.00
C833   C     0.51012   0.54018   0.95268   0.00000  Uiso   1.00
C834   C     0.48988   0.45982   0.54732   0.00000  Uiso   1.00
C835   C     0.47334   0.41853   0.97948   0.00000  Uiso   1.00
C836   C     0.52666   0.58147   0.52052   0.00000  Uiso   1.00
Cu837  Cu    0.50000   0.54689   0.75000   0.00000  Uiso   1.00
Cu838  Cu    0.50000   0.45311   0.75000   0.00000  Uiso   1.00
H839   H     0.51762   0.57135   0.88852   0.00000  Uiso   1.00
H840   H     0.48238   0.42865   0.61148   0.00000  Uiso   1.00
H841   H     0.46697   0.38929   0.54493   0.00000  Uiso   1.00
H842   H     0.53303   0.61071   0.95507   0.00000  Uiso   1.00
H843   H     0.37063   0.42404   0.75008   0.00000  Uiso   1.00
H844   H     0.62937   0.57596   0.74992   0.00000  Uiso   1.00
H845   H     0.62938   0.42404   0.75017   0.00000  Uiso   1.00
H846   H     0.37062   0.57596   0.74983   0.00000  Uiso   1.00
H847   H     0.45440   0.37737   0.69993   0.00000  Uiso   1.00
H848   H     0.54560   0.62263   0.80007   0.00000  Uiso   1.00
H849   H     0.54557   0.37645   0.80008   0.00000  Uiso   1.00
H850   H     0.45442   0.62355   0.69991   0.00000  Uiso   1.00
N851   N     0.50000   0.61736   0.75000   0.00000  Uiso   1.00
N852   N     0.50000   0.38264   0.75000   0.00000  Uiso   1.00
O853   O     0.43988   0.53958   0.74999   0.00000  Uiso   1.00
O854   O     0.56012   0.46042   0.75000   0.00000  Uiso   1.00
O855   O     0.56012   0.53958   0.75000   0.00000  Uiso   1.00
O856   O     0.43988   0.46042   0.74999   0.00000  Uiso   1.00
O857   O     0.49999   0.53960   0.68513   0.00000  Uiso   1.00
O858   O     0.50001   0.46040   0.81487   0.00000  Uiso   1.00
O859   O     0.50001   0.53960   0.81487   0.00000  Uiso   1.00
O860   O     0.49999   0.46040   0.68513   0.00000  Uiso   1.00
F861   F     0.48074   0.41823   0.88493   0.00000  Uiso   1.00
F862   F     0.51926   0.58177   0.61507   0.00000  Uiso   1.00
C863   C     0.45362   0.37660   0.95964   0.00000  Uiso   1.00
H864   H     0.43499   0.37971   0.93000   0.00000  Uiso   1.00
O865   O     0.45673   0.33805   0.97727   0.00000  Uiso   1.00
C866   C     0.54638   0.62340   0.54036   0.00000  Uiso   1.00
H867   H     0.56501   0.62029   0.57000   0.00000  Uiso   1.00
O868   O     0.54327   0.66195   0.52273   0.00000  Uiso   1.00
C869   C     0.75400   0.50000   0.74996   0.00000  Uiso   1.00
C870   C     0.91266   0.50000   0.75003   0.00000  Uiso   1.00
C871   C     0.80988   0.41960   0.52557   0.00000  Uiso   1.00
C872   C     0.85679   0.58040   0.97443   0.00000  Uiso   1.00
C873   C     0.68795   0.45737   0.75005   0.00000  Uiso   1.00
C874   C     0.97871   0.54263   0.74995   0.00000  Uiso   1.00
C875   C     0.97872   0.45737   0.75009   0.00000  Uiso   1.00
C876   C     0.68794   0.54263   0.74991   0.00000  Uiso   1.00
C877   C     0.95727   0.50000   0.75004   0.00000  Uiso   1.00
C878   C     0.70940   0.50000   0.74996   0.00000  Uiso   1.00
C879   C     0.80801   0.35842   0.72218   0.00000  Uiso   1.00
C880   C     0.85865   0.64158   0.77781   0.00000  Uiso   1.00
C881   C     0.85865   0.35790   0.77782   0.00000  Uiso   1.00
C882   C     0.80802   0.64210   0.72218   0.00000  Uiso   1.00
C883   C     0.83375   0.50026   0.66427   0.00000  Uiso   1.00
C884   C     0.83291   0.49973   0.83573   0.00000  Uiso   1.00
C885   C     0.84230   0.53995   0.90677   0.00000  Uiso   1.00
C886   C     0.82437   0.46005   0.59323   0.00000  Uiso   1.00
C887   C     0.83194   0.49918   0.88417   0.00000  Uiso   1.00
C888   C     0.83472   0.50082   0.61583   0.00000  Uiso   1.00
C889   C     0.82113   0.45825   0.90773   0.00000  Uiso   1.00
C890   C     0.84554   0.54175   0.59227   0.00000  Uiso   1.00
C891   C     0.81949   0.45836   0.95436   0.00000  Uiso   1.00
C892   C     0.84718   0.54164   0.54564   0.00000  Uiso   1.00
C893   C     0.83238   0.49960   0.97676   0.00000  Uiso   1.00
C894   C     0.83429   0.50040   0.52324   0.00000  Uiso   1.00
C895   C     0.84345   0.54018   0.95268   0.00000  Uiso   1.00
C896   C     0.82322   0.45982   0.54732   0.00000  Uiso   1.00
C897   C     0.80667   0.41853   0.97948   0.00000  Uiso   1.00
C898   C     0.85999   0.58147   0.52052   0.00000  Uiso   1.00
Cu899  Cu    0.83333   0.54689   0.75000   0.00000  Uiso   1.00
Cu900  Cu    0.83333   0.45311   0.75000   0.00000  Uiso   1.00
H901   H     0.85095   0.57135   0.88852   0.00000  Uiso   1.00
H902   H     0.81572   0.42865   0.61148   0.00000  Uiso   1.00
H903   H     0.80030   0.38929   0.54493   0.00000  Uiso   1.00
H904   H     0.86636   0.61071   0.95507   0.00000  Uiso   1.00
H905   H     0.70397   0.42404   0.75008   0.00000  Uiso   1.00
H906   H     0.96270   0.57596   0.74992   0.00000  Uiso   1.00
H907   H     0.96272   0.42404   0.75017   0.00000  Uiso   1.00
H908   H     0.70395   0.57596   0.74983   0.00000  Uiso   1.00
H909   H     0.78774   0.37737   0.69993   0.00000  Uiso   1.00
H910   H     0.87893   0.62263   0.80007   0.00000  Uiso   1.00
H911   H     0.87891   0.37645   0.80008   0.00000  Uiso   1.00
H912   H     0.78776   0.62355   0.69991   0.00000  Uiso   1.00
N913   N     0.83333   0.61736   0.75000   0.00000  Uiso   1.00
N914   N     0.83333   0.38264   0.75000   0.00000  Uiso   1.00
O915   O     0.77321   0.53958   0.74999   0.00000  Uiso   1.00
O916   O     0.89345   0.46042   0.75000   0.00000  Uiso   1.00
O917   O     0.89345   0.53958   0.75000   0.00000  Uiso   1.00
O918   O     0.77321   0.46042   0.74999   0.00000  Uiso   1.00
O919   O     0.83332   0.53960   0.68513   0.00000  Uiso   1.00
O920   O     0.83334   0.46040   0.81487   0.00000  Uiso   1.00
O921   O     0.83334   0.53960   0.81487   0.00000  Uiso   1.00
O922   O     0.83332   0.46040   0.68513   0.00000  Uiso   1.00
F923   F     0.81408   0.41823   0.88493   0.00000  Uiso   1.00
F924   F     0.85259   0.58177   0.61507   0.00000  Uiso   1.00
C925   C     0.78695   0.37660   0.95964   0.00000  Uiso   1.00
H926   H     0.76832   0.37971   0.93000   0.00000  Uiso   1.00
O927   O     0.79006   0.33805   0.97727   0.00000  Uiso   1.00
C928   C     0.87971   0.62340   0.54036   0.00000  Uiso   1.00
H929   H     0.89834   0.62029   0.57000   0.00000  Uiso   1.00
O930   O     0.87660   0.66195   0.52273   0.00000  Uiso   1.00
C931   C     0.08734   0.83334   0.74996   0.00000  Uiso   1.00
C932   C     0.24600   0.83333   0.75003   0.00000  Uiso   1.00
C933   C     0.14321   0.75293   0.52557   0.00000  Uiso   1.00
C934   C     0.19012   0.91374   0.97443   0.00000  Uiso   1.00
C935   C     0.02129   0.79070   0.75005   0.00000  Uiso   1.00
C936   C     0.31205   0.87596   0.74995   0.00000  Uiso   1.00
C937   C     0.31206   0.79070   0.75009   0.00000  Uiso   1.00
C938   C     0.02128   0.87597   0.74991   0.00000  Uiso   1.00
C939   C     0.29060   0.83333   0.75004   0.00000  Uiso   1.00
C940   C     0.04273   0.83334   0.74996   0.00000  Uiso   1.00
C941   C     0.14135   0.69175   0.72218   0.00000  Uiso   1.00
C942   C     0.19199   0.97492   0.77781   0.00000  Uiso   1.00
C943   C     0.19198   0.69124   0.77782   0.00000  Uiso   1.00
C944   C     0.14135   0.97543   0.72218   0.00000  Uiso   1.00
C945   C     0.16709   0.83360   0.66427   0.00000  Uiso   1.00
C946   C     0.16625   0.83307   0.83573   0.00000  Uiso   1.00
C947   C     0.17563   0.87329   0.90677   0.00000  Uiso   1.00
C948   C     0.15770   0.79338   0.59323   0.00000  Uiso   1.00
C949   C     0.16527   0.83251   0.88417   0.00000  Uiso   1.00
C950   C     0.16806   0.83416   0.61583   0.00000  Uiso   1.00
C951   C     0.15446   0.79158   0.90773   0.00000  Uiso   1.00
C952   C     0.17887   0.87509   0.59227   0.00000  Uiso   1.00
C953   C     0.15282   0.79170   0.95436   0.00000  Uiso   1.00
C954   C     0.18051   0.87497   0.54564   0.00000  Uiso   1.00
C955   C     0.16571   0.83293   0.97676   0.00000  Uiso   1.00
C956   C     0.16762   0.83374   0.52324   0.00000  Uiso   1.00
C957   C     0.17678   0.87351   0.95268   0.00000  Uiso   1.00
C958   C     0.15655   0.79315   0.54732   0.00000  Uiso   1.00
C959   C     0.14001   0.75186   0.97948   0.00000  Uiso   1.00
C960   C     0.19332   0.91481   0.52052   0.00000  Uiso   1.00
Cu961  Cu    0.16667   0.88022   0.75000   0.00000  Uiso   1.00
Cu962  Cu    0.16667   0.78645   0.75000   0.00000  Uiso   1.00
H963   H     0.18428   0.90469   0.88852   0.00000  Uiso   1.00
H964   H     0.14905   0.76198   0.61148   0.00000  Uiso   1.00
H965   H     0.13364   0.72263   0.54493   0.00000  Uiso   1.00
H966   H     0.19969   0.94404   0.95507   0.00000  Uiso   1.00
H967   H     0.03730   0.75738   0.75008   0.00000  Uiso   1.00
H968   H     0.29603   0.90929   0.74992   0.00000  Uiso   1.00
H969   H     0.29605   0.75737   0.75017   0.00000  Uiso   1.00
H970   H     0.03728   0.90929   0.74983   0.00000  Uiso   1.00
H971   H     0.12107   0.71071   0.69993   0.00000  Uiso   1.00
H972   H     0.21226   0.95596   0.80007   0.00000  Uiso   1.00
H973   H     0.21224   0.70979   0.80008   0.00000  Uiso   1.00
H974   H     0.12109   0.95688   0.69991   0.00000  Uiso   1.00
N975   N     0.16667   0.95069   0.75000   0.00000  Uiso   1.00
N976   N     0.16667   0.71598   0.75000   0.00000  Uiso   1.00
O977   O     0.10655   0.87291   0.74999   0.00000  Uiso   1.00
O978   O     0.22679   0.79375   0.75000   0.00000  Uiso   1.00
O979   O     0.22679   0.87291   0.75000   0.00000  Uiso   1.00
O980   O     0.10655   0.79375   0.74999   0.00000  Uiso   1.00
O981   O     0.16666   0.87293   0.68513   0.00000  Uiso   1.00
O982   O     0.16668   0.79373   0.81487   0.00000  Uiso   1.00
O983   O     0.16668   0.87293   0.81487   0.00000  Uiso   1.00
O984   O     0.16666   0.79373   0.68513   0.00000  Uiso   1.00
F985   F     0.14741   0.75157   0.88493   0.00000  Uiso   1.00
F986   F     0.18592   0.91510   0.61507   0.00000  Uiso   1.00
C987   C     0.12028   0.70994   0.95964   0.00000  Uiso   1.00
H988   H     0.10165   0.71304   0.93000   0.00000  Uiso   1.00
O989   O     0.12339   0.67138   0.97727   0.00000  Uiso   1.00
C990   C     0.21305   0.95673   0.54036   0.00000  Uiso   1.00
H991   H     0.23168   0.95363   0.57000   0.00000  Uiso   1.00
O992   O     0.20994   0.99528   0.52273   0.00000  Uiso   1.00
C993   C     0.42067   0.83334   0.74996   0.00000  Uiso   1.00
C994   C     0.57933   0.83333   0.75003   0.00000  Uiso   1.00
C995   C     0.47654   0.75293   0.52557   0.00000  Uiso   1.00
C996   C     0.52346   0.91374   0.97443   0.00000  Uiso   1.00
C997   C     0.35462   0.79070   0.75005   0.00000  Uiso   1.00
C998   C     0.64538   0.87596   0.74995   0.00000  Uiso   1.00
C999   C     0.64539   0.79070   0.75009   0.00000  Uiso   1.00
C1000  C     0.35461   0.87597   0.74991   0.00000  Uiso   1.00
C1001  C     0.62394   0.83333   0.75004   0.00000  Uiso   1.00
C1002  C     0.37606   0.83334   0.74996   0.00000  Uiso   1.00
C1003  C     0.47468   0.69175   0.72218   0.00000  Uiso   1.00
C1004  C     0.52532   0.97492   0.77781   0.00000  Uiso   1.00
C1005  C     0.52531   0.69124   0.77782   0.00000  Uiso   1.00
C1006  C     0.47469   0.97543   0.72218   0.00000  Uiso   1.00
C1007  C     0.50042   0.83360   0.66427   0.00000  Uiso   1.00
C1008  C     0.49958   0.83307   0.83573   0.00000  Uiso   1.00
C1009  C     0.50897   0.87329   0.90677   0.00000  Uiso   1.00
C1010  C     0.49103   0.79338   0.59323   0.00000  Uiso   1.00
C1011  C     0.49861   0.83251   0.88417   0.00000  Uiso   1.00
C1012  C     0.50139   0.83416   0.61583   0.00000  Uiso   1.00
C1013  C     0.48780   0.79158   0.90773   0.00000  Uiso   1.00
C1014  C     0.51220   0.87509   0.59227   0.00000  Uiso   1.00
C1015  C     0.48616   0.79170   0.95436   0.00000  Uiso   1.00
C1016  C     0.51384   0.87497   0.54564   0.00000  Uiso   1.00
C1017  C     0.49904   0.83293   0.97676   0.00000  Uiso   1.00
C1018  C     0.50096   0.83374   0.52324   0.00000  Uiso   1.00
C1019  C     0.51012   0.87351   0.95268   0.00000  Uiso   1.00
C1020  C     0.48988   0.79315   0.54732   0.00000  Uiso   1.00
C1021  C     0.47334   0.75186   0.97948   0.00000  Uiso   1.00
C1022  C     0.52666   0.91481   0.52052   0.00000  Uiso   1.00
Cu1023 Cu    0.50000   0.88022   0.75000   0.00000  Uiso   1.00
Cu1024 Cu    0.50000   0.78645   0.75000   0.00000  Uiso   1.00
H1025  H     0.51762   0.90469   0.88852   0.00000  Uiso   1.00
H1026  H     0.48238   0.76198   0.61148   0.00000  Uiso   1.00
H1027  H     0.46697   0.72263   0.54493   0.00000  Uiso   1.00
H1028  H     0.53303   0.94404   0.95507   0.00000  Uiso   1.00
H1029  H     0.37063   0.75738   0.75008   0.00000  Uiso   1.00
H1030  H     0.62937   0.90929   0.74992   0.00000  Uiso   1.00
H1031  H     0.62938   0.75737   0.75017   0.00000  Uiso   1.00
H1032  H     0.37062   0.90929   0.74983   0.00000  Uiso   1.00
H1033  H     0.45440   0.71071   0.69993   0.00000  Uiso   1.00
H1034  H     0.54560   0.95596   0.80007   0.00000  Uiso   1.00
H1035  H     0.54557   0.70979   0.80008   0.00000  Uiso   1.00
H1036  H     0.45442   0.95688   0.69991   0.00000  Uiso   1.00
N1037  N     0.50000   0.95069   0.75000   0.00000  Uiso   1.00
N1038  N     0.50000   0.71598   0.75000   0.00000  Uiso   1.00
O1039  O     0.43988   0.87291   0.74999   0.00000  Uiso   1.00
O1040  O     0.56012   0.79375   0.75000   0.00000  Uiso   1.00
O1041  O     0.56012   0.87291   0.75000   0.00000  Uiso   1.00
O1042  O     0.43988   0.79375   0.74999   0.00000  Uiso   1.00
O1043  O     0.49999   0.87293   0.68513   0.00000  Uiso   1.00
O1044  O     0.50001   0.79373   0.81487   0.00000  Uiso   1.00
O1045  O     0.50001   0.87293   0.81487   0.00000  Uiso   1.00
O1046  O     0.49999   0.79373   0.68513   0.00000  Uiso   1.00
F1047  F     0.48074   0.75157   0.88493   0.00000  Uiso   1.00
F1048  F     0.51926   0.91510   0.61507   0.00000  Uiso   1.00
C1049  C     0.45362   0.70994   0.95964   0.00000  Uiso   1.00
H1050  H     0.43499   0.71304   0.93000   0.00000  Uiso   1.00
O1051  O     0.45673   0.67138   0.97727   0.00000  Uiso   1.00
C1052  C     0.54638   0.95673   0.54036   0.00000  Uiso   1.00
H1053  H     0.56501   0.95363   0.57000   0.00000  Uiso   1.00
O1054  O     0.54327   0.99528   0.52273   0.00000  Uiso   1.00
C1055  C     0.75400   0.83334   0.74996   0.00000  Uiso   1.00
C1056  C     0.91266   0.83333   0.75003   0.00000  Uiso   1.00
C1057  C     0.80988   0.75293   0.52557   0.00000  Uiso   1.00
C1058  C     0.85679   0.91374   0.97443   0.00000  Uiso   1.00
C1059  C     0.68795   0.79070   0.75005   0.00000  Uiso   1.00
C1060  C     0.97871   0.87596   0.74995   0.00000  Uiso   1.00
C1061  C     0.97872   0.79070   0.75009   0.00000  Uiso   1.00
C1062  C     0.68794   0.87597   0.74991   0.00000  Uiso   1.00
C1063  C     0.95727   0.83333   0.75004   0.00000  Uiso   1.00
C1064  C     0.70940   0.83334   0.74996   0.00000  Uiso   1.00
C1065  C     0.80801   0.69175   0.72218   0.00000  Uiso   1.00
C1066  C     0.85865   0.97492   0.77781   0.00000  Uiso   1.00
C1067  C     0.85865   0.69124   0.77782   0.00000  Uiso   1.00
C1068  C     0.80802   0.97543   0.72218   0.00000  Uiso   1.00
C1069  C     0.83375   0.83360   0.66427   0.00000  Uiso   1.00
C1070  C     0.83291   0.83307   0.83573   0.00000  Uiso   1.00
C1071  C     0.84230   0.87329   0.90677   0.00000  Uiso   1.00
C1072  C     0.82437   0.79338   0.59323   0.00000  Uiso   1.00
C1073  C     0.83194   0.83251   0.88417   0.00000  Uiso   1.00
C1074  C     0.83472   0.83416   0.61583   0.00000  Uiso   1.00
C1075  C     0.82113   0.79158   0.90773   0.00000  Uiso   1.00
C1076  C     0.84554   0.87509   0.59227   0.00000  Uiso   1.00
C1077  C     0.81949   0.79170   0.95436   0.00000  Uiso   1.00
C1078  C     0.84718   0.87497   0.54564   0.00000  Uiso   1.00
C1079  C     0.83238   0.83293   0.97676   0.00000  Uiso   1.00
C1080  C     0.83429   0.83374   0.52324   0.00000  Uiso   1.00
C1081  C     0.84345   0.87351   0.95268   0.00000  Uiso   1.00
C1082  C     0.82322   0.79315   0.54732   0.00000  Uiso   1.00
C1083  C     0.80667   0.75186   0.97948   0.00000  Uiso   1.00
C1084  C     0.85999   0.91481   0.52052   0.00000  Uiso   1.00
Cu1085 Cu    0.83333   0.88022   0.75000   0.00000  Uiso   1.00
Cu1086 Cu    0.83333   0.78645   0.75000   0.00000  Uiso   1.00
H1087  H     0.85095   0.90469   0.88852   0.00000  Uiso   1.00
H1088  H     0.81572   0.76198   0.61148   0.00000  Uiso   1.00
H1089  H     0.80030   0.72263   0.54493   0.00000  Uiso   1.00
H1090  H     0.86636   0.94404   0.95507   0.00000  Uiso   1.00
H1091  H     0.70397   0.75738   0.75008   0.00000  Uiso   1.00
H1092  H     0.96270   0.90929   0.74992   0.00000  Uiso   1.00
H1093  H     0.96272   0.75737   0.75017   0.00000  Uiso   1.00
H1094  H     0.70395   0.90929   0.74983   0.00000  Uiso   1.00
H1095  H     0.78774   0.71071   0.69993   0.00000  Uiso   1.00
H1096  H     0.87893   0.95596   0.80007   0.00000  Uiso   1.00
H1097  H     0.87891   0.70979   0.80008   0.00000  Uiso   1.00
H1098  H     0.78776   0.95688   0.69991   0.00000  Uiso   1.00
N1099  N     0.83333   0.95069   0.75000   0.00000  Uiso   1.00
N1100  N     0.83333   0.71598   0.75000   0.00000  Uiso   1.00
O1101  O     0.77321   0.87291   0.74999   0.00000  Uiso   1.00
O1102  O     0.89345   0.79375   0.75000   0.00000  Uiso   1.00
O1103  O     0.89345   0.87291   0.75000   0.00000  Uiso   1.00
O1104  O     0.77321   0.79375   0.74999   0.00000  Uiso   1.00
O1105  O     0.83332   0.87293   0.68513   0.00000  Uiso   1.00
O1106  O     0.83334   0.79373   0.81487   0.00000  Uiso   1.00
O1107  O     0.83334   0.87293   0.81487   0.00000  Uiso   1.00
O1108  O     0.83332   0.79373   0.68513   0.00000  Uiso   1.00
F1109  F     0.81408   0.75157   0.88493   0.00000  Uiso   1.00
F1110  F     0.85259   0.91510   0.61507   0.00000  Uiso   1.00
C1111  C     0.78695   0.70994   0.95964   0.00000  Uiso   1.00
H1112  H     0.76832   0.71304   0.93000   0.00000  Uiso   1.00
O1113  O     0.79006   0.67138   0.97727   0.00000  Uiso   1.00
C1114  C     0.87971   0.95673   0.54036   0.00000  Uiso   1.00
H1115  H     0.89834   0.95363   0.57000   0.00000  Uiso   1.00
O1116  O     0.87660   0.99528   0.52273   0.00000  Uiso   1.00
loop_
_geom_bond_atom_site_label_1
_geom_bond_atom_site_label_2
_geom_bond_distance
_geom_bond_site_symmetry_2
_ccdc_geom_bond_type
C1     O50     1.290   .     A
C1     O47     1.290   .     A
C1     C10     1.450   .     S
C2     O49     1.290   .     A
C2     O48     1.290   .     A
C2     C9      1.450   .     S
C3     H35     1.085   .     S
C3     C28     1.395   .     A
C3     C587    1.398   1_554 S
C4     H36     1.085   .     S
C4     C27     1.395   .     A
C4     C588    1.398   .     S
C5     C10     1.401   .     A
C5     H37     1.083   .     S
C5     C131    1.383   1_455 S
C6     H38     1.083   .     S
C6     C9      1.401   .     A
C6     C70     1.383   .     S
C7     C9      1.401   .     A
C7     H39     1.083   .     S
C7     C67     1.383   .     S
C8     H40     1.083   .     S
C8     C10     1.401   .     A
C8     C130    1.383   1_455 S
C11    H41     1.082   .     S
C11    N46     1.367   .     A
C11    C386    1.415   1_545 S
C12    N45     1.367   .     A
C12    H42     1.082   .     S
C12    C199    1.415   .     S
C13    N46     1.367   .     A
C13    H43     1.082   .     S
C13    C384    1.415   1_545 S
C14    H44     1.082   .     S
C14    N45     1.367   .     A
C14    C197    1.415   .     S
C15    O51     1.292   .     A
C15    C20     1.465   .     S
C15    O54     1.295   .     A
C16    C19     1.465   .     S
C16    O53     1.295   .     A
C16    O52     1.292   .     A
C17    H33     1.085   .     S
C17    C19     1.394   .     A
C17    C27     1.388   .     A
C18    H34     1.085   .     S
C18    C28     1.388   .     A
C18    C20     1.394   .     A
C19    C21     1.407   .     A
C20    C22     1.407   .     A
C21    C23     1.411   .     A
C21    F55     1.357   .     S
C22    F56     1.357   .     S
C22    C24     1.411   .     A
C23    C29     1.424   .     A
C23    C25     1.424   .     A
C24    C26     1.424   .     A
C24    C30     1.424   .     A
C25    C27     1.409   .     A
C25    C584    1.407   .     S
C26    C28     1.409   .     A
C26    C583    1.407   1_554 S
C29    C57     1.487   .     S
C29    C561    1.398   .     S
C30    C60     1.487   .     S
C30    C562    1.398   1_554 S
Cu31   Cu32    2.673   .     S
Cu31   O47     1.965   .     S
Cu31   O53     1.971   .     S
Cu31   O49     1.965   .     S
Cu31   N45     2.009   .     S
Cu31   O51     1.974   .     S
Cu32   O48     1.965   .     S
Cu32   O50     1.965   .     S
Cu32   O54     1.971   .     S
Cu32   N46     2.009   .     S
Cu32   O52     1.974   .     S
C57    H58     1.083   .     S
C57    O59     1.221   .     D
C60    O62     1.221   .     D
C60    H61     1.083   .     S
C63    O112    1.290   .     A
C63    O109    1.290   .     A
C63    C72     1.450   .     S
C64    O111    1.290   .     A
C64    O110    1.290   .     A
C64    C71     1.450   .     S
C65    H97     1.085   .     S
C65    C90     1.395   .     A
C65    C649    1.398   1_554 S
C66    H98     1.085   .     S
C66    C89     1.395   .     A
C66    C650    1.398   .     S
C67    C72     1.401   .     A
C67    H99     1.083   .     S
C68    H100    1.083   .     S
C68    C71     1.401   .     A
C68    C132    1.383   .     S
C69    C71     1.401   .     A
C69    H101    1.083   .     S
C69    C129    1.383   .     S
C70    H102    1.083   .     S
C70    C72     1.401   .     A
C73    H103    1.082   .     S
C73    N108    1.367   .     A
C73    C448    1.415   1_545 S
C74    N107    1.367   .     A
C74    H104    1.082   .     S
C74    C261    1.415   .     S
C75    N108    1.367   .     A
C75    H105    1.082   .     S
C75    C446    1.415   1_545 S
C76    H106    1.082   .     S
C76    N107    1.367   .     A
C76    C259    1.415   .     S
C77    O113    1.292   .     A
C77    C82     1.465   .     S
C77    O116    1.295   .     A
C78    C81     1.465   .     S
C78    O115    1.295   .     A
C78    O114    1.292   .     A
C79    H95     1.085   .     S
C79    C81     1.394   .     A
C79    C89     1.388   .     A
C80    H96     1.085   .     S
C80    C90     1.388   .     A
C80    C82     1.394   .     A
C81    C83     1.407   .     A
C82    C84     1.407   .     A
C83    C85     1.411   .     A
C83    F117    1.357   .     S
C84    F118    1.357   .     S
C84    C86     1.411   .     A
C85    C91     1.424   .     A
C85    C87     1.424   .     A
C86    C88     1.424   .     A
C86    C92     1.424   .     A
C87    C89     1.409   .     A
C87    C646    1.407   .     S
C88    C90     1.409   .     A
C88    C645    1.407   1_554 S
C91    C119    1.487   .     S
C91    C623    1.398   .     S
C92    C122    1.487   .     S
C92    C624    1.398   1_554 S
Cu93   Cu94    2.673   .     S
Cu93   O109    1.965   .     S
Cu93   O115    1.971   .     S
Cu93   O111    1.965   .     S
Cu93   N107    2.009   .     S
Cu93   O113    1.974   .     S
Cu94   O110    1.965   .     S
Cu94   O112    1.965   .     S
Cu94   O116    1.971   .     S
Cu94   N108    2.009   .     S
Cu94   O114    1.974   .     S
C119   H120    1.083   .     S
C119   O121    1.221   .     D
C122   O124    1.221   .     D
C122   H123    1.083   .     S
C125   O174    1.290   .     A
C125   O171    1.290   .     A
C125   C134    1.450   .     S
C126   O173    1.290   .     A
C126   O172    1.290   .     A
C126   C133    1.450   .     S
C127   H159    1.085   .     S
C127   C152    1.395   .     A
C127   C711    1.398   1_554 S
C128   H160    1.085   .     S
C128   C151    1.395   .     A
C128   C712    1.398   .     S
C129   C134    1.401   .     A
C129   H161    1.083   .     S
C130   H162    1.083   .     S
C130   C133    1.401   .     A
C130   C8      1.383   1_655 S
C131   C133    1.401   .     A
C131   H163    1.083   .     S
C131   C5      1.383   1_655 S
C132   H164    1.083   .     S
C132   C134    1.401   .     A
C135   H165    1.082   .     S
C135   N170    1.367   .     A
C135   C510    1.415   1_545 S
C136   N169    1.367   .     A
C136   H166    1.082   .     S
C136   C323    1.415   .     S
C137   N170    1.367   .     A
C137   H167    1.082   .     S
C137   C508    1.415   1_545 S
C138   H168    1.082   .     S
C138   N169    1.367   .     A
C138   C321    1.415   .     S
C139   O175    1.292   .     A
C139   C144    1.465   .     S
C139   O178    1.295   .     A
C140   C143    1.465   .     S
C140   O177    1.295   .     A
C140   O176    1.292   .     A
C141   H157    1.085   .     S
C141   C143    1.394   .     A
C141   C151    1.388   .     A
C142   H158    1.085   .     S
C142   C152    1.388   .     A
C142   C144    1.394   .     A
C143   C145    1.407   .     A
C144   C146    1.407   .     A
C145   C147    1.411   .     A
C145   F179    1.357   .     S
C146   F180    1.357   .     S
C146   C148    1.411   .     A
C147   C153    1.424   .     A
C147   C149    1.424   .     A
C148   C150    1.424   .     A
C148   C154    1.424   .     A
C149   C151    1.409   .     A
C149   C708    1.407   .     S
C150   C152    1.409   .     A
C150   C707    1.407   1_554 S
C153   C181    1.487   .     S
C153   C685    1.398   .     S
C154   C184    1.487   .     S
C154   C686    1.398   1_554 S
Cu155  Cu156   2.673   .     S
Cu155  O171    1.965   .     S
Cu155  O177    1.971   .     S
Cu155  O173    1.965   .     S
Cu155  N169    2.009   .     S
Cu155  O175    1.974   .     S
Cu156  O172    1.965   .     S
Cu156  O174    1.965   .     S
Cu156  O178    1.971   .     S
Cu156  N170    2.009   .     S
Cu156  O176    1.974   .     S
C181   H182    1.083   .     S
C181   O183    1.221   .     D
C184   O186    1.221   .     D
C184   H185    1.083   .     S
C187   O236    1.290   .     A
C187   O233    1.290   .     A
C187   C196    1.450   .     S
C188   O235    1.290   .     A
C188   O234    1.290   .     A
C188   C195    1.450   .     S
C189   H221    1.085   .     S
C189   C214    1.395   .     A
C189   C773    1.398   1_554 S
C190   H222    1.085   .     S
C190   C213    1.395   .     A
C190   C774    1.398   .     S
C191   C196    1.401   .     A
C191   H223    1.083   .     S
C191   C317    1.383   1_455 S
C192   H224    1.083   .     S
C192   C195    1.401   .     A
C192   C256    1.383   .     S
C193   C195    1.401   .     A
C193   H225    1.083   .     S
C193   C253    1.383   .     S
C194   H226    1.083   .     S
C194   C196    1.401   .     A
C194   C316    1.383   1_455 S
C197   H227    1.082   .     S
C197   N232    1.367   .     A
C198   N231    1.367   .     A
C198   H228    1.082   .     S
C198   C385    1.415   .     S
C199   N232    1.367   .     A
C199   H229    1.082   .     S
C200   H230    1.082   .     S
C200   N231    1.367   .     A
C200   C383    1.415   .     S
C201   O237    1.292   .     A
C201   C206    1.465   .     S
C201   O240    1.295   .     A
C202   C205    1.465   .     S
C202   O239    1.295   .     A
C202   O238    1.292   .     A
C203   H219    1.085   .     S
C203   C205    1.394   .     A
C203   C213    1.388   .     A
C204   H220    1.085   .     S
C204   C214    1.388   .     A
C204   C206    1.394   .     A
C205   C207    1.407   .     A
C206   C208    1.407   .     A
C207   C209    1.411   .     A
C207   F241    1.357   .     S
C208   F242    1.357   .     S
C208   C210    1.411   .     A
C209   C215    1.424   .     A
C209   C211    1.424   .     A
C210   C212    1.424   .     A
C210   C216    1.424   .     A
C211   C213    1.409   .     A
C211   C770    1.407   .     S
C212   C214    1.409   .     A
C212   C769    1.407   1_554 S
C215   C243    1.487   .     S
C215   C747    1.398   .     S
C216   C246    1.487   .     S
C216   C748    1.398   1_554 S
Cu217  Cu218   2.673   .     S
Cu217  O233    1.965   .     S
Cu217  O239    1.971   .     S
Cu217  O235    1.965   .     S
Cu217  N231    2.009   .     S
Cu217  O237    1.974   .     S
Cu218  O234    1.965   .     S
Cu218  O236    1.965   .     S
Cu218  O240    1.971   .     S
Cu218  N232    2.009   .     S
Cu218  O238    1.974   .     S
C243   H244    1.083   .     S
C243   O245    1.221   .     D
C246   O248    1.221   .     D
C246   H247    1.083   .     S
C249   O298    1.290   .     A
C249   O295    1.290   .     A
C249   C258    1.450   .     S
C250   O297    1.290   .     A
C250   O296    1.290   .     A
C250   C257    1.450   .     S
C251   H283    1.085   .     S
C251   C276    1.395   .     A
C251   C835    1.398   1_554 S
C252   H284    1.085   .     S
C252   C275    1.395   .     A
C252   C836    1.398   .     S
C253   C258    1.401   .     A
C253   H285    1.083   .     S
C254   H286    1.083   .     S
C254   C257    1.401   .     A
C254   C318    1.383   .     S
C255   C257    1.401   .     A
C255   H287    1.083   .     S
C255   C315    1.383   .     S
C256   H288    1.083   .     S
C256   C258    1.401   .     A
C259   H289    1.082   .     S
C259   N294    1.367   .     A
C260   N293    1.367   .     A
C260   H290    1.082   .     S
C260   C447    1.415   .     S
C261   N294    1.367   .     A
C261   H291    1.082   .     S
C262   H292    1.082   .     S
C262   N293    1.367   .     A
C262   C445    1.415   .     S
C263   O299    1.292   .     A
C263   C268    1.465   .     S
C263   O302    1.295   .     A
C264   C267    1.465   .     S
C264   O301    1.295   .     A
C264   O300    1.292   .     A
C265   H281    1.085   .     S
C265   C267    1.394   .     A
C265   C275    1.388   .     A
C266   H282    1.085   .     S
C266   C276    1.388   .     A
C266   C268    1.394   .     A
C267   C269    1.407   .     A
C268   C270    1.407   .     A
C269   C271    1.411   .     A
C269   F303    1.357   .     S
C270   F304    1.357   .     S
C270   C272    1.411   .     A
C271   C277    1.424   .     A
C271   C273    1.424   .     A
C272   C274    1.424   .     A
C272   C278    1.424   .     A
C273   C275    1.409   .     A
C273   C832    1.407   .     S
C274   C276    1.409   .     A
C274   C831    1.407   1_554 S
C277   C305    1.487   .     S
C277   C809    1.398   .     S
C278   C308    1.487   .     S
C278   C810    1.398   1_554 S
Cu279  Cu280   2.673   .     S
Cu279  O295    1.965   .     S
Cu279  O301    1.971   .     S
Cu279  O297    1.965   .     S
Cu279  N293    2.009   .     S
Cu279  O299    1.974   .     S
Cu280  O296    1.965   .     S
Cu280  O298    1.965   .     S
Cu280  O302    1.971   .     S
Cu280  N294    2.009   .     S
Cu280  O300    1.974   .     S
C305   H306    1.083   .     S
C305   O307    1.221   .     D
C308   O310    1.221   .     D
C308   H309    1.083   .     S
C311   O360    1.290   .     A
C311   O357    1.290   .     A
C311   C320    1.450   .     S
C312   O359    1.290   .     A
C312   O358    1.290   .     A
C312   C319    1.450   .     S
C313   H345    1.085   .     S
C313   C338    1.395   .     A
C313   C897    1.398   1_554 S
C314   H346    1.085   .     S
C314   C337    1.395   .     A
C314   C898    1.398   .     S
C315   C320    1.401   .     A
C315   H347    1.083   .     S
C316   H348    1.083   .     S
C316   C319    1.401   .     A
C316   C194    1.383   1_655 S
C317   C319    1.401   .     A
C317   H349    1.083   .     S
C317   C191    1.383   1_655 S
C318   H350    1.083   .     S
C318   C320    1.401   .     A
C321   H351    1.082   .     S
C321   N356    1.367   .     A
C322   N355    1.367   .     A
C322   H352    1.082   .     S
C322   C509    1.415   .     S
C323   N356    1.367   .     A
C323   H353    1.082   .     S
C324   H354    1.082   .     S
C324   N355    1.367   .     A
C324   C507    1.415   .     S
C325   O361    1.292   .     A
C325   C330    1.465   .     S
C325   O364    1.295   .     A
C326   C329    1.465   .     S
C326   O363    1.295   .     A
C326   O362    1.292   .     A
C327   H343    1.085   .     S
C327   C329    1.394   .     A
C327   C337    1.388   .     A
C328   H344    1.085   .     S
C328   C338    1.388   .     A
C328   C330    1.394   .     A
C329   C331    1.407   .     A
C330   C332    1.407   .     A
C331   C333    1.411   .     A
C331   F365    1.357   .     S
C332   F366    1.357   .     S
C332   C334    1.411   .     A
C333   C339    1.424   .     A
C333   C335    1.424   .     A
C334   C336    1.424   .     A
C334   C340    1.424   .     A
C335   C337    1.409   .     A
C335   C894    1.407   .     S
C336   C338    1.409   .     A
C336   C893    1.407   1_554 S
C339   C367    1.487   .     S
C339   C871    1.398   .     S
C340   C370    1.487   .     S
C340   C872    1.398   1_554 S
Cu341  Cu342   2.673   .     S
Cu341  O357    1.965   .     S
Cu341  O363    1.971   .     S
Cu341  O359    1.965   .     S
Cu341  N355    2.009   .     S
Cu341  O361    1.974   .     S
Cu342  O358    1.965   .     S
Cu342  O360    1.965   .     S
Cu342  O364    1.971   .     S
Cu342  N356    2.009   .     S
Cu342  O362    1.974   .     S
C367   H368    1.083   .     S
C367   O369    1.221   .     D
C370   O372    1.221   .     D
C370   H371    1.083   .     S
C373   O422    1.290   .     A
C373   O419    1.290   .     A
C373   C382    1.450   .     S
C374   O421    1.290   .     A
C374   O420    1.290   .     A
C374   C381    1.450   .     S
C375   H407    1.085   .     S
C375   C400    1.395   .     A
C375   C959    1.398   1_554 S
C376   H408    1.085   .     S
C376   C399    1.395   .     A
C376   C960    1.398   .     S
C377   C382    1.401   .     A
C377   H409    1.083   .     S
C377   C503    1.383   1_455 S
C378   H410    1.083   .     S
C378   C381    1.401   .     A
C378   C442    1.383   .     S
C379   C381    1.401   .     A
C379   H411    1.083   .     S
C379   C439    1.383   .     S
C380   H412    1.083   .     S
C380   C382    1.401   .     A
C380   C502    1.383   1_455 S
C383   H413    1.082   .     S
C383   N418    1.367   .     A
C384   N417    1.367   .     A
C384   H414    1.082   .     S
C384   C13     1.415   1_565 S
C385   N418    1.367   .     A
C385   H415    1.082   .     S
C386   H416    1.082   .     S
C386   N417    1.367   .     A
C386   C11     1.415   1_565 S
C387   O423    1.292   .     A
C387   C392    1.465   .     S
C387   O426    1.295   .     A
C388   C391    1.465   .     S
C388   O425    1.295   .     A
C388   O424    1.292   .     A
C389   H405    1.085   .     S
C389   C391    1.394   .     A
C389   C399    1.388   .     A
C390   H406    1.085   .     S
C390   C400    1.388   .     A
C390   C392    1.394   .     A
C391   C393    1.407   .     A
C392   C394    1.407   .     A
C393   C395    1.411   .     A
C393   F427    1.357   .     S
C394   F428    1.357   .     S
C394   C396    1.411   .     A
C395   C401    1.424   .     A
C395   C397    1.424   .     A
C396   C398    1.424   .     A
C396   C402    1.424   .     A
C397   C399    1.409   .     A
C397   C956    1.407   .     S
C398   C400    1.409   .     A
C398   C955    1.407   1_554 S
C401   C429    1.487   .     S
C401   C933    1.398   .     S
C402   C432    1.487   .     S
C402   C934    1.398   1_554 S
Cu403  Cu404   2.673   .     S
Cu403  O419    1.965   .     S
Cu403  O425    1.971   .     S
Cu403  O421    1.965   .     S
Cu403  N417    2.009   .     S
Cu403  O423    1.974   .     S
Cu404  O420    1.965   .     S
Cu404  O422    1.965   .     S
Cu404  O426    1.971   .     S
Cu404  N418    2.009   .     S
Cu404  O424    1.974   .     S
C429   H430    1.083   .     S
C429   O431    1.221   .     D
C432   O434    1.221   .     D
C432   H433    1.083   .     S
C435   O484    1.290   .     A
C435   O481    1.290   .     A
C435   C444    1.450   .     S
C436   O483    1.290   .     A
C436   O482    1.290   .     A
C436   C443    1.450   .     S
C437   H469    1.085   .     S
C437   C462    1.395   .     A
C437   C1021   1.398   1_554 S
C438   H470    1.085   .     S
C438   C461    1.395   .     A
C438   C1022   1.398   .     S
C439   C444    1.401   .     A
C439   H471    1.083   .     S
C440   H472    1.083   .     S
C440   C443    1.401   .     A
C440   C504    1.383   .     S
C441   C443    1.401   .     A
C441   H473    1.083   .     S
C441   C501    1.383   .     S
C442   H474    1.083   .     S
C442   C444    1.401   .     A
C445   H475    1.082   .     S
C445   N480    1.367   .     A
C446   N479    1.367   .     A
C446   H476    1.082   .     S
C446   C75     1.415   1_565 S
C447   N480    1.367   .     A
C447   H477    1.082   .     S
C448   H478    1.082   .     S
C448   N479    1.367   .     A
C448   C73     1.415   1_565 S
C449   O485    1.292   .     A
C449   C454    1.465   .     S
C449   O488    1.295   .     A
C450   C453    1.465   .     S
C450   O487    1.295   .     A
C450   O486    1.292   .     A
C451   H467    1.085   .     S
C451   C453    1.394   .     A
C451   C461    1.388   .     A
C452   H468    1.085   .     S
C452   C462    1.388   .     A
C452   C454    1.394   .     A
C453   C455    1.407   .     A
C454   C456    1.407   .     A
C455   C457    1.411   .     A
C455   F489    1.357   .     S
C456   F490    1.357   .     S
C456   C458    1.411   .     A
C457   C463    1.424   .     A
C457   C459    1.424   .     A
C458   C460    1.424   .     A
C458   C464    1.424   .     A
C459   C461    1.409   .     A
C459   C1018   1.407   .     S
C460   C462    1.409   .     A
C460   C1017   1.407   1_554 S
C463   C491    1.487   .     S
C463   C995    1.398   .     S
C464   C494    1.487   .     S
C464   C996    1.398   1_554 S
Cu465  Cu466   2.673   .     S
Cu465  O481    1.965   .     S
Cu465  O487    1.971   .     S
Cu465  O483    1.965   .     S
Cu465  N479    2.009   .     S
Cu465  O485    1.974   .     S
Cu466  O482    1.965   .     S
Cu466  O484    1.965   .     S
Cu466  O488    1.971   .     S
Cu466  N480    2.009   .     S
Cu466  O486    1.974   .     S
C491   H492    1.083   .     S
C491   O493    1.221   .     D
C494   O496    1.221   .     D
C494   H495    1.083   .     S
C497   O546    1.290   .     A
C497   O543    1.290   .     A
C497   C506    1.450   .     S
C498   O545    1.290   .     A
C498   O544    1.290   .     A
C498   C505    1.450   .     S
C499   H531    1.085   .     S
C499   C524    1.395   .     A
C499   C1083   1.398   1_554 S
C500   H532    1.085   .     S
C500   C523    1.395   .     A
C500   C1084   1.398   .     S
C501   C506    1.401   .     A
C501   H533    1.083   .     S
C502   H534    1.083   .     S
C502   C505    1.401   .     A
C502   C380    1.383   1_655 S
C503   C505    1.401   .     A
C503   H535    1.083   .     S
C503   C377    1.383   1_655 S
C504   H536    1.083   .     S
C504   C506    1.401   .     A
C507   H537    1.082   .     S
C507   N542    1.367   .     A
C508   N541    1.367   .     A
C508   H538    1.082   .     S
C508   C137    1.415   1_565 S
C509   N542    1.367   .     A
C509   H539    1.082   .     S
C510   H540    1.082   .     S
C510   N541    1.367   .     A
C510   C135    1.415   1_565 S
C511   O547    1.292   .     A
C511   C516    1.465   .     S
C511   O550    1.295   .     A
C512   C515    1.465   .     S
C512   O549    1.295   .     A
C512   O548    1.292   .     A
C513   H529    1.085   .     S
C513   C515    1.394   .     A
C513   C523    1.388   .     A
C514   H530    1.085   .     S
C514   C524    1.388   .     A
C514   C516    1.394   .     A
C515   C517    1.407   .     A
C516   C518    1.407   .     A
C517   C519    1.411   .     A
C517   F551    1.357   .     S
C518   F552    1.357   .     S
C518   C520    1.411   .     A
C519   C525    1.424   .     A
C519   C521    1.424   .     A
C520   C522    1.424   .     A
C520   C526    1.424   .     A
C521   C523    1.409   .     A
C521   C1080   1.407   .     S
C522   C524    1.409   .     A
C522   C1079   1.407   1_554 S
C525   C553    1.487   .     S
C525   C1057   1.398   .     S
C526   C556    1.487   .     S
C526   C1058   1.398   1_554 S
Cu527  Cu528   2.673   .     S
Cu527  O543    1.965   .     S
Cu527  O549    1.971   .     S
Cu527  O545    1.965   .     S
Cu527  N541    2.009   .     S
Cu527  O547    1.974   .     S
Cu528  O544    1.965   .     S
Cu528  O546    1.965   .     S
Cu528  O550    1.971   .     S
Cu528  N542    2.009   .     S
Cu528  O548    1.974   .     S
C553   H554    1.083   .     S
C553   O555    1.221   .     D
C556   O558    1.221   .     D
C556   H557    1.083   .     S
C559   O608    1.290   .     A
C559   O605    1.290   .     A
C559   C568    1.450   .     S
C560   O607    1.290   .     A
C560   O606    1.290   .     A
C560   C567    1.450   .     S
C561   H593    1.085   .     S
C561   C586    1.395   .     A
C562   H594    1.085   .     S
C562   C585    1.395   .     A
C562   C30     1.398   1_556 S
C563   C568    1.401   .     A
C563   H595    1.083   .     S
C563   C689    1.383   1_455 S
C564   H596    1.083   .     S
C564   C567    1.401   .     A
C564   C628    1.383   .     S
C565   C567    1.401   .     A
C565   H597    1.083   .     S
C565   C625    1.383   .     S
C566   H598    1.083   .     S
C566   C568    1.401   .     A
C566   C688    1.383   1_455 S
C569   H599    1.082   .     S
C569   N604    1.367   .     A
C569   C944    1.415   1_545 S
C570   N603    1.367   .     A
C570   H600    1.082   .     S
C570   C757    1.415   .     S
C571   N604    1.367   .     A
C571   H601    1.082   .     S
C571   C942    1.415   1_545 S
C572   H602    1.082   .     S
C572   N603    1.367   .     A
C572   C755    1.415   .     S
C573   O609    1.292   .     A
C573   C578    1.465   .     S
C573   O612    1.295   .     A
C574   C577    1.465   .     S
C574   O611    1.295   .     A
C574   O610    1.292   .     A
C575   H591    1.085   .     S
C575   C577    1.394   .     A
C575   C585    1.388   .     A
C576   H592    1.085   .     S
C576   C586    1.388   .     A
C576   C578    1.394   .     A
C577   C579    1.407   .     A
C578   C580    1.407   .     A
C579   C581    1.411   .     A
C579   F613    1.357   .     S
C580   F614    1.357   .     S
C580   C582    1.411   .     A
C581   C587    1.424   .     A
C581   C583    1.424   .     A
C582   C584    1.424   .     A
C582   C588    1.424   .     A
C583   C585    1.409   .     A
C583   C26     1.407   1_556 S
C584   C586    1.409   .     A
C587   C615    1.487   .     S
C587   C3      1.398   1_556 S
C588   C618    1.487   .     S
Cu589  Cu590   2.673   .     S
Cu589  O605    1.965   .     S
Cu589  O611    1.971   .     S
Cu589  O607    1.965   .     S
Cu589  N603    2.009   .     S
Cu589  O609    1.974   .     S
Cu590  O606    1.965   .     S
Cu590  O608    1.965   .     S
Cu590  O612    1.971   .     S
Cu590  N604    2.009   .     S
Cu590  O610    1.974   .     S
C615   H616    1.083   .     S
C615   O617    1.221   .     D
C618   O620    1.221   .     D
C618   H619    1.083   .     S
C621   O670    1.290   .     A
C621   O667    1.290   .     A
C621   C630    1.450   .     S
C622   O669    1.290   .     A
C622   O668    1.290   .     A
C622   C629    1.450   .     S
C623   H655    1.085   .     S
C623   C648    1.395   .     A
C624   H656    1.085   .     S
C624   C647    1.395   .     A
C624   C92     1.398   1_556 S
C625   C630    1.401   .     A
C625   H657    1.083   .     S
C626   H658    1.083   .     S
C626   C629    1.401   .     A
C626   C690    1.383   .     S
C627   C629    1.401   .     A
C627   H659    1.083   .     S
C627   C687    1.383   .     S
C628   H660    1.083   .     S
C628   C630    1.401   .     A
C631   H661    1.082   .     S
C631   N666    1.367   .     A
C631   C1006   1.415   1_545 S
C632   N665    1.367   .     A
C632   H662    1.082   .     S
C632   C819    1.415   .     S
C633   N666    1.367   .     A
C633   H663    1.082   .     S
C633   C1004   1.415   1_545 S
C634   H664    1.082   .     S
C634   N665    1.367   .     A
C634   C817    1.415   .     S
C635   O671    1.292   .     A
C635   C640    1.465   .     S
C635   O674    1.295   .     A
C636   C639    1.465   .     S
C636   O673    1.295   .     A
C636   O672    1.292   .     A
C637   H653    1.085   .     S
C637   C639    1.394   .     A
C637   C647    1.388   .     A
C638   H654    1.085   .     S
C638   C648    1.388   .     A
C638   C640    1.394   .     A
C639   C641    1.407   .     A
C640   C642    1.407   .     A
C641   C643    1.411   .     A
C641   F675    1.357   .     S
C642   F676    1.357   .     S
C642   C644    1.411   .     A
C643   C649    1.424   .     A
C643   C645    1.424   .     A
C644   C646    1.424   .     A
C644   C650    1.424   .     A
C645   C647    1.409   .     A
C645   C88     1.407   1_556 S
C646   C648    1.409   .     A
C649   C677    1.487   .     S
C649   C65     1.398   1_556 S
C650   C680    1.487   .     S
Cu651  Cu652   2.673   .     S
Cu651  O667    1.965   .     S
Cu651  O673    1.971   .     S
Cu651  O669    1.965   .     S
Cu651  N665    2.009   .     S
Cu651  O671    1.974   .     S
Cu652  O668    1.965   .     S
Cu652  O670    1.965   .     S
Cu652  O674    1.971   .     S
Cu652  N666    2.009   .     S
Cu652  O672    1.974   .     S
C677   H678    1.083   .     S
C677   O679    1.221   .     D
C680   O682    1.221   .     D
C680   H681    1.083   .     S
C683   O732    1.290   .     A
C683   O729    1.290   .     A
C683   C692    1.450   .     S
C684   O731    1.290   .     A
C684   O730    1.290   .     A
C684   C691    1.450   .     S
C685   H717    1.085   .     S
C685   C710    1.395   .     A
C686   H718    1.085   .     S
C686   C709    1.395   .     A
C686   C154    1.398   1_556 S
C687   C692    1.401   .     A
C687   H719    1.083   .     S
C688   H720    1.083   .     S
C688   C691    1.401   .     A
C688   C566    1.383   1_655 S
C689   C691    1.401   .     A
C689   H721    1.083   .     S
C689   C563    1.383   1_655 S
C690   H722    1.083   .     S
C690   C692    1.401   .     A
C693   H723    1.082   .     S
C693   N728    1.367   .     A
C693   C1068   1.415   1_545 S
C694   N727    1.367   .     A
C694   H724    1.082   .     S
C694   C881    1.415   .     S
C695   N728    1.367   .     A
C695   H725    1.082   .     S
C695   C1066   1.415   1_545 S
C696   H726    1.082   .     S
C696   N727    1.367   .     A
C696   C879    1.415   .     S
C697   O733    1.292   .     A
C697   C702    1.465   .     S
C697   O736    1.295   .     A
C698   C701    1.465   .     S
C698   O735    1.295   .     A
C698   O734    1.292   .     A
C699   H715    1.085   .     S
C699   C701    1.394   .     A
C699   C709    1.388   .     A
C700   H716    1.085   .     S
C700   C710    1.388   .     A
C700   C702    1.394   .     A
C701   C703    1.407   .     A
C702   C704    1.407   .     A
C703   C705    1.411   .     A
C703   F737    1.357   .     S
C704   F738    1.357   .     S
C704   C706    1.411   .     A
C705   C711    1.424   .     A
C705   C707    1.424   .     A
C706   C708    1.424   .     A
C706   C712    1.424   .     A
C707   C709    1.409   .     A
C707   C150    1.407   1_556 S
C708   C710    1.409   .     A
C711   C739    1.487   .     S
C711   C127    1.398   1_556 S
C712   C742    1.487   .     S
Cu713  Cu714   2.673   .     S
Cu713  O729    1.965   .     S
Cu713  O735    1.971   .     S
Cu713  O731    1.965   .     S
Cu713  N727    2.009   .     S
Cu713  O733    1.974   .     S
Cu714  O730    1.965   .     S
Cu714  O732    1.965   .     S
Cu714  O736    1.971   .     S
Cu714  N728    2.009   .     S
Cu714  O734    1.974   .     S
C739   H740    1.083   .     S
C739   O741    1.221   .     D
C742   O744    1.221   .     D
C742   H743    1.083   .     S
C745   O794    1.290   .     A
C745   O791    1.290   .     A
C745   C754    1.450   .     S
C746   O793    1.290   .     A
C746   O792    1.290   .     A
C746   C753    1.450   .     S
C747   H779    1.085   .     S
C747   C772    1.395   .     A
C748   H780    1.085   .     S
C748   C771    1.395   .     A
C748   C216    1.398   1_556 S
C749   C754    1.401   .     A
C749   H781    1.083   .     S
C749   C875    1.383   1_455 S
C750   H782    1.083   .     S
C750   C753    1.401   .     A
C750   C814    1.383   .     S
C751   C753    1.401   .     A
C751   H783    1.083   .     S
C751   C811    1.383   .     S
C752   H784    1.083   .     S
C752   C754    1.401   .     A
C752   C874    1.383   1_455 S
C755   H785    1.082   .     S
C755   N790    1.367   .     A
C756   N789    1.367   .     A
C756   H786    1.082   .     S
C756   C943    1.415   .     S
C757   N790    1.367   .     A
C757   H787    1.082   .     S
C758   H788    1.082   .     S
C758   N789    1.367   .     A
C758   C941    1.415   .     S
C759   O795    1.292   .     A
C759   C764    1.465   .     S
C759   O798    1.295   .     A
C760   C763    1.465   .     S
C760   O797    1.295   .     A
C760   O796    1.292   .     A
C761   H777    1.085   .     S
C761   C763    1.394   .     A
C761   C771    1.388   .     A
C762   H778    1.085   .     S
C762   C772    1.388   .     A
C762   C764    1.394   .     A
C763   C765    1.407   .     A
C764   C766    1.407   .     A
C765   C767    1.411   .     A
C765   F799    1.357   .     S
C766   F800    1.357   .     S
C766   C768    1.411   .     A
C767   C773    1.424   .     A
C767   C769    1.424   .     A
C768   C770    1.424   .     A
C768   C774    1.424   .     A
C769   C771    1.409   .     A
C769   C212    1.407   1_556 S
C770   C772    1.409   .     A
C773   C801    1.487   .     S
C773   C189    1.398   1_556 S
C774   C804    1.487   .     S
Cu775  Cu776   2.673   .     S
Cu775  O791    1.965   .     S
Cu775  O797    1.971   .     S
Cu775  O793    1.965   .     S
Cu775  N789    2.009   .     S
Cu775  O795    1.974   .     S
Cu776  O792    1.965   .     S
Cu776  O794    1.965   .     S
Cu776  O798    1.971   .     S
Cu776  N790    2.009   .     S
Cu776  O796    1.974   .     S
C801   H802    1.083   .     S
C801   O803    1.221   .     D
C804   O806    1.221   .     D
C804   H805    1.083   .     S
C807   O856    1.290   .     A
C807   O853    1.290   .     A
C807   C816    1.450   .     S
C808   O855    1.290   .     A
C808   O854    1.290   .     A
C808   C815    1.450   .     S
C809   H841    1.085   .     S
C809   C834    1.395   .     A
C810   H842    1.085   .     S
C810   C833    1.395   .     A
C810   C278    1.398   1_556 S
C811   C816    1.401   .     A
C811   H843    1.083   .     S
C812   H844    1.083   .     S
C812   C815    1.401   .     A
C812   C876    1.383   .     S
C813   C815    1.401   .     A
C813   H845    1.083   .     S
C813   C873    1.383   .     S
C814   H846    1.083   .     S
C814   C816    1.401   .     A
C817   H847    1.082   .     S
C817   N852    1.367   .     A
C818   N851    1.367   .     A
C818   H848    1.082   .     S
C818   C1005   1.415   .     S
C819   N852    1.367   .     A
C819   H849    1.082   .     S
C820   H850    1.082   .     S
C820   N851    1.367   .     A
C820   C1003   1.415   .     S
C821   O857    1.292   .     A
C821   C826    1.465   .     S
C821   O860    1.295   .     A
C822   C825    1.465   .     S
C822   O859    1.295   .     A
C822   O858    1.292   .     A
C823   H839    1.085   .     S
C823   C825    1.394   .     A
C823   C833    1.388   .     A
C824   H840    1.085   .     S
C824   C834    1.388   .     A
C824   C826    1.394   .     A
C825   C827    1.407   .     A
C826   C828    1.407   .     A
C827   C829    1.411   .     A
C827   F861    1.357   .     S
C828   F862    1.357   .     S
C828   C830    1.411   .     A
C829   C835    1.424   .     A
C829   C831    1.424   .     A
C830   C832    1.424   .     A
C830   C836    1.424   .     A
C831   C833    1.409   .     A
C831   C274    1.407   1_556 S
C832   C834    1.409   .     A
C835   C863    1.487   .     S
C835   C251    1.398   1_556 S
C836   C866    1.487   .     S
Cu837  Cu838   2.673   .     S
Cu837  O853    1.965   .     S
Cu837  O859    1.971   .     S
Cu837  O855    1.965   .     S
Cu837  N851    2.009   .     S
Cu837  O857    1.974   .     S
Cu838  O854    1.965   .     S
Cu838  O856    1.965   .     S
Cu838  O860    1.971   .     S
Cu838  N852    2.009   .     S
Cu838  O858    1.974   .     S
C863   H864    1.083   .     S
C863   O865    1.221   .     D
C866   O868    1.221   .     D
C866   H867    1.083   .     S
C869   O918    1.290   .     A
C869   O915    1.290   .     A
C869   C878    1.450   .     S
C870   O917    1.290   .     A
C870   O916    1.290   .     A
C870   C877    1.450   .     S
C871   H903    1.085   .     S
C871   C896    1.395   .     A
C872   H904    1.085   .     S
C872   C895    1.395   .     A
C872   C340    1.398   1_556 S
C873   C878    1.401   .     A
C873   H905    1.083   .     S
C874   H906    1.083   .     S
C874   C877    1.401   .     A
C874   C752    1.383   1_655 S
C875   C877    1.401   .     A
C875   H907    1.083   .     S
C875   C749    1.383   1_655 S
C876   H908    1.083   .     S
C876   C878    1.401   .     A
C879   H909    1.082   .     S
C879   N914    1.367   .     A
C880   N913    1.367   .     A
C880   H910    1.082   .     S
C880   C1067   1.415   .     S
C881   N914    1.367   .     A
C881   H911    1.082   .     S
C882   H912    1.082   .     S
C882   N913    1.367   .     A
C882   C1065   1.415   .     S
C883   O919    1.292   .     A
C883   C888    1.465   .     S
C883   O922    1.295   .     A
C884   C887    1.465   .     S
C884   O921    1.295   .     A
C884   O920    1.292   .     A
C885   H901    1.085   .     S
C885   C887    1.394   .     A
C885   C895    1.388   .     A
C886   H902    1.085   .     S
C886   C896    1.388   .     A
C886   C888    1.394   .     A
C887   C889    1.407   .     A
C888   C890    1.407   .     A
C889   C891    1.411   .     A
C889   F923    1.357   .     S
C890   F924    1.357   .     S
C890   C892    1.411   .     A
C891   C897    1.424   .     A
C891   C893    1.424   .     A
C892   C894    1.424   .     A
C892   C898    1.424   .     A
C893   C895    1.409   .     A
C893   C336    1.407   1_556 S
C894   C896    1.409   .     A
C897   C925    1.487   .     S
C897   C313    1.398   1_556 S
C898   C928    1.487   .     S
Cu899  Cu900   2.673   .     S
Cu899  O915    1.965   .     S
Cu899  O921    1.971   .     S
Cu899  O917    1.965   .     S
Cu899  N913    2.009   .     S
Cu899  O919    1.974   .     S
Cu900  O916    1.965   .     S
Cu900  O918    1.965   .     S
Cu900  O922    1.971   .     S
Cu900  N914    2.009   .     S
Cu900  O920    1.974   .     S
C925   H926    1.083   .     S
C925   O927    1.221   .     D
C928   O930    1.221   .     D
C928   H929    1.083   .     S
C931   O980    1.290   .     A
C931   O977    1.290   .     A
C931   C940    1.450   .     S
C932   O979    1.290   .     A
C932   O978    1.290   .     A
C932   C939    1.450   .     S
C933   H965    1.085   .     S
C933   C958    1.395   .     A
C934   H966    1.085   .     S
C934   C957    1.395   .     A
C934   C402    1.398   1_556 S
C935   C940    1.401   .     A
C935   H967    1.083   .     S
C935   C1061   1.383   1_455 S
C936   H968    1.083   .     S
C936   C939    1.401   .     A
C936   C1000   1.383   .     S
C937   C939    1.401   .     A
C937   H969    1.083   .     S
C937   C997    1.383   .     S
C938   H970    1.083   .     S
C938   C940    1.401   .     A
C938   C1060   1.383   1_455 S
C941   H971    1.082   .     S
C941   N976    1.367   .     A
C942   N975    1.367   .     A
C942   H972    1.082   .     S
C942   C571    1.415   1_565 S
C943   N976    1.367   .     A
C943   H973    1.082   .     S
C944   H974    1.082   .     S
C944   N975    1.367   .     A
C944   C569    1.415   1_565 S
C945   O981    1.292   .     A
C945   C950    1.465   .     S
C945   O984    1.295   .     A
C946   C949    1.465   .     S
C946   O983    1.295   .     A
C946   O982    1.292   .     A
C947   H963    1.085   .     S
C947   C949    1.394   .     A
C947   C957    1.388   .     A
C948   H964    1.085   .     S
C948   C958    1.388   .     A
C948   C950    1.394   .     A
C949   C951    1.407   .     A
C950   C952    1.407   .     A
C951   C953    1.411   .     A
C951   F985    1.357   .     S
C952   F986    1.357   .     S
C952   C954    1.411   .     A
C953   C959    1.424   .     A
C953   C955    1.424   .     A
C954   C956    1.424   .     A
C954   C960    1.424   .     A
C955   C957    1.409   .     A
C955   C398    1.407   1_556 S
C956   C958    1.409   .     A
C959   C987    1.487   .     S
C959   C375    1.398   1_556 S
C960   C990    1.487   .     S
Cu961  Cu962   2.673   .     S
Cu961  O977    1.965   .     S
Cu961  O983    1.971   .     S
Cu961  O979    1.965   .     S
Cu961  N975    2.009   .     S
Cu961  O981    1.974   .     S
Cu962  O978    1.965   .     S
Cu962  O980    1.965   .     S
Cu962  O984    1.971   .     S
Cu962  N976    2.009   .     S
Cu962  O982    1.974   .     S
C987   H988    1.083   .     S
C987   O989    1.221   .     D
C990   O992    1.221   .     D
C990   H991    1.083   .     S
C993   O1042   1.290   .     A
C993   O1039   1.290   .     A
C993   C1002   1.450   .     S
C994   O1041   1.290   .     A
C994   O1040   1.290   .     A
C994   C1001   1.450   .     S
C995   H1027   1.085   .     S
C995   C1020   1.395   .     A
C996   H1028   1.085   .     S
C996   C1019   1.395   .     A
C996   C464    1.398   1_556 S
C997   C1002   1.401   .     A
C997   H1029   1.083   .     S
C998   H1030   1.083   .     S
C998   C1001   1.401   .     A
C998   C1062   1.383   .     S
C999   C1001   1.401   .     A
C999   H1031   1.083   .     S
C999   C1059   1.383   .     S
C1000  H1032   1.083   .     S
C1000  C1002   1.401   .     A
C1003  H1033   1.082   .     S
C1003  N1038   1.367   .     A
C1004  N1037   1.367   .     A
C1004  H1034   1.082   .     S
C1004  C633    1.415   1_565 S
C1005  N1038   1.367   .     A
C1005  H1035   1.082   .     S
C1006  H1036   1.082   .     S
C1006  N1037   1.367   .     A
C1006  C631    1.415   1_565 S
C1007  O1043   1.292   .     A
C1007  C1012   1.465   .     S
C1007  O1046   1.295   .     A
C1008  C1011   1.465   .     S
C1008  O1045   1.295   .     A
C1008  O1044   1.292   .     A
C1009  H1025   1.085   .     S
C1009  C1011   1.394   .     A
C1009  C1019   1.388   .     A
C1010  H1026   1.085   .     S
C1010  C1020   1.388   .     A
C1010  C1012   1.394   .     A
C1011  C1013   1.407   .     A
C1012  C1014   1.407   .     A
C1013  C1015   1.411   .     A
C1013  F1047   1.357   .     S
C1014  F1048   1.357   .     S
C1014  C1016   1.411   .     A
C1015  C1021   1.424   .     A
C1015  C1017   1.424   .     A
C1016  C1018   1.424   .     A
C1016  C1022   1.424   .     A
C1017  C1019   1.409   .     A
C1017  C460    1.407   1_556 S
C1018  C1020   1.409   .     A
C1021  C1049   1.487   .     S
C1021  C437    1.398   1_556 S
C1022  C1052   1.487   .     S
Cu1023 Cu1024  2.673   .     S
Cu1023 O1039   1.965   .     S
Cu1023 O1045   1.971   .     S
Cu1023 O1041   1.965   .     S
Cu1023 N1037   2.009   .     S
Cu1023 O1043   1.974   .     S
Cu1024 O1040   1.965   .     S
Cu1024 O1042   1.965   .     S
Cu1024 O1046   1.971   .     S
Cu1024 N1038   2.009   .     S
Cu1024 O1044   1.974   .     S
C1049  H1050   1.083   .     S
C1049  O1051   1.221   .     D
C1052  O1054   1.221   .     D
C1052  H1053   1.083   .     S
C1055  O1104   1.290   .     A
C1055  O1101   1.290   .     A
C1055  C1064   1.450   .     S
C1056  O1103   1.290   .     A
C1056  O1102   1.290   .     A
C1056  C1063   1.450   .     S
C1057  H1089   1.085   .     S
C1057  C1082   1.395   .     A
C1058  H1090   1.085   .     S
C1058  C1081   1.395   .     A
C1058  C526    1.398   1_556 S
C1059  C1064   1.401   .     A
C1059  H1091   1.083   .     S
C1060  H1092   1.083   .     S
C1060  C1063   1.401   .     A
C1060  C938    1.383   1_655 S
C1061  C1063   1.401   .     A
C1061  H1093   1.083   .     S
C1061  C935    1.383   1_655 S
C1062  H1094   1.083   .     S
C1062  C1064   1.401   .     A
C1065  H1095   1.082   .     S
C1065  N1100   1.367   .     A
C1066  N1099   1.367   .     A
C1066  H1096   1.082   .     S
C1066  C695    1.415   1_565 S
C1067  N1100   1.367   .     A
C1067  H1097   1.082   .     S
C1068  H1098   1.082   .     S
C1068  N1099   1.367   .     A
C1068  C693    1.415   1_565 S
C1069  O1105   1.292   .     A
C1069  C1074   1.465   .     S
C1069  O1108   1.295   .     A
C1070  C1073   1.465   .     S
C1070  O1107   1.295   .     A
C1070  O1106   1.292   .     A
C1071  H1087   1.085   .     S
C1071  C1073   1.394   .     A
C1071  C1081   1.388   .     A
C1072  H1088   1.085   .     S
C1072  C1082   1.388   .     A
C1072  C1074   1.394   .     A
C1073  C1075   1.407   .     A
C1074  C1076   1.407   .     A
C1075  C1077   1.411   .     A
C1075  F1109   1.357   .     S
C1076  F1110   1.357   .     S
C1076  C1078   1.411   .     A
C1077  C1083   1.424   .     A
C1077  C1079   1.424   .     A
C1078  C1080   1.424   .     A
C1078  C1084   1.424   .     A
C1079  C1081   1.409   .     A
C1079  C522    1.407   1_556 S
C1080  C1082   1.409   .     A
C1083  C1111   1.487   .     S
C1083  C499    1.398   1_556 S
C1084  C1114   1.487   .     S
Cu1085 Cu1086  2.673   .     S
Cu1085 O1101   1.965   .     S
Cu1085 O1107   1.971   .     S
Cu1085 O1103   1.965   .     S
Cu1085 N1099   2.009   .     S
Cu1085 O1105   1.974   .     S
Cu1086 O1102   1.965   .     S
Cu1086 O1104   1.965   .     S
Cu1086 O1108   1.971   .     S
Cu1086 N1100   2.009   .     S
Cu1086 O1106   1.974   .     S
C1111  H1112   1.083   .     S
C1111  O1113   1.221   .     D
C1114  O1116   1.221   .     D
C1114  H1115   1.083   .     S
