data_str_m2_o1_o18_pcu_sym.149
_audit_creation_date              2020-01-03
_audit_creation_method            'Materials Studio'
_symmetry_space_group_name_H-M    'P1'
_symmetry_Int_Tables_number       1
_symmetry_cell_setting            triclinic
loop_
_symmetry_equiv_pos_as_xyz
  x,y,z
_cell_length_a                    28.7313
_cell_length_b                    32.2637
_cell_length_c                    30.9147
_cell_angle_alpha                 89.7337
_cell_angle_beta                  74.0304
_cell_angle_gamma                 90.7450
loop_
_atom_site_label
_atom_site_type_symbol
_atom_site_fract_x
_atom_site_fract_y
_atom_site_fract_z
_atom_site_U_iso_or_equiv
_atom_site_adp_type
_atom_site_occupancy
C1     C     0.33313   0.08761   0.24985   0.00000  Uiso   1.00
C2     C     0.00018   0.24573   0.25022   0.00000  Uiso   1.00
C3     C     0.19259   0.15790   0.04821   0.00000  Uiso   1.00
C4     C     0.14573   0.19935   0.45637   0.00000  Uiso   1.00
C5     C     0.24007   0.14888   0.02586   0.00000  Uiso   1.00
C6     C     0.09862   0.20918   0.47942   0.00000  Uiso   1.00
C7     C     0.00442   0.02173   0.20886   0.00000  Uiso   1.00
C8     C     0.32883   0.31163   0.29125   0.00000  Uiso   1.00
C9     C     0.00497   0.31148   0.20923   0.00000  Uiso   1.00
C10    C     0.32833   0.02189   0.29087   0.00000  Uiso   1.00
C11    C     0.00052   0.29044   0.25033   0.00000  Uiso   1.00
C12    C     0.33277   0.04291   0.24976   0.00000  Uiso   1.00
C13    C     0.18260   0.13894   0.27611   0.00000  Uiso   1.00
C14    C     0.15076   0.19438   0.22387   0.00000  Uiso   1.00
C15    C     0.13332   0.13920   0.27592   0.00000  Uiso   1.00
C16    C     0.20005   0.19406   0.22400   0.00000  Uiso   1.00
C17    C     0.30602   0.16605   0.33606   0.00000  Uiso   1.00
C18    C     0.02730   0.16774   0.16398   0.00000  Uiso   1.00
C19    C     0.29095   0.16361   0.38535   0.00000  Uiso   1.00
C20    C     0.04248   0.17443   0.11521   0.00000  Uiso   1.00
C21    C     0.30508   0.14071   0.45556   0.00000  Uiso   1.00
C22    C     0.03166   0.20966   0.04904   0.00000  Uiso   1.00
C23    C     0.32157   0.14750   0.40906   0.00000  Uiso   1.00
C24    C     0.01340   0.19628   0.09378   0.00000  Uiso   1.00
C25    C     0.24402   0.17468   0.40815   0.00000  Uiso   1.00
C26    C     0.08942   0.16433   0.09162   0.00000  Uiso   1.00
C27    C     0.22594   0.16963   0.45495   0.00000  Uiso   1.00
C28    C     0.11003   0.17851   0.04744   0.00000  Uiso   1.00
C29    C     0.25714   0.15253   0.47901   0.00000  Uiso   1.00
C30    C     0.07999   0.19969   0.02517   0.00000  Uiso   1.00
C31    C     0.17734   0.18029   0.47817   0.00000  Uiso   1.00
C32    C     0.15967   0.17162   0.02491   0.00000  Uiso   1.00
Cu33   Cu    0.04689   0.16667   0.25000   0.00000  Uiso   1.00
Cu34   Cu    0.28645   0.16666   0.25000   0.00000  Uiso   1.00
H35    H     0.26337   0.13995   0.04630   0.00000  Uiso   1.00
H36    H     0.07646   0.22275   0.46013   0.00000  Uiso   1.00
H37    H     0.10926   0.14518   0.10883   0.00000  Uiso   1.00
H38    H     0.22211   0.18649   0.38795   0.00000  Uiso   1.00
H39    H     0.31068   0.20517   0.11285   0.00000  Uiso   1.00
H40    H     0.02427   0.13789   0.39076   0.00000  Uiso   1.00
H41    H     0.18324   0.15529   0.08437   0.00000  Uiso   1.00
H42    H     0.15610   0.20807   0.42138   0.00000  Uiso   1.00
H43    H     0.10776   0.11726   0.29661   0.00000  Uiso   1.00
H44    H     0.22566   0.21590   0.20319   0.00000  Uiso   1.00
N45    N     0.11736   0.16668   0.24999   0.00000  Uiso   1.00
N46    N     0.21597   0.16666   0.25001   0.00000  Uiso   1.00
O47    O     0.03958   0.10655   0.25000   0.00000  Uiso   1.00
O48    O     0.29375   0.22678   0.25000   0.00000  Uiso   1.00
O49    O     0.29372   0.10654   0.25001   0.00000  Uiso   1.00
O50    O     0.03961   0.22679   0.24999   0.00000  Uiso   1.00
O51    O     0.01852   0.16668   0.31491   0.00000  Uiso   1.00
O52    O     0.31481   0.16666   0.18509   0.00000  Uiso   1.00
O53    O     0.27267   0.16667   0.31492   0.00000  Uiso   1.00
O54    O     0.06067   0.16667   0.18508   0.00000  Uiso   1.00
C55    C     0.00502   0.11885   0.47709   0.00000  Uiso   1.00
O56    O     0.32269   0.09336   0.00713   0.00000  Uiso   1.00
O57    O     0.05500   0.12555   0.46076   0.00000  Uiso   1.00
H58    H     0.07406   0.10874   0.47762   0.00000  Uiso   1.00
C59    C     0.00046   0.23677   0.03016   0.00000  Uiso   1.00
O60    O     0.29007   0.23037   0.04008   0.00000  Uiso   1.00
O61    O     0.02038   0.27113   0.00338   0.00000  Uiso   1.00
H62    H     0.32857   0.28736   0.49322   0.00000  Uiso   1.00
C63    C     0.00964   0.04516   0.16496   0.00000  Uiso   1.00
H64    H     0.00873   0.07925   0.16832   0.00000  Uiso   1.00
H65    H     0.04490   0.03783   0.14075   0.00000  Uiso   1.00
H66    H     0.31288   0.03624   0.15061   0.00000  Uiso   1.00
C67    C     0.32356   0.28820   0.33516   0.00000  Uiso   1.00
H68    H     0.32444   0.25411   0.33179   0.00000  Uiso   1.00
H69    H     0.02030   0.29708   0.34954   0.00000  Uiso   1.00
H70    H     0.28829   0.29554   0.35935   0.00000  Uiso   1.00
C71    C     0.01054   0.28645   0.16648   0.00000  Uiso   1.00
H72    H     0.04271   0.26639   0.16097   0.00000  Uiso   1.00
H73    H     0.31120   0.26658   0.16996   0.00000  Uiso   1.00
H74    H     0.01534   0.30517   0.13549   0.00000  Uiso   1.00
C75    C     0.32278   0.04695   0.33362   0.00000  Uiso   1.00
H76    H     0.29060   0.06701   0.33917   0.00000  Uiso   1.00
H77    H     0.31803   0.02820   0.36458   0.00000  Uiso   1.00
H78    H     0.02209   0.06687   0.33015   0.00000  Uiso   1.00
C79    C     0.19636   0.10736   0.30449   0.00000  Uiso   1.00
O80    O     0.19517   0.11534   0.34337   0.00000  Uiso   1.00
O81    O     0.20635   0.06722   0.28807   0.00000  Uiso   1.00
H82    H     0.21404   0.04782   0.31098   0.00000  Uiso   1.00
C83    C     0.13726   0.22558   0.19494   0.00000  Uiso   1.00
O84    O     0.12690   0.26052   0.20918   0.00000  Uiso   1.00
O85    O     0.14119   0.21643   0.15000   0.00000  Uiso   1.00
H86    H     0.13243   0.24073   0.13301   0.00000  Uiso   1.00
C87    C     0.66647   0.08761   0.24985   0.00000  Uiso   1.00
C88    C     0.33351   0.24573   0.25022   0.00000  Uiso   1.00
C89    C     0.52593   0.15790   0.04821   0.00000  Uiso   1.00
C90    C     0.47907   0.19935   0.45637   0.00000  Uiso   1.00
C91    C     0.57341   0.14888   0.02586   0.00000  Uiso   1.00
C92    C     0.43196   0.20918   0.47942   0.00000  Uiso   1.00
C93    C     0.33776   0.02173   0.20886   0.00000  Uiso   1.00
C94    C     0.66217   0.31163   0.29125   0.00000  Uiso   1.00
C95    C     0.33831   0.31148   0.20923   0.00000  Uiso   1.00
C96    C     0.66166   0.02189   0.29087   0.00000  Uiso   1.00
C97    C     0.33385   0.29044   0.25033   0.00000  Uiso   1.00
C98    C     0.66611   0.04291   0.24976   0.00000  Uiso   1.00
C99    C     0.51594   0.13894   0.27611   0.00000  Uiso   1.00
C100   C     0.48410   0.19438   0.22387   0.00000  Uiso   1.00
C101   C     0.46666   0.13920   0.27592   0.00000  Uiso   1.00
C102   C     0.53338   0.19406   0.22400   0.00000  Uiso   1.00
C103   C     0.63935   0.16605   0.33606   0.00000  Uiso   1.00
C104   C     0.36063   0.16774   0.16398   0.00000  Uiso   1.00
C105   C     0.62428   0.16361   0.38535   0.00000  Uiso   1.00
C106   C     0.37581   0.17443   0.11521   0.00000  Uiso   1.00
C107   C     0.63841   0.14071   0.45556   0.00000  Uiso   1.00
C108   C     0.36499   0.20966   0.04904   0.00000  Uiso   1.00
C109   C     0.65491   0.14750   0.40906   0.00000  Uiso   1.00
C110   C     0.34673   0.19628   0.09378   0.00000  Uiso   1.00
C111   C     0.57736   0.17468   0.40815   0.00000  Uiso   1.00
C112   C     0.42276   0.16433   0.09162   0.00000  Uiso   1.00
C113   C     0.55928   0.16963   0.45495   0.00000  Uiso   1.00
C114   C     0.44337   0.17851   0.04744   0.00000  Uiso   1.00
C115   C     0.59047   0.15253   0.47901   0.00000  Uiso   1.00
C116   C     0.41333   0.19969   0.02517   0.00000  Uiso   1.00
C117   C     0.51067   0.18029   0.47817   0.00000  Uiso   1.00
C118   C     0.49301   0.17162   0.02491   0.00000  Uiso   1.00
Cu119  Cu    0.38022   0.16667   0.25000   0.00000  Uiso   1.00
Cu120  Cu    0.61978   0.16666   0.25000   0.00000  Uiso   1.00
H121   H     0.59670   0.13995   0.04630   0.00000  Uiso   1.00
H122   H     0.40979   0.22275   0.46013   0.00000  Uiso   1.00
H123   H     0.44259   0.14518   0.10883   0.00000  Uiso   1.00
H124   H     0.55545   0.18649   0.38795   0.00000  Uiso   1.00
H125   H     0.64401   0.20517   0.11285   0.00000  Uiso   1.00
H126   H     0.35761   0.13789   0.39076   0.00000  Uiso   1.00
H127   H     0.51657   0.15529   0.08437   0.00000  Uiso   1.00
H128   H     0.48943   0.20807   0.42138   0.00000  Uiso   1.00
H129   H     0.44109   0.11726   0.29661   0.00000  Uiso   1.00
H130   H     0.55899   0.21590   0.20319   0.00000  Uiso   1.00
N131   N     0.45069   0.16668   0.24999   0.00000  Uiso   1.00
N132   N     0.54931   0.16666   0.25001   0.00000  Uiso   1.00
O133   O     0.37291   0.10655   0.25000   0.00000  Uiso   1.00
O134   O     0.62709   0.22678   0.25000   0.00000  Uiso   1.00
O135   O     0.62706   0.10654   0.25001   0.00000  Uiso   1.00
O136   O     0.37294   0.22679   0.24999   0.00000  Uiso   1.00
O137   O     0.35186   0.16668   0.31491   0.00000  Uiso   1.00
O138   O     0.64814   0.16666   0.18509   0.00000  Uiso   1.00
O139   O     0.60600   0.16667   0.31492   0.00000  Uiso   1.00
O140   O     0.39400   0.16667   0.18508   0.00000  Uiso   1.00
C141   C     0.33835   0.11885   0.47709   0.00000  Uiso   1.00
O142   O     0.65602   0.09336   0.00713   0.00000  Uiso   1.00
O143   O     0.38833   0.12555   0.46076   0.00000  Uiso   1.00
H144   H     0.40740   0.10874   0.47762   0.00000  Uiso   1.00
C145   C     0.33379   0.23677   0.03016   0.00000  Uiso   1.00
O146   O     0.62341   0.23037   0.04008   0.00000  Uiso   1.00
O147   O     0.35371   0.27113   0.00338   0.00000  Uiso   1.00
H148   H     0.66190   0.28736   0.49322   0.00000  Uiso   1.00
C149   C     0.34297   0.04516   0.16496   0.00000  Uiso   1.00
H150   H     0.34206   0.07925   0.16832   0.00000  Uiso   1.00
H151   H     0.37823   0.03783   0.14075   0.00000  Uiso   1.00
H152   H     0.64621   0.03624   0.15061   0.00000  Uiso   1.00
C153   C     0.65689   0.28820   0.33516   0.00000  Uiso   1.00
H154   H     0.65777   0.25411   0.33179   0.00000  Uiso   1.00
H155   H     0.35363   0.29708   0.34954   0.00000  Uiso   1.00
H156   H     0.62163   0.29554   0.35935   0.00000  Uiso   1.00
C157   C     0.34387   0.28645   0.16648   0.00000  Uiso   1.00
H158   H     0.37605   0.26639   0.16097   0.00000  Uiso   1.00
H159   H     0.64453   0.26658   0.16996   0.00000  Uiso   1.00
H160   H     0.34867   0.30517   0.13549   0.00000  Uiso   1.00
C161   C     0.65612   0.04695   0.33362   0.00000  Uiso   1.00
H162   H     0.62393   0.06701   0.33917   0.00000  Uiso   1.00
H163   H     0.65136   0.02820   0.36458   0.00000  Uiso   1.00
H164   H     0.35542   0.06687   0.33015   0.00000  Uiso   1.00
C165   C     0.52970   0.10736   0.30449   0.00000  Uiso   1.00
O166   O     0.52851   0.11534   0.34337   0.00000  Uiso   1.00
O167   O     0.53968   0.06722   0.28807   0.00000  Uiso   1.00
H168   H     0.54738   0.04782   0.31098   0.00000  Uiso   1.00
C169   C     0.47059   0.22558   0.19494   0.00000  Uiso   1.00
O170   O     0.46024   0.26052   0.20918   0.00000  Uiso   1.00
O171   O     0.47452   0.21643   0.15000   0.00000  Uiso   1.00
H172   H     0.46576   0.24073   0.13301   0.00000  Uiso   1.00
C173   C     0.99980   0.08761   0.24985   0.00000  Uiso   1.00
C174   C     0.66684   0.24573   0.25022   0.00000  Uiso   1.00
C175   C     0.85926   0.15790   0.04821   0.00000  Uiso   1.00
C176   C     0.81240   0.19935   0.45637   0.00000  Uiso   1.00
C177   C     0.90674   0.14888   0.02586   0.00000  Uiso   1.00
C178   C     0.76529   0.20918   0.47942   0.00000  Uiso   1.00
C179   C     0.67109   0.02173   0.20886   0.00000  Uiso   1.00
C180   C     0.99550   0.31163   0.29125   0.00000  Uiso   1.00
C181   C     0.67164   0.31148   0.20923   0.00000  Uiso   1.00
C182   C     0.99499   0.02189   0.29087   0.00000  Uiso   1.00
C183   C     0.66719   0.29044   0.25033   0.00000  Uiso   1.00
C184   C     0.99944   0.04291   0.24976   0.00000  Uiso   1.00
C185   C     0.84927   0.13894   0.27611   0.00000  Uiso   1.00
C186   C     0.81743   0.19438   0.22387   0.00000  Uiso   1.00
C187   C     0.79999   0.13920   0.27592   0.00000  Uiso   1.00
C188   C     0.86672   0.19406   0.22400   0.00000  Uiso   1.00
C189   C     0.97268   0.16605   0.33606   0.00000  Uiso   1.00
C190   C     0.69396   0.16774   0.16398   0.00000  Uiso   1.00
C191   C     0.95762   0.16361   0.38535   0.00000  Uiso   1.00
C192   C     0.70914   0.17443   0.11521   0.00000  Uiso   1.00
C193   C     0.97174   0.14071   0.45556   0.00000  Uiso   1.00
C194   C     0.69833   0.20966   0.04904   0.00000  Uiso   1.00
C195   C     0.98824   0.14750   0.40906   0.00000  Uiso   1.00
C196   C     0.68006   0.19628   0.09378   0.00000  Uiso   1.00
C197   C     0.91069   0.17468   0.40815   0.00000  Uiso   1.00
C198   C     0.75609   0.16433   0.09162   0.00000  Uiso   1.00
C199   C     0.89261   0.16963   0.45495   0.00000  Uiso   1.00
C200   C     0.77670   0.17851   0.04744   0.00000  Uiso   1.00
C201   C     0.92380   0.15253   0.47901   0.00000  Uiso   1.00
C202   C     0.74666   0.19969   0.02517   0.00000  Uiso   1.00
C203   C     0.84401   0.18029   0.47817   0.00000  Uiso   1.00
C204   C     0.82634   0.17162   0.02491   0.00000  Uiso   1.00
Cu205  Cu    0.71355   0.16667   0.25000   0.00000  Uiso   1.00
Cu206  Cu    0.95311   0.16666   0.25000   0.00000  Uiso   1.00
H207   H     0.93004   0.13995   0.04630   0.00000  Uiso   1.00
H208   H     0.74312   0.22275   0.46013   0.00000  Uiso   1.00
H209   H     0.77592   0.14518   0.10883   0.00000  Uiso   1.00
H210   H     0.88878   0.18649   0.38795   0.00000  Uiso   1.00
H211   H     0.97735   0.20517   0.11285   0.00000  Uiso   1.00
H212   H     0.69094   0.13789   0.39076   0.00000  Uiso   1.00
H213   H     0.84991   0.15529   0.08437   0.00000  Uiso   1.00
H214   H     0.82277   0.20807   0.42138   0.00000  Uiso   1.00
H215   H     0.77443   0.11726   0.29661   0.00000  Uiso   1.00
H216   H     0.89233   0.21590   0.20319   0.00000  Uiso   1.00
N217   N     0.78403   0.16668   0.24999   0.00000  Uiso   1.00
N218   N     0.88264   0.16666   0.25001   0.00000  Uiso   1.00
O219   O     0.70625   0.10655   0.25000   0.00000  Uiso   1.00
O220   O     0.96042   0.22678   0.25000   0.00000  Uiso   1.00
O221   O     0.96039   0.10654   0.25001   0.00000  Uiso   1.00
O222   O     0.70628   0.22679   0.24999   0.00000  Uiso   1.00
O223   O     0.68519   0.16668   0.31491   0.00000  Uiso   1.00
O224   O     0.98148   0.16666   0.18509   0.00000  Uiso   1.00
O225   O     0.93933   0.16667   0.31492   0.00000  Uiso   1.00
O226   O     0.72733   0.16667   0.18508   0.00000  Uiso   1.00
C227   C     0.67169   0.11885   0.47709   0.00000  Uiso   1.00
O228   O     0.98936   0.09336   0.00713   0.00000  Uiso   1.00
O229   O     0.72166   0.12555   0.46076   0.00000  Uiso   1.00
H230   H     0.74073   0.10874   0.47762   0.00000  Uiso   1.00
C231   C     0.66713   0.23677   0.03016   0.00000  Uiso   1.00
O232   O     0.95674   0.23037   0.04008   0.00000  Uiso   1.00
O233   O     0.68704   0.27113   0.00338   0.00000  Uiso   1.00
H234   H     0.99524   0.28736   0.49322   0.00000  Uiso   1.00
C235   C     0.67630   0.04516   0.16496   0.00000  Uiso   1.00
H236   H     0.67539   0.07925   0.16832   0.00000  Uiso   1.00
H237   H     0.71156   0.03783   0.14075   0.00000  Uiso   1.00
H238   H     0.97954   0.03624   0.15061   0.00000  Uiso   1.00
C239   C     0.99022   0.28820   0.33516   0.00000  Uiso   1.00
H240   H     0.99111   0.25411   0.33179   0.00000  Uiso   1.00
H241   H     0.68697   0.29708   0.34954   0.00000  Uiso   1.00
H242   H     0.95496   0.29554   0.35935   0.00000  Uiso   1.00
C243   C     0.67720   0.28645   0.16648   0.00000  Uiso   1.00
H244   H     0.70938   0.26639   0.16097   0.00000  Uiso   1.00
H245   H     0.97786   0.26658   0.16996   0.00000  Uiso   1.00
H246   H     0.68201   0.30517   0.13549   0.00000  Uiso   1.00
C247   C     0.98945   0.04695   0.33362   0.00000  Uiso   1.00
H248   H     0.95726   0.06701   0.33917   0.00000  Uiso   1.00
H249   H     0.98469   0.02820   0.36458   0.00000  Uiso   1.00
H250   H     0.68876   0.06687   0.33015   0.00000  Uiso   1.00
C251   C     0.86303   0.10736   0.30449   0.00000  Uiso   1.00
O252   O     0.86184   0.11534   0.34337   0.00000  Uiso   1.00
O253   O     0.87301   0.06722   0.28807   0.00000  Uiso   1.00
H254   H     0.88071   0.04782   0.31098   0.00000  Uiso   1.00
C255   C     0.80393   0.22558   0.19494   0.00000  Uiso   1.00
O256   O     0.79357   0.26052   0.20918   0.00000  Uiso   1.00
O257   O     0.80785   0.21643   0.15000   0.00000  Uiso   1.00
H258   H     0.79910   0.24073   0.13301   0.00000  Uiso   1.00
C259   C     0.33313   0.42095   0.24985   0.00000  Uiso   1.00
C260   C     0.00018   0.57906   0.25022   0.00000  Uiso   1.00
C261   C     0.19259   0.49123   0.04821   0.00000  Uiso   1.00
C262   C     0.14573   0.53268   0.45637   0.00000  Uiso   1.00
C263   C     0.24007   0.48221   0.02586   0.00000  Uiso   1.00
C264   C     0.09862   0.54251   0.47942   0.00000  Uiso   1.00
C265   C     0.00442   0.35506   0.20886   0.00000  Uiso   1.00
C266   C     0.32883   0.64497   0.29125   0.00000  Uiso   1.00
C267   C     0.00497   0.64482   0.20923   0.00000  Uiso   1.00
C268   C     0.32833   0.35522   0.29087   0.00000  Uiso   1.00
C269   C     0.00052   0.62378   0.25033   0.00000  Uiso   1.00
C270   C     0.33277   0.37625   0.24976   0.00000  Uiso   1.00
C271   C     0.18260   0.47227   0.27611   0.00000  Uiso   1.00
C272   C     0.15076   0.52771   0.22387   0.00000  Uiso   1.00
C273   C     0.13332   0.47253   0.27592   0.00000  Uiso   1.00
C274   C     0.20005   0.52740   0.22400   0.00000  Uiso   1.00
C275   C     0.30602   0.49938   0.33606   0.00000  Uiso   1.00
C276   C     0.02730   0.50107   0.16398   0.00000  Uiso   1.00
C277   C     0.29095   0.49694   0.38535   0.00000  Uiso   1.00
C278   C     0.04248   0.50776   0.11521   0.00000  Uiso   1.00
C279   C     0.30508   0.47405   0.45556   0.00000  Uiso   1.00
C280   C     0.03166   0.54299   0.04904   0.00000  Uiso   1.00
C281   C     0.32157   0.48083   0.40906   0.00000  Uiso   1.00
C282   C     0.01340   0.52961   0.09378   0.00000  Uiso   1.00
C283   C     0.24402   0.50801   0.40815   0.00000  Uiso   1.00
C284   C     0.08942   0.49766   0.09162   0.00000  Uiso   1.00
C285   C     0.22594   0.50296   0.45495   0.00000  Uiso   1.00
C286   C     0.11003   0.51184   0.04744   0.00000  Uiso   1.00
C287   C     0.25714   0.48586   0.47901   0.00000  Uiso   1.00
C288   C     0.07999   0.53302   0.02517   0.00000  Uiso   1.00
C289   C     0.17734   0.51362   0.47817   0.00000  Uiso   1.00
C290   C     0.15967   0.50496   0.02491   0.00000  Uiso   1.00
Cu291  Cu    0.04689   0.50001   0.25000   0.00000  Uiso   1.00
Cu292  Cu    0.28645   0.49999   0.25000   0.00000  Uiso   1.00
H293   H     0.26337   0.47328   0.04630   0.00000  Uiso   1.00
H294   H     0.07646   0.55609   0.46013   0.00000  Uiso   1.00
H295   H     0.10926   0.47851   0.10883   0.00000  Uiso   1.00
H296   H     0.22211   0.51982   0.38795   0.00000  Uiso   1.00
H297   H     0.31068   0.53850   0.11285   0.00000  Uiso   1.00
H298   H     0.02427   0.47122   0.39076   0.00000  Uiso   1.00
H299   H     0.18324   0.48862   0.08437   0.00000  Uiso   1.00
H300   H     0.15610   0.54141   0.42138   0.00000  Uiso   1.00
H301   H     0.10776   0.45059   0.29661   0.00000  Uiso   1.00
H302   H     0.22566   0.54923   0.20319   0.00000  Uiso   1.00
N303   N     0.11736   0.50001   0.24999   0.00000  Uiso   1.00
N304   N     0.21597   0.49999   0.25001   0.00000  Uiso   1.00
O305   O     0.03958   0.43989   0.25000   0.00000  Uiso   1.00
O306   O     0.29375   0.56011   0.25000   0.00000  Uiso   1.00
O307   O     0.29372   0.43988   0.25001   0.00000  Uiso   1.00
O308   O     0.03961   0.56012   0.24999   0.00000  Uiso   1.00
O309   O     0.01852   0.50001   0.31491   0.00000  Uiso   1.00
O310   O     0.31481   0.49999   0.18509   0.00000  Uiso   1.00
O311   O     0.27267   0.50000   0.31492   0.00000  Uiso   1.00
O312   O     0.06067   0.50000   0.18508   0.00000  Uiso   1.00
C313   C     0.00502   0.45219   0.47709   0.00000  Uiso   1.00
O314   O     0.32269   0.42669   0.00713   0.00000  Uiso   1.00
O315   O     0.05500   0.45888   0.46076   0.00000  Uiso   1.00
H316   H     0.07406   0.44208   0.47762   0.00000  Uiso   1.00
C317   C     0.00046   0.57010   0.03016   0.00000  Uiso   1.00
O318   O     0.29007   0.56370   0.04008   0.00000  Uiso   1.00
O319   O     0.02038   0.60446   0.00338   0.00000  Uiso   1.00
H320   H     0.32857   0.62069   0.49322   0.00000  Uiso   1.00
C321   C     0.00964   0.37849   0.16496   0.00000  Uiso   1.00
H322   H     0.00873   0.41259   0.16832   0.00000  Uiso   1.00
H323   H     0.04490   0.37117   0.14075   0.00000  Uiso   1.00
H324   H     0.31288   0.36957   0.15061   0.00000  Uiso   1.00
C325   C     0.32356   0.62154   0.33516   0.00000  Uiso   1.00
H326   H     0.32444   0.58744   0.33179   0.00000  Uiso   1.00
H327   H     0.02030   0.63042   0.34954   0.00000  Uiso   1.00
H328   H     0.28829   0.62888   0.35935   0.00000  Uiso   1.00
C329   C     0.01054   0.61979   0.16648   0.00000  Uiso   1.00
H330   H     0.04271   0.59972   0.16097   0.00000  Uiso   1.00
H331   H     0.31120   0.59991   0.16996   0.00000  Uiso   1.00
H332   H     0.01534   0.63850   0.13549   0.00000  Uiso   1.00
C333   C     0.32278   0.38028   0.33362   0.00000  Uiso   1.00
H334   H     0.29060   0.40035   0.33917   0.00000  Uiso   1.00
H335   H     0.31803   0.36154   0.36458   0.00000  Uiso   1.00
H336   H     0.02209   0.40020   0.33015   0.00000  Uiso   1.00
C337   C     0.19636   0.44070   0.30449   0.00000  Uiso   1.00
O338   O     0.19517   0.44867   0.34337   0.00000  Uiso   1.00
O339   O     0.20635   0.40055   0.28807   0.00000  Uiso   1.00
H340   H     0.21404   0.38115   0.31098   0.00000  Uiso   1.00
C341   C     0.13726   0.55891   0.19494   0.00000  Uiso   1.00
O342   O     0.12690   0.59385   0.20918   0.00000  Uiso   1.00
O343   O     0.14119   0.54977   0.15000   0.00000  Uiso   1.00
H344   H     0.13243   0.57407   0.13301   0.00000  Uiso   1.00
C345   C     0.66647   0.42095   0.24985   0.00000  Uiso   1.00
C346   C     0.33351   0.57906   0.25022   0.00000  Uiso   1.00
C347   C     0.52593   0.49123   0.04821   0.00000  Uiso   1.00
C348   C     0.47907   0.53268   0.45637   0.00000  Uiso   1.00
C349   C     0.57341   0.48221   0.02586   0.00000  Uiso   1.00
C350   C     0.43196   0.54251   0.47942   0.00000  Uiso   1.00
C351   C     0.33776   0.35506   0.20886   0.00000  Uiso   1.00
C352   C     0.66217   0.64497   0.29125   0.00000  Uiso   1.00
C353   C     0.33831   0.64482   0.20923   0.00000  Uiso   1.00
C354   C     0.66166   0.35522   0.29087   0.00000  Uiso   1.00
C355   C     0.33385   0.62378   0.25033   0.00000  Uiso   1.00
C356   C     0.66611   0.37625   0.24976   0.00000  Uiso   1.00
C357   C     0.51594   0.47227   0.27611   0.00000  Uiso   1.00
C358   C     0.48410   0.52771   0.22387   0.00000  Uiso   1.00
C359   C     0.46666   0.47253   0.27592   0.00000  Uiso   1.00
C360   C     0.53338   0.52740   0.22400   0.00000  Uiso   1.00
C361   C     0.63935   0.49938   0.33606   0.00000  Uiso   1.00
C362   C     0.36063   0.50107   0.16398   0.00000  Uiso   1.00
C363   C     0.62428   0.49694   0.38535   0.00000  Uiso   1.00
C364   C     0.37581   0.50776   0.11521   0.00000  Uiso   1.00
C365   C     0.63841   0.47405   0.45556   0.00000  Uiso   1.00
C366   C     0.36499   0.54299   0.04904   0.00000  Uiso   1.00
C367   C     0.65491   0.48083   0.40906   0.00000  Uiso   1.00
C368   C     0.34673   0.52961   0.09378   0.00000  Uiso   1.00
C369   C     0.57736   0.50801   0.40815   0.00000  Uiso   1.00
C370   C     0.42276   0.49766   0.09162   0.00000  Uiso   1.00
C371   C     0.55928   0.50296   0.45495   0.00000  Uiso   1.00
C372   C     0.44337   0.51184   0.04744   0.00000  Uiso   1.00
C373   C     0.59047   0.48586   0.47901   0.00000  Uiso   1.00
C374   C     0.41333   0.53302   0.02517   0.00000  Uiso   1.00
C375   C     0.51067   0.51362   0.47817   0.00000  Uiso   1.00
C376   C     0.49301   0.50496   0.02491   0.00000  Uiso   1.00
Cu377  Cu    0.38022   0.50001   0.25000   0.00000  Uiso   1.00
Cu378  Cu    0.61978   0.49999   0.25000   0.00000  Uiso   1.00
H379   H     0.59670   0.47328   0.04630   0.00000  Uiso   1.00
H380   H     0.40979   0.55609   0.46013   0.00000  Uiso   1.00
H381   H     0.44259   0.47851   0.10883   0.00000  Uiso   1.00
H382   H     0.55545   0.51982   0.38795   0.00000  Uiso   1.00
H383   H     0.64401   0.53850   0.11285   0.00000  Uiso   1.00
H384   H     0.35761   0.47122   0.39076   0.00000  Uiso   1.00
H385   H     0.51657   0.48862   0.08437   0.00000  Uiso   1.00
H386   H     0.48943   0.54141   0.42138   0.00000  Uiso   1.00
H387   H     0.44109   0.45059   0.29661   0.00000  Uiso   1.00
H388   H     0.55899   0.54923   0.20319   0.00000  Uiso   1.00
N389   N     0.45069   0.50001   0.24999   0.00000  Uiso   1.00
N390   N     0.54931   0.49999   0.25001   0.00000  Uiso   1.00
O391   O     0.37291   0.43989   0.25000   0.00000  Uiso   1.00
O392   O     0.62709   0.56011   0.25000   0.00000  Uiso   1.00
O393   O     0.62706   0.43988   0.25001   0.00000  Uiso   1.00
O394   O     0.37294   0.56012   0.24999   0.00000  Uiso   1.00
O395   O     0.35186   0.50001   0.31491   0.00000  Uiso   1.00
O396   O     0.64814   0.49999   0.18509   0.00000  Uiso   1.00
O397   O     0.60600   0.50000   0.31492   0.00000  Uiso   1.00
O398   O     0.39400   0.50000   0.18508   0.00000  Uiso   1.00
C399   C     0.33835   0.45219   0.47709   0.00000  Uiso   1.00
O400   O     0.65602   0.42669   0.00713   0.00000  Uiso   1.00
O401   O     0.38833   0.45888   0.46076   0.00000  Uiso   1.00
H402   H     0.40740   0.44208   0.47762   0.00000  Uiso   1.00
C403   C     0.33379   0.57010   0.03016   0.00000  Uiso   1.00
O404   O     0.62341   0.56370   0.04008   0.00000  Uiso   1.00
O405   O     0.35371   0.60446   0.00338   0.00000  Uiso   1.00
H406   H     0.66190   0.62069   0.49322   0.00000  Uiso   1.00
C407   C     0.34297   0.37849   0.16496   0.00000  Uiso   1.00
H408   H     0.34206   0.41259   0.16832   0.00000  Uiso   1.00
H409   H     0.37823   0.37117   0.14075   0.00000  Uiso   1.00
H410   H     0.64621   0.36957   0.15061   0.00000  Uiso   1.00
C411   C     0.65689   0.62154   0.33516   0.00000  Uiso   1.00
H412   H     0.65777   0.58744   0.33179   0.00000  Uiso   1.00
H413   H     0.35363   0.63042   0.34954   0.00000  Uiso   1.00
H414   H     0.62163   0.62888   0.35935   0.00000  Uiso   1.00
C415   C     0.34387   0.61979   0.16648   0.00000  Uiso   1.00
H416   H     0.37605   0.59972   0.16097   0.00000  Uiso   1.00
H417   H     0.64453   0.59991   0.16996   0.00000  Uiso   1.00
H418   H     0.34867   0.63850   0.13549   0.00000  Uiso   1.00
C419   C     0.65612   0.38028   0.33362   0.00000  Uiso   1.00
H420   H     0.62393   0.40035   0.33917   0.00000  Uiso   1.00
H421   H     0.65136   0.36154   0.36458   0.00000  Uiso   1.00
H422   H     0.35542   0.40020   0.33015   0.00000  Uiso   1.00
C423   C     0.52970   0.44070   0.30449   0.00000  Uiso   1.00
O424   O     0.52851   0.44867   0.34337   0.00000  Uiso   1.00
O425   O     0.53968   0.40055   0.28807   0.00000  Uiso   1.00
H426   H     0.54738   0.38115   0.31098   0.00000  Uiso   1.00
C427   C     0.47059   0.55891   0.19494   0.00000  Uiso   1.00
O428   O     0.46024   0.59385   0.20918   0.00000  Uiso   1.00
O429   O     0.47452   0.54977   0.15000   0.00000  Uiso   1.00
H430   H     0.46576   0.57407   0.13301   0.00000  Uiso   1.00
C431   C     0.99980   0.42095   0.24985   0.00000  Uiso   1.00
C432   C     0.66684   0.57906   0.25022   0.00000  Uiso   1.00
C433   C     0.85926   0.49123   0.04821   0.00000  Uiso   1.00
C434   C     0.81240   0.53268   0.45637   0.00000  Uiso   1.00
C435   C     0.90674   0.48221   0.02586   0.00000  Uiso   1.00
C436   C     0.76529   0.54251   0.47942   0.00000  Uiso   1.00
C437   C     0.67109   0.35506   0.20886   0.00000  Uiso   1.00
C438   C     0.99550   0.64497   0.29125   0.00000  Uiso   1.00
C439   C     0.67164   0.64482   0.20923   0.00000  Uiso   1.00
C440   C     0.99499   0.35522   0.29087   0.00000  Uiso   1.00
C441   C     0.66719   0.62378   0.25033   0.00000  Uiso   1.00
C442   C     0.99944   0.37625   0.24976   0.00000  Uiso   1.00
C443   C     0.84927   0.47227   0.27611   0.00000  Uiso   1.00
C444   C     0.81743   0.52771   0.22387   0.00000  Uiso   1.00
C445   C     0.79999   0.47253   0.27592   0.00000  Uiso   1.00
C446   C     0.86672   0.52740   0.22400   0.00000  Uiso   1.00
C447   C     0.97268   0.49938   0.33606   0.00000  Uiso   1.00
C448   C     0.69396   0.50107   0.16398   0.00000  Uiso   1.00
C449   C     0.95762   0.49694   0.38535   0.00000  Uiso   1.00
C450   C     0.70914   0.50776   0.11521   0.00000  Uiso   1.00
C451   C     0.97174   0.47405   0.45556   0.00000  Uiso   1.00
C452   C     0.69833   0.54299   0.04904   0.00000  Uiso   1.00
C453   C     0.98824   0.48083   0.40906   0.00000  Uiso   1.00
C454   C     0.68006   0.52961   0.09378   0.00000  Uiso   1.00
C455   C     0.91069   0.50801   0.40815   0.00000  Uiso   1.00
C456   C     0.75609   0.49766   0.09162   0.00000  Uiso   1.00
C457   C     0.89261   0.50296   0.45495   0.00000  Uiso   1.00
C458   C     0.77670   0.51184   0.04744   0.00000  Uiso   1.00
C459   C     0.92380   0.48586   0.47901   0.00000  Uiso   1.00
C460   C     0.74666   0.53302   0.02517   0.00000  Uiso   1.00
C461   C     0.84401   0.51362   0.47817   0.00000  Uiso   1.00
C462   C     0.82634   0.50496   0.02491   0.00000  Uiso   1.00
Cu463  Cu    0.71355   0.50001   0.25000   0.00000  Uiso   1.00
Cu464  Cu    0.95311   0.49999   0.25000   0.00000  Uiso   1.00
H465   H     0.93004   0.47328   0.04630   0.00000  Uiso   1.00
H466   H     0.74312   0.55609   0.46013   0.00000  Uiso   1.00
H467   H     0.77592   0.47851   0.10883   0.00000  Uiso   1.00
H468   H     0.88878   0.51982   0.38795   0.00000  Uiso   1.00
H469   H     0.97735   0.53850   0.11285   0.00000  Uiso   1.00
H470   H     0.69094   0.47122   0.39076   0.00000  Uiso   1.00
H471   H     0.84991   0.48862   0.08437   0.00000  Uiso   1.00
H472   H     0.82277   0.54141   0.42138   0.00000  Uiso   1.00
H473   H     0.77443   0.45059   0.29661   0.00000  Uiso   1.00
H474   H     0.89233   0.54923   0.20319   0.00000  Uiso   1.00
N475   N     0.78403   0.50001   0.24999   0.00000  Uiso   1.00
N476   N     0.88264   0.49999   0.25001   0.00000  Uiso   1.00
O477   O     0.70625   0.43989   0.25000   0.00000  Uiso   1.00
O478   O     0.96042   0.56011   0.25000   0.00000  Uiso   1.00
O479   O     0.96039   0.43988   0.25001   0.00000  Uiso   1.00
O480   O     0.70628   0.56012   0.24999   0.00000  Uiso   1.00
O481   O     0.68519   0.50001   0.31491   0.00000  Uiso   1.00
O482   O     0.98148   0.49999   0.18509   0.00000  Uiso   1.00
O483   O     0.93933   0.50000   0.31492   0.00000  Uiso   1.00
O484   O     0.72733   0.50000   0.18508   0.00000  Uiso   1.00
C485   C     0.67169   0.45219   0.47709   0.00000  Uiso   1.00
O486   O     0.98936   0.42669   0.00713   0.00000  Uiso   1.00
O487   O     0.72166   0.45888   0.46076   0.00000  Uiso   1.00
H488   H     0.74073   0.44208   0.47762   0.00000  Uiso   1.00
C489   C     0.66713   0.57010   0.03016   0.00000  Uiso   1.00
O490   O     0.95674   0.56370   0.04008   0.00000  Uiso   1.00
O491   O     0.68704   0.60446   0.00338   0.00000  Uiso   1.00
H492   H     0.99524   0.62069   0.49322   0.00000  Uiso   1.00
C493   C     0.67630   0.37849   0.16496   0.00000  Uiso   1.00
H494   H     0.67539   0.41259   0.16832   0.00000  Uiso   1.00
H495   H     0.71156   0.37117   0.14075   0.00000  Uiso   1.00
H496   H     0.97954   0.36957   0.15061   0.00000  Uiso   1.00
C497   C     0.99022   0.62154   0.33516   0.00000  Uiso   1.00
H498   H     0.99111   0.58744   0.33179   0.00000  Uiso   1.00
H499   H     0.68697   0.63042   0.34954   0.00000  Uiso   1.00
H500   H     0.95496   0.62888   0.35935   0.00000  Uiso   1.00
C501   C     0.67720   0.61979   0.16648   0.00000  Uiso   1.00
H502   H     0.70938   0.59972   0.16097   0.00000  Uiso   1.00
H503   H     0.97786   0.59991   0.16996   0.00000  Uiso   1.00
H504   H     0.68201   0.63850   0.13549   0.00000  Uiso   1.00
C505   C     0.98945   0.38028   0.33362   0.00000  Uiso   1.00
H506   H     0.95726   0.40035   0.33917   0.00000  Uiso   1.00
H507   H     0.98469   0.36154   0.36458   0.00000  Uiso   1.00
H508   H     0.68876   0.40020   0.33015   0.00000  Uiso   1.00
C509   C     0.86303   0.44070   0.30449   0.00000  Uiso   1.00
O510   O     0.86184   0.44867   0.34337   0.00000  Uiso   1.00
O511   O     0.87301   0.40055   0.28807   0.00000  Uiso   1.00
H512   H     0.88071   0.38115   0.31098   0.00000  Uiso   1.00
C513   C     0.80393   0.55891   0.19494   0.00000  Uiso   1.00
O514   O     0.79357   0.59385   0.20918   0.00000  Uiso   1.00
O515   O     0.80785   0.54977   0.15000   0.00000  Uiso   1.00
H516   H     0.79910   0.57407   0.13301   0.00000  Uiso   1.00
C517   C     0.33313   0.75428   0.24985   0.00000  Uiso   1.00
C518   C     0.00018   0.91239   0.25022   0.00000  Uiso   1.00
C519   C     0.19259   0.82456   0.04821   0.00000  Uiso   1.00
C520   C     0.14573   0.86601   0.45637   0.00000  Uiso   1.00
C521   C     0.24007   0.81555   0.02586   0.00000  Uiso   1.00
C522   C     0.09862   0.87584   0.47942   0.00000  Uiso   1.00
C523   C     0.00442   0.68839   0.20886   0.00000  Uiso   1.00
C524   C     0.32883   0.97830   0.29125   0.00000  Uiso   1.00
C525   C     0.00497   0.97815   0.20923   0.00000  Uiso   1.00
C526   C     0.32833   0.68855   0.29087   0.00000  Uiso   1.00
C527   C     0.00052   0.95711   0.25033   0.00000  Uiso   1.00
C528   C     0.33277   0.70958   0.24976   0.00000  Uiso   1.00
C529   C     0.18260   0.80561   0.27611   0.00000  Uiso   1.00
C530   C     0.15076   0.86104   0.22387   0.00000  Uiso   1.00
C531   C     0.13332   0.80586   0.27592   0.00000  Uiso   1.00
C532   C     0.20005   0.86073   0.22400   0.00000  Uiso   1.00
C533   C     0.30602   0.83271   0.33606   0.00000  Uiso   1.00
C534   C     0.02730   0.83440   0.16398   0.00000  Uiso   1.00
C535   C     0.29095   0.83028   0.38535   0.00000  Uiso   1.00
C536   C     0.04248   0.84110   0.11521   0.00000  Uiso   1.00
C537   C     0.30508   0.80738   0.45556   0.00000  Uiso   1.00
C538   C     0.03166   0.87632   0.04904   0.00000  Uiso   1.00
C539   C     0.32157   0.81416   0.40906   0.00000  Uiso   1.00
C540   C     0.01340   0.86295   0.09378   0.00000  Uiso   1.00
C541   C     0.24402   0.84134   0.40815   0.00000  Uiso   1.00
C542   C     0.08942   0.83100   0.09162   0.00000  Uiso   1.00
C543   C     0.22594   0.83630   0.45495   0.00000  Uiso   1.00
C544   C     0.11003   0.84518   0.04744   0.00000  Uiso   1.00
C545   C     0.25714   0.81920   0.47901   0.00000  Uiso   1.00
C546   C     0.07999   0.86635   0.02517   0.00000  Uiso   1.00
C547   C     0.17734   0.84695   0.47817   0.00000  Uiso   1.00
C548   C     0.15967   0.83829   0.02491   0.00000  Uiso   1.00
Cu549  Cu    0.04689   0.83334   0.25000   0.00000  Uiso   1.00
Cu550  Cu    0.28645   0.83333   0.25000   0.00000  Uiso   1.00
H551   H     0.26337   0.80661   0.04630   0.00000  Uiso   1.00
H552   H     0.07646   0.88942   0.46013   0.00000  Uiso   1.00
H553   H     0.10926   0.81185   0.10883   0.00000  Uiso   1.00
H554   H     0.22211   0.85316   0.38795   0.00000  Uiso   1.00
H555   H     0.31068   0.87183   0.11285   0.00000  Uiso   1.00
H556   H     0.02427   0.80456   0.39076   0.00000  Uiso   1.00
H557   H     0.18324   0.82196   0.08437   0.00000  Uiso   1.00
H558   H     0.15610   0.87474   0.42138   0.00000  Uiso   1.00
H559   H     0.10776   0.78393   0.29661   0.00000  Uiso   1.00
H560   H     0.22566   0.88256   0.20319   0.00000  Uiso   1.00
N561   N     0.11736   0.83334   0.24999   0.00000  Uiso   1.00
N562   N     0.21597   0.83332   0.25001   0.00000  Uiso   1.00
O563   O     0.03958   0.77322   0.25000   0.00000  Uiso   1.00
O564   O     0.29375   0.89345   0.25000   0.00000  Uiso   1.00
O565   O     0.29372   0.77321   0.25001   0.00000  Uiso   1.00
O566   O     0.03961   0.89346   0.24999   0.00000  Uiso   1.00
O567   O     0.01852   0.83334   0.31491   0.00000  Uiso   1.00
O568   O     0.31481   0.83332   0.18509   0.00000  Uiso   1.00
O569   O     0.27267   0.83333   0.31492   0.00000  Uiso   1.00
O570   O     0.06067   0.83333   0.18508   0.00000  Uiso   1.00
C571   C     0.00502   0.78552   0.47709   0.00000  Uiso   1.00
O572   O     0.32269   0.76003   0.00713   0.00000  Uiso   1.00
O573   O     0.05500   0.79221   0.46076   0.00000  Uiso   1.00
H574   H     0.07406   0.77541   0.47762   0.00000  Uiso   1.00
C575   C     0.00046   0.90344   0.03016   0.00000  Uiso   1.00
O576   O     0.29007   0.89704   0.04008   0.00000  Uiso   1.00
O577   O     0.02038   0.93779   0.00338   0.00000  Uiso   1.00
H578   H     0.32857   0.95403   0.49322   0.00000  Uiso   1.00
C579   C     0.00964   0.71182   0.16496   0.00000  Uiso   1.00
H580   H     0.00873   0.74592   0.16832   0.00000  Uiso   1.00
H581   H     0.04490   0.70450   0.14075   0.00000  Uiso   1.00
H582   H     0.31288   0.70291   0.15061   0.00000  Uiso   1.00
C583   C     0.32356   0.95487   0.33516   0.00000  Uiso   1.00
H584   H     0.32444   0.92077   0.33179   0.00000  Uiso   1.00
H585   H     0.02030   0.96375   0.34954   0.00000  Uiso   1.00
H586   H     0.28829   0.96221   0.35935   0.00000  Uiso   1.00
C587   C     0.01054   0.95312   0.16648   0.00000  Uiso   1.00
H588   H     0.04271   0.93305   0.16097   0.00000  Uiso   1.00
H589   H     0.31120   0.93325   0.16996   0.00000  Uiso   1.00
H590   H     0.01534   0.97183   0.13549   0.00000  Uiso   1.00
C591   C     0.32278   0.71361   0.33362   0.00000  Uiso   1.00
H592   H     0.29060   0.73368   0.33917   0.00000  Uiso   1.00
H593   H     0.31803   0.69487   0.36458   0.00000  Uiso   1.00
H594   H     0.02209   0.73353   0.33015   0.00000  Uiso   1.00
C595   C     0.19636   0.77403   0.30449   0.00000  Uiso   1.00
O596   O     0.19517   0.78200   0.34337   0.00000  Uiso   1.00
O597   O     0.20635   0.73389   0.28807   0.00000  Uiso   1.00
H598   H     0.21404   0.71448   0.31098   0.00000  Uiso   1.00
C599   C     0.13726   0.89224   0.19494   0.00000  Uiso   1.00
O600   O     0.12690   0.92718   0.20918   0.00000  Uiso   1.00
O601   O     0.14119   0.88310   0.15000   0.00000  Uiso   1.00
H602   H     0.13243   0.90740   0.13301   0.00000  Uiso   1.00
C603   C     0.66647   0.75428   0.24985   0.00000  Uiso   1.00
C604   C     0.33351   0.91239   0.25022   0.00000  Uiso   1.00
C605   C     0.52593   0.82456   0.04821   0.00000  Uiso   1.00
C606   C     0.47907   0.86601   0.45637   0.00000  Uiso   1.00
C607   C     0.57341   0.81555   0.02586   0.00000  Uiso   1.00
C608   C     0.43196   0.87584   0.47942   0.00000  Uiso   1.00
C609   C     0.33776   0.68839   0.20886   0.00000  Uiso   1.00
C610   C     0.66217   0.97830   0.29125   0.00000  Uiso   1.00
C611   C     0.33831   0.97815   0.20923   0.00000  Uiso   1.00
C612   C     0.66166   0.68855   0.29087   0.00000  Uiso   1.00
C613   C     0.33385   0.95711   0.25033   0.00000  Uiso   1.00
C614   C     0.66611   0.70958   0.24976   0.00000  Uiso   1.00
C615   C     0.51594   0.80561   0.27611   0.00000  Uiso   1.00
C616   C     0.48410   0.86104   0.22387   0.00000  Uiso   1.00
C617   C     0.46666   0.80586   0.27592   0.00000  Uiso   1.00
C618   C     0.53338   0.86073   0.22400   0.00000  Uiso   1.00
C619   C     0.63935   0.83271   0.33606   0.00000  Uiso   1.00
C620   C     0.36063   0.83440   0.16398   0.00000  Uiso   1.00
C621   C     0.62428   0.83028   0.38535   0.00000  Uiso   1.00
C622   C     0.37581   0.84110   0.11521   0.00000  Uiso   1.00
C623   C     0.63841   0.80738   0.45556   0.00000  Uiso   1.00
C624   C     0.36499   0.87632   0.04904   0.00000  Uiso   1.00
C625   C     0.65491   0.81416   0.40906   0.00000  Uiso   1.00
C626   C     0.34673   0.86295   0.09378   0.00000  Uiso   1.00
C627   C     0.57736   0.84134   0.40815   0.00000  Uiso   1.00
C628   C     0.42276   0.83100   0.09162   0.00000  Uiso   1.00
C629   C     0.55928   0.83630   0.45495   0.00000  Uiso   1.00
C630   C     0.44337   0.84518   0.04744   0.00000  Uiso   1.00
C631   C     0.59047   0.81920   0.47901   0.00000  Uiso   1.00
C632   C     0.41333   0.86635   0.02517   0.00000  Uiso   1.00
C633   C     0.51067   0.84695   0.47817   0.00000  Uiso   1.00
C634   C     0.49301   0.83829   0.02491   0.00000  Uiso   1.00
Cu635  Cu    0.38022   0.83334   0.25000   0.00000  Uiso   1.00
Cu636  Cu    0.61978   0.83333   0.25000   0.00000  Uiso   1.00
H637   H     0.59670   0.80661   0.04630   0.00000  Uiso   1.00
H638   H     0.40979   0.88942   0.46013   0.00000  Uiso   1.00
H639   H     0.44259   0.81185   0.10883   0.00000  Uiso   1.00
H640   H     0.55545   0.85316   0.38795   0.00000  Uiso   1.00
H641   H     0.64401   0.87183   0.11285   0.00000  Uiso   1.00
H642   H     0.35761   0.80456   0.39076   0.00000  Uiso   1.00
H643   H     0.51657   0.82196   0.08437   0.00000  Uiso   1.00
H644   H     0.48943   0.87474   0.42138   0.00000  Uiso   1.00
H645   H     0.44109   0.78393   0.29661   0.00000  Uiso   1.00
H646   H     0.55899   0.88256   0.20319   0.00000  Uiso   1.00
N647   N     0.45069   0.83334   0.24999   0.00000  Uiso   1.00
N648   N     0.54931   0.83332   0.25001   0.00000  Uiso   1.00
O649   O     0.37291   0.77322   0.25000   0.00000  Uiso   1.00
O650   O     0.62709   0.89345   0.25000   0.00000  Uiso   1.00
O651   O     0.62706   0.77321   0.25001   0.00000  Uiso   1.00
O652   O     0.37294   0.89346   0.24999   0.00000  Uiso   1.00
O653   O     0.35186   0.83334   0.31491   0.00000  Uiso   1.00
O654   O     0.64814   0.83332   0.18509   0.00000  Uiso   1.00
O655   O     0.60600   0.83333   0.31492   0.00000  Uiso   1.00
O656   O     0.39400   0.83333   0.18508   0.00000  Uiso   1.00
C657   C     0.33835   0.78552   0.47709   0.00000  Uiso   1.00
O658   O     0.65602   0.76003   0.00713   0.00000  Uiso   1.00
O659   O     0.38833   0.79221   0.46076   0.00000  Uiso   1.00
H660   H     0.40740   0.77541   0.47762   0.00000  Uiso   1.00
C661   C     0.33379   0.90344   0.03016   0.00000  Uiso   1.00
O662   O     0.62341   0.89704   0.04008   0.00000  Uiso   1.00
O663   O     0.35371   0.93779   0.00338   0.00000  Uiso   1.00
H664   H     0.66190   0.95403   0.49322   0.00000  Uiso   1.00
C665   C     0.34297   0.71182   0.16496   0.00000  Uiso   1.00
H666   H     0.34206   0.74592   0.16832   0.00000  Uiso   1.00
H667   H     0.37823   0.70450   0.14075   0.00000  Uiso   1.00
H668   H     0.64621   0.70291   0.15061   0.00000  Uiso   1.00
C669   C     0.65689   0.95487   0.33516   0.00000  Uiso   1.00
H670   H     0.65777   0.92077   0.33179   0.00000  Uiso   1.00
H671   H     0.35363   0.96375   0.34954   0.00000  Uiso   1.00
H672   H     0.62163   0.96221   0.35935   0.00000  Uiso   1.00
C673   C     0.34387   0.95312   0.16648   0.00000  Uiso   1.00
H674   H     0.37605   0.93305   0.16097   0.00000  Uiso   1.00
H675   H     0.64453   0.93325   0.16996   0.00000  Uiso   1.00
H676   H     0.34867   0.97183   0.13549   0.00000  Uiso   1.00
C677   C     0.65612   0.71361   0.33362   0.00000  Uiso   1.00
H678   H     0.62393   0.73368   0.33917   0.00000  Uiso   1.00
H679   H     0.65136   0.69487   0.36458   0.00000  Uiso   1.00
H680   H     0.35542   0.73353   0.33015   0.00000  Uiso   1.00
C681   C     0.52970   0.77403   0.30449   0.00000  Uiso   1.00
O682   O     0.52851   0.78200   0.34337   0.00000  Uiso   1.00
O683   O     0.53968   0.73389   0.28807   0.00000  Uiso   1.00
H684   H     0.54738   0.71448   0.31098   0.00000  Uiso   1.00
C685   C     0.47059   0.89224   0.19494   0.00000  Uiso   1.00
O686   O     0.46024   0.92718   0.20918   0.00000  Uiso   1.00
O687   O     0.47452   0.88310   0.15000   0.00000  Uiso   1.00
H688   H     0.46576   0.90740   0.13301   0.00000  Uiso   1.00
C689   C     0.99980   0.75428   0.24985   0.00000  Uiso   1.00
C690   C     0.66684   0.91239   0.25022   0.00000  Uiso   1.00
C691   C     0.85926   0.82456   0.04821   0.00000  Uiso   1.00
C692   C     0.81240   0.86601   0.45637   0.00000  Uiso   1.00
C693   C     0.90674   0.81555   0.02586   0.00000  Uiso   1.00
C694   C     0.76529   0.87584   0.47942   0.00000  Uiso   1.00
C695   C     0.67109   0.68839   0.20886   0.00000  Uiso   1.00
C696   C     0.99550   0.97830   0.29125   0.00000  Uiso   1.00
C697   C     0.67164   0.97815   0.20923   0.00000  Uiso   1.00
C698   C     0.99499   0.68855   0.29087   0.00000  Uiso   1.00
C699   C     0.66719   0.95711   0.25033   0.00000  Uiso   1.00
C700   C     0.99944   0.70958   0.24976   0.00000  Uiso   1.00
C701   C     0.84927   0.80561   0.27611   0.00000  Uiso   1.00
C702   C     0.81743   0.86104   0.22387   0.00000  Uiso   1.00
C703   C     0.79999   0.80586   0.27592   0.00000  Uiso   1.00
C704   C     0.86672   0.86073   0.22400   0.00000  Uiso   1.00
C705   C     0.97268   0.83271   0.33606   0.00000  Uiso   1.00
C706   C     0.69396   0.83440   0.16398   0.00000  Uiso   1.00
C707   C     0.95762   0.83028   0.38535   0.00000  Uiso   1.00
C708   C     0.70914   0.84110   0.11521   0.00000  Uiso   1.00
C709   C     0.97174   0.80738   0.45556   0.00000  Uiso   1.00
C710   C     0.69833   0.87632   0.04904   0.00000  Uiso   1.00
C711   C     0.98824   0.81416   0.40906   0.00000  Uiso   1.00
C712   C     0.68006   0.86295   0.09378   0.00000  Uiso   1.00
C713   C     0.91069   0.84134   0.40815   0.00000  Uiso   1.00
C714   C     0.75609   0.83100   0.09162   0.00000  Uiso   1.00
C715   C     0.89261   0.83630   0.45495   0.00000  Uiso   1.00
C716   C     0.77670   0.84518   0.04744   0.00000  Uiso   1.00
C717   C     0.92380   0.81920   0.47901   0.00000  Uiso   1.00
C718   C     0.74666   0.86635   0.02517   0.00000  Uiso   1.00
C719   C     0.84401   0.84695   0.47817   0.00000  Uiso   1.00
C720   C     0.82634   0.83829   0.02491   0.00000  Uiso   1.00
Cu721  Cu    0.71355   0.83334   0.25000   0.00000  Uiso   1.00
Cu722  Cu    0.95311   0.83333   0.25000   0.00000  Uiso   1.00
H723   H     0.93004   0.80661   0.04630   0.00000  Uiso   1.00
H724   H     0.74312   0.88942   0.46013   0.00000  Uiso   1.00
H725   H     0.77592   0.81185   0.10883   0.00000  Uiso   1.00
H726   H     0.88878   0.85316   0.38795   0.00000  Uiso   1.00
H727   H     0.97735   0.87183   0.11285   0.00000  Uiso   1.00
H728   H     0.69094   0.80456   0.39076   0.00000  Uiso   1.00
H729   H     0.84991   0.82196   0.08437   0.00000  Uiso   1.00
H730   H     0.82277   0.87474   0.42138   0.00000  Uiso   1.00
H731   H     0.77443   0.78393   0.29661   0.00000  Uiso   1.00
H732   H     0.89233   0.88256   0.20319   0.00000  Uiso   1.00
N733   N     0.78403   0.83334   0.24999   0.00000  Uiso   1.00
N734   N     0.88264   0.83332   0.25001   0.00000  Uiso   1.00
O735   O     0.70625   0.77322   0.25000   0.00000  Uiso   1.00
O736   O     0.96042   0.89345   0.25000   0.00000  Uiso   1.00
O737   O     0.96039   0.77321   0.25001   0.00000  Uiso   1.00
O738   O     0.70628   0.89346   0.24999   0.00000  Uiso   1.00
O739   O     0.68519   0.83334   0.31491   0.00000  Uiso   1.00
O740   O     0.98148   0.83332   0.18509   0.00000  Uiso   1.00
O741   O     0.93933   0.83333   0.31492   0.00000  Uiso   1.00
O742   O     0.72733   0.83333   0.18508   0.00000  Uiso   1.00
C743   C     0.67169   0.78552   0.47709   0.00000  Uiso   1.00
O744   O     0.98936   0.76003   0.00713   0.00000  Uiso   1.00
O745   O     0.72166   0.79221   0.46076   0.00000  Uiso   1.00
H746   H     0.74073   0.77541   0.47762   0.00000  Uiso   1.00
C747   C     0.66713   0.90344   0.03016   0.00000  Uiso   1.00
O748   O     0.95674   0.89704   0.04008   0.00000  Uiso   1.00
O749   O     0.68704   0.93779   0.00338   0.00000  Uiso   1.00
H750   H     0.99524   0.95403   0.49322   0.00000  Uiso   1.00
C751   C     0.67630   0.71182   0.16496   0.00000  Uiso   1.00
H752   H     0.67539   0.74592   0.16832   0.00000  Uiso   1.00
H753   H     0.71156   0.70450   0.14075   0.00000  Uiso   1.00
H754   H     0.97954   0.70291   0.15061   0.00000  Uiso   1.00
C755   C     0.99022   0.95487   0.33516   0.00000  Uiso   1.00
H756   H     0.99111   0.92077   0.33179   0.00000  Uiso   1.00
H757   H     0.68697   0.96375   0.34954   0.00000  Uiso   1.00
H758   H     0.95496   0.96221   0.35935   0.00000  Uiso   1.00
C759   C     0.67720   0.95312   0.16648   0.00000  Uiso   1.00
H760   H     0.70938   0.93305   0.16097   0.00000  Uiso   1.00
H761   H     0.97786   0.93325   0.16996   0.00000  Uiso   1.00
H762   H     0.68201   0.97183   0.13549   0.00000  Uiso   1.00
C763   C     0.98945   0.71361   0.33362   0.00000  Uiso   1.00
H764   H     0.95726   0.73368   0.33917   0.00000  Uiso   1.00
H765   H     0.98469   0.69487   0.36458   0.00000  Uiso   1.00
H766   H     0.68876   0.73353   0.33015   0.00000  Uiso   1.00
C767   C     0.86303   0.77403   0.30449   0.00000  Uiso   1.00
O768   O     0.86184   0.78200   0.34337   0.00000  Uiso   1.00
O769   O     0.87301   0.73389   0.28807   0.00000  Uiso   1.00
H770   H     0.88071   0.71448   0.31098   0.00000  Uiso   1.00
C771   C     0.80393   0.89224   0.19494   0.00000  Uiso   1.00
O772   O     0.79357   0.92718   0.20918   0.00000  Uiso   1.00
O773   O     0.80785   0.88310   0.15000   0.00000  Uiso   1.00
H774   H     0.79910   0.90740   0.13301   0.00000  Uiso   1.00
C775   C     0.33313   0.08761   0.74985   0.00000  Uiso   1.00
C776   C     0.00018   0.24573   0.75022   0.00000  Uiso   1.00
C777   C     0.19259   0.15790   0.54821   0.00000  Uiso   1.00
C778   C     0.14573   0.19935   0.95637   0.00000  Uiso   1.00
C779   C     0.24007   0.14888   0.52586   0.00000  Uiso   1.00
C780   C     0.09862   0.20918   0.97942   0.00000  Uiso   1.00
C781   C     0.00442   0.02173   0.70886   0.00000  Uiso   1.00
C782   C     0.32883   0.31163   0.79125   0.00000  Uiso   1.00
C783   C     0.00497   0.31148   0.70923   0.00000  Uiso   1.00
C784   C     0.32833   0.02189   0.79087   0.00000  Uiso   1.00
C785   C     0.00052   0.29044   0.75033   0.00000  Uiso   1.00
C786   C     0.33277   0.04291   0.74976   0.00000  Uiso   1.00
C787   C     0.18260   0.13894   0.77611   0.00000  Uiso   1.00
C788   C     0.15076   0.19438   0.72387   0.00000  Uiso   1.00
C789   C     0.13332   0.13920   0.77592   0.00000  Uiso   1.00
C790   C     0.20005   0.19406   0.72400   0.00000  Uiso   1.00
C791   C     0.30602   0.16605   0.83606   0.00000  Uiso   1.00
C792   C     0.02730   0.16774   0.66398   0.00000  Uiso   1.00
C793   C     0.29095   0.16361   0.88535   0.00000  Uiso   1.00
C794   C     0.04248   0.17443   0.61521   0.00000  Uiso   1.00
C795   C     0.30508   0.14071   0.95556   0.00000  Uiso   1.00
C796   C     0.03166   0.20966   0.54904   0.00000  Uiso   1.00
C797   C     0.32157   0.14750   0.90906   0.00000  Uiso   1.00
C798   C     0.01340   0.19628   0.59378   0.00000  Uiso   1.00
C799   C     0.24402   0.17468   0.90815   0.00000  Uiso   1.00
C800   C     0.08942   0.16433   0.59162   0.00000  Uiso   1.00
C801   C     0.22594   0.16963   0.95495   0.00000  Uiso   1.00
C802   C     0.11003   0.17851   0.54744   0.00000  Uiso   1.00
C803   C     0.25714   0.15253   0.97901   0.00000  Uiso   1.00
C804   C     0.07999   0.19969   0.52517   0.00000  Uiso   1.00
C805   C     0.17734   0.18029   0.97817   0.00000  Uiso   1.00
C806   C     0.15967   0.17162   0.52491   0.00000  Uiso   1.00
Cu807  Cu    0.04689   0.16667   0.75000   0.00000  Uiso   1.00
Cu808  Cu    0.28645   0.16666   0.75000   0.00000  Uiso   1.00
H809   H     0.26337   0.13995   0.54630   0.00000  Uiso   1.00
H810   H     0.07646   0.22275   0.96013   0.00000  Uiso   1.00
H811   H     0.10926   0.14518   0.60883   0.00000  Uiso   1.00
H812   H     0.22211   0.18649   0.88795   0.00000  Uiso   1.00
H813   H     0.31068   0.20517   0.61285   0.00000  Uiso   1.00
H814   H     0.02427   0.13789   0.89076   0.00000  Uiso   1.00
H815   H     0.18324   0.15529   0.58437   0.00000  Uiso   1.00
H816   H     0.15610   0.20807   0.92138   0.00000  Uiso   1.00
H817   H     0.10776   0.11726   0.79661   0.00000  Uiso   1.00
H818   H     0.22566   0.21590   0.70319   0.00000  Uiso   1.00
N819   N     0.11736   0.16668   0.74999   0.00000  Uiso   1.00
N820   N     0.21597   0.16666   0.75001   0.00000  Uiso   1.00
O821   O     0.03958   0.10655   0.75000   0.00000  Uiso   1.00
O822   O     0.29375   0.22678   0.75000   0.00000  Uiso   1.00
O823   O     0.29372   0.10654   0.75001   0.00000  Uiso   1.00
O824   O     0.03961   0.22679   0.74999   0.00000  Uiso   1.00
O825   O     0.01852   0.16668   0.81491   0.00000  Uiso   1.00
O826   O     0.31481   0.16666   0.68509   0.00000  Uiso   1.00
O827   O     0.27267   0.16667   0.81492   0.00000  Uiso   1.00
O828   O     0.06067   0.16667   0.68508   0.00000  Uiso   1.00
C829   C     0.00502   0.11885   0.97709   0.00000  Uiso   1.00
O830   O     0.32269   0.09336   0.50713   0.00000  Uiso   1.00
O831   O     0.05500   0.12555   0.96076   0.00000  Uiso   1.00
H832   H     0.07406   0.10874   0.97762   0.00000  Uiso   1.00
C833   C     0.00046   0.23677   0.53016   0.00000  Uiso   1.00
O834   O     0.29007   0.23037   0.54008   0.00000  Uiso   1.00
O835   O     0.02038   0.27113   0.50338   0.00000  Uiso   1.00
H836   H     0.32857   0.28736   0.99322   0.00000  Uiso   1.00
C837   C     0.00964   0.04516   0.66496   0.00000  Uiso   1.00
H838   H     0.00873   0.07925   0.66832   0.00000  Uiso   1.00
H839   H     0.04490   0.03783   0.64075   0.00000  Uiso   1.00
H840   H     0.31288   0.03624   0.65061   0.00000  Uiso   1.00
C841   C     0.32356   0.28820   0.83516   0.00000  Uiso   1.00
H842   H     0.32444   0.25411   0.83179   0.00000  Uiso   1.00
H843   H     0.02030   0.29708   0.84954   0.00000  Uiso   1.00
H844   H     0.28829   0.29554   0.85935   0.00000  Uiso   1.00
C845   C     0.01054   0.28645   0.66648   0.00000  Uiso   1.00
H846   H     0.04271   0.26639   0.66097   0.00000  Uiso   1.00
H847   H     0.31120   0.26658   0.66996   0.00000  Uiso   1.00
H848   H     0.01534   0.30517   0.63549   0.00000  Uiso   1.00
C849   C     0.32278   0.04695   0.83362   0.00000  Uiso   1.00
H850   H     0.29060   0.06701   0.83917   0.00000  Uiso   1.00
H851   H     0.31803   0.02820   0.86458   0.00000  Uiso   1.00
H852   H     0.02209   0.06687   0.83015   0.00000  Uiso   1.00
C853   C     0.19636   0.10736   0.80449   0.00000  Uiso   1.00
O854   O     0.19517   0.11534   0.84337   0.00000  Uiso   1.00
O855   O     0.20635   0.06722   0.78807   0.00000  Uiso   1.00
H856   H     0.21404   0.04782   0.81098   0.00000  Uiso   1.00
C857   C     0.13726   0.22558   0.69494   0.00000  Uiso   1.00
O858   O     0.12690   0.26052   0.70918   0.00000  Uiso   1.00
O859   O     0.14119   0.21643   0.65000   0.00000  Uiso   1.00
H860   H     0.13243   0.24073   0.63301   0.00000  Uiso   1.00
C861   C     0.66647   0.08761   0.74985   0.00000  Uiso   1.00
C862   C     0.33351   0.24573   0.75022   0.00000  Uiso   1.00
C863   C     0.52593   0.15790   0.54821   0.00000  Uiso   1.00
C864   C     0.47907   0.19935   0.95637   0.00000  Uiso   1.00
C865   C     0.57341   0.14888   0.52586   0.00000  Uiso   1.00
C866   C     0.43196   0.20918   0.97942   0.00000  Uiso   1.00
C867   C     0.33776   0.02173   0.70886   0.00000  Uiso   1.00
C868   C     0.66217   0.31163   0.79125   0.00000  Uiso   1.00
C869   C     0.33831   0.31148   0.70923   0.00000  Uiso   1.00
C870   C     0.66166   0.02189   0.79087   0.00000  Uiso   1.00
C871   C     0.33385   0.29044   0.75033   0.00000  Uiso   1.00
C872   C     0.66611   0.04291   0.74976   0.00000  Uiso   1.00
C873   C     0.51594   0.13894   0.77611   0.00000  Uiso   1.00
C874   C     0.48410   0.19438   0.72387   0.00000  Uiso   1.00
C875   C     0.46666   0.13920   0.77592   0.00000  Uiso   1.00
C876   C     0.53338   0.19406   0.72400   0.00000  Uiso   1.00
C877   C     0.63935   0.16605   0.83606   0.00000  Uiso   1.00
C878   C     0.36063   0.16774   0.66398   0.00000  Uiso   1.00
C879   C     0.62428   0.16361   0.88535   0.00000  Uiso   1.00
C880   C     0.37581   0.17443   0.61521   0.00000  Uiso   1.00
C881   C     0.63841   0.14071   0.95556   0.00000  Uiso   1.00
C882   C     0.36499   0.20966   0.54904   0.00000  Uiso   1.00
C883   C     0.65491   0.14750   0.90906   0.00000  Uiso   1.00
C884   C     0.34673   0.19628   0.59378   0.00000  Uiso   1.00
C885   C     0.57736   0.17468   0.90815   0.00000  Uiso   1.00
C886   C     0.42276   0.16433   0.59162   0.00000  Uiso   1.00
C887   C     0.55928   0.16963   0.95495   0.00000  Uiso   1.00
C888   C     0.44337   0.17851   0.54744   0.00000  Uiso   1.00
C889   C     0.59047   0.15253   0.97901   0.00000  Uiso   1.00
C890   C     0.41333   0.19969   0.52517   0.00000  Uiso   1.00
C891   C     0.51067   0.18029   0.97817   0.00000  Uiso   1.00
C892   C     0.49301   0.17162   0.52491   0.00000  Uiso   1.00
Cu893  Cu    0.38022   0.16667   0.75000   0.00000  Uiso   1.00
Cu894  Cu    0.61978   0.16666   0.75000   0.00000  Uiso   1.00
H895   H     0.59670   0.13995   0.54630   0.00000  Uiso   1.00
H896   H     0.40979   0.22275   0.96013   0.00000  Uiso   1.00
H897   H     0.44259   0.14518   0.60883   0.00000  Uiso   1.00
H898   H     0.55545   0.18649   0.88795   0.00000  Uiso   1.00
H899   H     0.64401   0.20517   0.61285   0.00000  Uiso   1.00
H900   H     0.35761   0.13789   0.89076   0.00000  Uiso   1.00
H901   H     0.51657   0.15529   0.58437   0.00000  Uiso   1.00
H902   H     0.48943   0.20807   0.92138   0.00000  Uiso   1.00
H903   H     0.44109   0.11726   0.79661   0.00000  Uiso   1.00
H904   H     0.55899   0.21590   0.70319   0.00000  Uiso   1.00
N905   N     0.45069   0.16668   0.74999   0.00000  Uiso   1.00
N906   N     0.54931   0.16666   0.75001   0.00000  Uiso   1.00
O907   O     0.37291   0.10655   0.75000   0.00000  Uiso   1.00
O908   O     0.62709   0.22678   0.75000   0.00000  Uiso   1.00
O909   O     0.62706   0.10654   0.75001   0.00000  Uiso   1.00
O910   O     0.37294   0.22679   0.74999   0.00000  Uiso   1.00
O911   O     0.35186   0.16668   0.81491   0.00000  Uiso   1.00
O912   O     0.64814   0.16666   0.68509   0.00000  Uiso   1.00
O913   O     0.60600   0.16667   0.81492   0.00000  Uiso   1.00
O914   O     0.39400   0.16667   0.68508   0.00000  Uiso   1.00
C915   C     0.33835   0.11885   0.97709   0.00000  Uiso   1.00
O916   O     0.65602   0.09336   0.50713   0.00000  Uiso   1.00
O917   O     0.38833   0.12555   0.96076   0.00000  Uiso   1.00
H918   H     0.40740   0.10874   0.97762   0.00000  Uiso   1.00
C919   C     0.33379   0.23677   0.53016   0.00000  Uiso   1.00
O920   O     0.62341   0.23037   0.54008   0.00000  Uiso   1.00
O921   O     0.35371   0.27113   0.50338   0.00000  Uiso   1.00
H922   H     0.66190   0.28736   0.99322   0.00000  Uiso   1.00
C923   C     0.34297   0.04516   0.66496   0.00000  Uiso   1.00
H924   H     0.34206   0.07925   0.66832   0.00000  Uiso   1.00
H925   H     0.37823   0.03783   0.64075   0.00000  Uiso   1.00
H926   H     0.64621   0.03624   0.65061   0.00000  Uiso   1.00
C927   C     0.65689   0.28820   0.83516   0.00000  Uiso   1.00
H928   H     0.65777   0.25411   0.83179   0.00000  Uiso   1.00
H929   H     0.35363   0.29708   0.84954   0.00000  Uiso   1.00
H930   H     0.62163   0.29554   0.85935   0.00000  Uiso   1.00
C931   C     0.34387   0.28645   0.66648   0.00000  Uiso   1.00
H932   H     0.37605   0.26639   0.66097   0.00000  Uiso   1.00
H933   H     0.64453   0.26658   0.66996   0.00000  Uiso   1.00
H934   H     0.34867   0.30517   0.63549   0.00000  Uiso   1.00
C935   C     0.65612   0.04695   0.83362   0.00000  Uiso   1.00
H936   H     0.62393   0.06701   0.83917   0.00000  Uiso   1.00
H937   H     0.65136   0.02820   0.86458   0.00000  Uiso   1.00
H938   H     0.35542   0.06687   0.83015   0.00000  Uiso   1.00
C939   C     0.52970   0.10736   0.80449   0.00000  Uiso   1.00
O940   O     0.52851   0.11534   0.84337   0.00000  Uiso   1.00
O941   O     0.53968   0.06722   0.78807   0.00000  Uiso   1.00
H942   H     0.54738   0.04782   0.81098   0.00000  Uiso   1.00
C943   C     0.47059   0.22558   0.69494   0.00000  Uiso   1.00
O944   O     0.46024   0.26052   0.70918   0.00000  Uiso   1.00
O945   O     0.47452   0.21643   0.65000   0.00000  Uiso   1.00
H946   H     0.46576   0.24073   0.63301   0.00000  Uiso   1.00
C947   C     0.99980   0.08761   0.74985   0.00000  Uiso   1.00
C948   C     0.66684   0.24573   0.75022   0.00000  Uiso   1.00
C949   C     0.85926   0.15790   0.54821   0.00000  Uiso   1.00
C950   C     0.81240   0.19935   0.95637   0.00000  Uiso   1.00
C951   C     0.90674   0.14888   0.52586   0.00000  Uiso   1.00
C952   C     0.76529   0.20918   0.97942   0.00000  Uiso   1.00
C953   C     0.67109   0.02173   0.70886   0.00000  Uiso   1.00
C954   C     0.99550   0.31163   0.79125   0.00000  Uiso   1.00
C955   C     0.67164   0.31148   0.70923   0.00000  Uiso   1.00
C956   C     0.99499   0.02189   0.79087   0.00000  Uiso   1.00
C957   C     0.66719   0.29044   0.75033   0.00000  Uiso   1.00
C958   C     0.99944   0.04291   0.74976   0.00000  Uiso   1.00
C959   C     0.84927   0.13894   0.77611   0.00000  Uiso   1.00
C960   C     0.81743   0.19438   0.72387   0.00000  Uiso   1.00
C961   C     0.79999   0.13920   0.77592   0.00000  Uiso   1.00
C962   C     0.86672   0.19406   0.72400   0.00000  Uiso   1.00
C963   C     0.97268   0.16605   0.83606   0.00000  Uiso   1.00
C964   C     0.69396   0.16774   0.66398   0.00000  Uiso   1.00
C965   C     0.95762   0.16361   0.88535   0.00000  Uiso   1.00
C966   C     0.70914   0.17443   0.61521   0.00000  Uiso   1.00
C967   C     0.97174   0.14071   0.95556   0.00000  Uiso   1.00
C968   C     0.69833   0.20966   0.54904   0.00000  Uiso   1.00
C969   C     0.98824   0.14750   0.90906   0.00000  Uiso   1.00
C970   C     0.68006   0.19628   0.59378   0.00000  Uiso   1.00
C971   C     0.91069   0.17468   0.90815   0.00000  Uiso   1.00
C972   C     0.75609   0.16433   0.59162   0.00000  Uiso   1.00
C973   C     0.89261   0.16963   0.95495   0.00000  Uiso   1.00
C974   C     0.77670   0.17851   0.54744   0.00000  Uiso   1.00
C975   C     0.92380   0.15253   0.97901   0.00000  Uiso   1.00
C976   C     0.74666   0.19969   0.52517   0.00000  Uiso   1.00
C977   C     0.84401   0.18029   0.97817   0.00000  Uiso   1.00
C978   C     0.82634   0.17162   0.52491   0.00000  Uiso   1.00
Cu979  Cu    0.71355   0.16667   0.75000   0.00000  Uiso   1.00
Cu980  Cu    0.95311   0.16666   0.75000   0.00000  Uiso   1.00
H981   H     0.93004   0.13995   0.54630   0.00000  Uiso   1.00
H982   H     0.74312   0.22275   0.96013   0.00000  Uiso   1.00
H983   H     0.77592   0.14518   0.60883   0.00000  Uiso   1.00
H984   H     0.88878   0.18649   0.88795   0.00000  Uiso   1.00
H985   H     0.97735   0.20517   0.61285   0.00000  Uiso   1.00
H986   H     0.69094   0.13789   0.89076   0.00000  Uiso   1.00
H987   H     0.84991   0.15529   0.58437   0.00000  Uiso   1.00
H988   H     0.82277   0.20807   0.92138   0.00000  Uiso   1.00
H989   H     0.77443   0.11726   0.79661   0.00000  Uiso   1.00
H990   H     0.89233   0.21590   0.70319   0.00000  Uiso   1.00
N991   N     0.78403   0.16668   0.74999   0.00000  Uiso   1.00
N992   N     0.88264   0.16666   0.75001   0.00000  Uiso   1.00
O993   O     0.70625   0.10655   0.75000   0.00000  Uiso   1.00
O994   O     0.96042   0.22678   0.75000   0.00000  Uiso   1.00
O995   O     0.96039   0.10654   0.75001   0.00000  Uiso   1.00
O996   O     0.70628   0.22679   0.74999   0.00000  Uiso   1.00
O997   O     0.68519   0.16668   0.81491   0.00000  Uiso   1.00
O998   O     0.98148   0.16666   0.68509   0.00000  Uiso   1.00
O999   O     0.93933   0.16667   0.81492   0.00000  Uiso   1.00
O1000  O     0.72733   0.16667   0.68508   0.00000  Uiso   1.00
C1001  C     0.67169   0.11885   0.97709   0.00000  Uiso   1.00
O1002  O     0.98936   0.09336   0.50713   0.00000  Uiso   1.00
O1003  O     0.72166   0.12555   0.96076   0.00000  Uiso   1.00
H1004  H     0.74073   0.10874   0.97762   0.00000  Uiso   1.00
C1005  C     0.66713   0.23677   0.53016   0.00000  Uiso   1.00
O1006  O     0.95674   0.23037   0.54008   0.00000  Uiso   1.00
O1007  O     0.68704   0.27113   0.50338   0.00000  Uiso   1.00
H1008  H     0.99524   0.28736   0.99322   0.00000  Uiso   1.00
C1009  C     0.67630   0.04516   0.66496   0.00000  Uiso   1.00
H1010  H     0.67539   0.07925   0.66832   0.00000  Uiso   1.00
H1011  H     0.71156   0.03783   0.64075   0.00000  Uiso   1.00
H1012  H     0.97954   0.03624   0.65061   0.00000  Uiso   1.00
C1013  C     0.99022   0.28820   0.83516   0.00000  Uiso   1.00
H1014  H     0.99111   0.25411   0.83179   0.00000  Uiso   1.00
H1015  H     0.68697   0.29708   0.84954   0.00000  Uiso   1.00
H1016  H     0.95496   0.29554   0.85935   0.00000  Uiso   1.00
C1017  C     0.67720   0.28645   0.66648   0.00000  Uiso   1.00
H1018  H     0.70938   0.26639   0.66097   0.00000  Uiso   1.00
H1019  H     0.97786   0.26658   0.66996   0.00000  Uiso   1.00
H1020  H     0.68201   0.30517   0.63549   0.00000  Uiso   1.00
C1021  C     0.98945   0.04695   0.83362   0.00000  Uiso   1.00
H1022  H     0.95726   0.06701   0.83917   0.00000  Uiso   1.00
H1023  H     0.98469   0.02820   0.86458   0.00000  Uiso   1.00
H1024  H     0.68876   0.06687   0.83015   0.00000  Uiso   1.00
C1025  C     0.86303   0.10736   0.80449   0.00000  Uiso   1.00
O1026  O     0.86184   0.11534   0.84337   0.00000  Uiso   1.00
O1027  O     0.87301   0.06722   0.78807   0.00000  Uiso   1.00
H1028  H     0.88071   0.04782   0.81098   0.00000  Uiso   1.00
C1029  C     0.80393   0.22558   0.69494   0.00000  Uiso   1.00
O1030  O     0.79357   0.26052   0.70918   0.00000  Uiso   1.00
O1031  O     0.80785   0.21643   0.65000   0.00000  Uiso   1.00
H1032  H     0.79910   0.24073   0.63301   0.00000  Uiso   1.00
C1033  C     0.33313   0.42095   0.74985   0.00000  Uiso   1.00
C1034  C     0.00018   0.57906   0.75022   0.00000  Uiso   1.00
C1035  C     0.19259   0.49123   0.54821   0.00000  Uiso   1.00
C1036  C     0.14573   0.53268   0.95637   0.00000  Uiso   1.00
C1037  C     0.24007   0.48221   0.52586   0.00000  Uiso   1.00
C1038  C     0.09862   0.54251   0.97942   0.00000  Uiso   1.00
C1039  C     0.00442   0.35506   0.70886   0.00000  Uiso   1.00
C1040  C     0.32883   0.64497   0.79125   0.00000  Uiso   1.00
C1041  C     0.00497   0.64482   0.70923   0.00000  Uiso   1.00
C1042  C     0.32833   0.35522   0.79087   0.00000  Uiso   1.00
C1043  C     0.00052   0.62378   0.75033   0.00000  Uiso   1.00
C1044  C     0.33277   0.37625   0.74976   0.00000  Uiso   1.00
C1045  C     0.18260   0.47227   0.77611   0.00000  Uiso   1.00
C1046  C     0.15076   0.52771   0.72387   0.00000  Uiso   1.00
C1047  C     0.13332   0.47253   0.77592   0.00000  Uiso   1.00
C1048  C     0.20005   0.52740   0.72400   0.00000  Uiso   1.00
C1049  C     0.30602   0.49938   0.83606   0.00000  Uiso   1.00
C1050  C     0.02730   0.50107   0.66398   0.00000  Uiso   1.00
C1051  C     0.29095   0.49694   0.88535   0.00000  Uiso   1.00
C1052  C     0.04248   0.50776   0.61521   0.00000  Uiso   1.00
C1053  C     0.30508   0.47405   0.95556   0.00000  Uiso   1.00
C1054  C     0.03166   0.54299   0.54904   0.00000  Uiso   1.00
C1055  C     0.32157   0.48083   0.90906   0.00000  Uiso   1.00
C1056  C     0.01340   0.52961   0.59378   0.00000  Uiso   1.00
C1057  C     0.24402   0.50801   0.90815   0.00000  Uiso   1.00
C1058  C     0.08942   0.49766   0.59162   0.00000  Uiso   1.00
C1059  C     0.22594   0.50296   0.95495   0.00000  Uiso   1.00
C1060  C     0.11003   0.51184   0.54744   0.00000  Uiso   1.00
C1061  C     0.25714   0.48586   0.97901   0.00000  Uiso   1.00
C1062  C     0.07999   0.53302   0.52517   0.00000  Uiso   1.00
C1063  C     0.17734   0.51362   0.97817   0.00000  Uiso   1.00
C1064  C     0.15967   0.50496   0.52491   0.00000  Uiso   1.00
Cu1065 Cu    0.04689   0.50001   0.75000   0.00000  Uiso   1.00
Cu1066 Cu    0.28645   0.49999   0.75000   0.00000  Uiso   1.00
H1067  H     0.26337   0.47328   0.54630   0.00000  Uiso   1.00
H1068  H     0.07646   0.55609   0.96013   0.00000  Uiso   1.00
H1069  H     0.10926   0.47851   0.60883   0.00000  Uiso   1.00
H1070  H     0.22211   0.51982   0.88795   0.00000  Uiso   1.00
H1071  H     0.31068   0.53850   0.61285   0.00000  Uiso   1.00
H1072  H     0.02427   0.47122   0.89076   0.00000  Uiso   1.00
H1073  H     0.18324   0.48862   0.58437   0.00000  Uiso   1.00
H1074  H     0.15610   0.54141   0.92138   0.00000  Uiso   1.00
H1075  H     0.10776   0.45059   0.79661   0.00000  Uiso   1.00
H1076  H     0.22566   0.54923   0.70319   0.00000  Uiso   1.00
N1077  N     0.11736   0.50001   0.74999   0.00000  Uiso   1.00
N1078  N     0.21597   0.49999   0.75001   0.00000  Uiso   1.00
O1079  O     0.03958   0.43989   0.75000   0.00000  Uiso   1.00
O1080  O     0.29375   0.56011   0.75000   0.00000  Uiso   1.00
O1081  O     0.29372   0.43988   0.75001   0.00000  Uiso   1.00
O1082  O     0.03961   0.56012   0.74999   0.00000  Uiso   1.00
O1083  O     0.01852   0.50001   0.81491   0.00000  Uiso   1.00
O1084  O     0.31481   0.49999   0.68509   0.00000  Uiso   1.00
O1085  O     0.27267   0.50000   0.81492   0.00000  Uiso   1.00
O1086  O     0.06067   0.50000   0.68508   0.00000  Uiso   1.00
C1087  C     0.00502   0.45219   0.97709   0.00000  Uiso   1.00
O1088  O     0.32269   0.42669   0.50713   0.00000  Uiso   1.00
O1089  O     0.05500   0.45888   0.96076   0.00000  Uiso   1.00
H1090  H     0.07406   0.44208   0.97762   0.00000  Uiso   1.00
C1091  C     0.00046   0.57010   0.53016   0.00000  Uiso   1.00
O1092  O     0.29007   0.56370   0.54008   0.00000  Uiso   1.00
O1093  O     0.02038   0.60446   0.50338   0.00000  Uiso   1.00
H1094  H     0.32857   0.62069   0.99322   0.00000  Uiso   1.00
C1095  C     0.00964   0.37849   0.66496   0.00000  Uiso   1.00
H1096  H     0.00873   0.41259   0.66832   0.00000  Uiso   1.00
H1097  H     0.04490   0.37117   0.64075   0.00000  Uiso   1.00
H1098  H     0.31288   0.36957   0.65061   0.00000  Uiso   1.00
C1099  C     0.32356   0.62154   0.83516   0.00000  Uiso   1.00
H1100  H     0.32444   0.58744   0.83179   0.00000  Uiso   1.00
H1101  H     0.02030   0.63042   0.84954   0.00000  Uiso   1.00
H1102  H     0.28829   0.62888   0.85935   0.00000  Uiso   1.00
C1103  C     0.01054   0.61979   0.66648   0.00000  Uiso   1.00
H1104  H     0.04271   0.59972   0.66097   0.00000  Uiso   1.00
H1105  H     0.31120   0.59991   0.66996   0.00000  Uiso   1.00
H1106  H     0.01534   0.63850   0.63549   0.00000  Uiso   1.00
C1107  C     0.32278   0.38028   0.83362   0.00000  Uiso   1.00
H1108  H     0.29060   0.40035   0.83917   0.00000  Uiso   1.00
H1109  H     0.31803   0.36154   0.86458   0.00000  Uiso   1.00
H1110  H     0.02209   0.40020   0.83015   0.00000  Uiso   1.00
C1111  C     0.19636   0.44070   0.80449   0.00000  Uiso   1.00
O1112  O     0.19517   0.44867   0.84337   0.00000  Uiso   1.00
O1113  O     0.20635   0.40055   0.78807   0.00000  Uiso   1.00
H1114  H     0.21404   0.38115   0.81098   0.00000  Uiso   1.00
C1115  C     0.13726   0.55891   0.69494   0.00000  Uiso   1.00
O1116  O     0.12690   0.59385   0.70918   0.00000  Uiso   1.00
O1117  O     0.14119   0.54977   0.65000   0.00000  Uiso   1.00
H1118  H     0.13243   0.57407   0.63301   0.00000  Uiso   1.00
C1119  C     0.66647   0.42095   0.74985   0.00000  Uiso   1.00
C1120  C     0.33351   0.57906   0.75022   0.00000  Uiso   1.00
C1121  C     0.52593   0.49123   0.54821   0.00000  Uiso   1.00
C1122  C     0.47907   0.53268   0.95637   0.00000  Uiso   1.00
C1123  C     0.57341   0.48221   0.52586   0.00000  Uiso   1.00
C1124  C     0.43196   0.54251   0.97942   0.00000  Uiso   1.00
C1125  C     0.33776   0.35506   0.70886   0.00000  Uiso   1.00
C1126  C     0.66217   0.64497   0.79125   0.00000  Uiso   1.00
C1127  C     0.33831   0.64482   0.70923   0.00000  Uiso   1.00
C1128  C     0.66166   0.35522   0.79087   0.00000  Uiso   1.00
C1129  C     0.33385   0.62378   0.75033   0.00000  Uiso   1.00
C1130  C     0.66611   0.37625   0.74976   0.00000  Uiso   1.00
C1131  C     0.51594   0.47227   0.77611   0.00000  Uiso   1.00
C1132  C     0.48410   0.52771   0.72387   0.00000  Uiso   1.00
C1133  C     0.46666   0.47253   0.77592   0.00000  Uiso   1.00
C1134  C     0.53338   0.52740   0.72400   0.00000  Uiso   1.00
C1135  C     0.63935   0.49938   0.83606   0.00000  Uiso   1.00
C1136  C     0.36063   0.50107   0.66398   0.00000  Uiso   1.00
C1137  C     0.62428   0.49694   0.88535   0.00000  Uiso   1.00
C1138  C     0.37581   0.50776   0.61521   0.00000  Uiso   1.00
C1139  C     0.63841   0.47405   0.95556   0.00000  Uiso   1.00
C1140  C     0.36499   0.54299   0.54904   0.00000  Uiso   1.00
C1141  C     0.65491   0.48083   0.90906   0.00000  Uiso   1.00
C1142  C     0.34673   0.52961   0.59378   0.00000  Uiso   1.00
C1143  C     0.57736   0.50801   0.90815   0.00000  Uiso   1.00
C1144  C     0.42276   0.49766   0.59162   0.00000  Uiso   1.00
C1145  C     0.55928   0.50296   0.95495   0.00000  Uiso   1.00
C1146  C     0.44337   0.51184   0.54744   0.00000  Uiso   1.00
C1147  C     0.59047   0.48586   0.97901   0.00000  Uiso   1.00
C1148  C     0.41333   0.53302   0.52517   0.00000  Uiso   1.00
C1149  C     0.51067   0.51362   0.97817   0.00000  Uiso   1.00
C1150  C     0.49301   0.50496   0.52491   0.00000  Uiso   1.00
Cu1151 Cu    0.38022   0.50001   0.75000   0.00000  Uiso   1.00
Cu1152 Cu    0.61978   0.49999   0.75000   0.00000  Uiso   1.00
H1153  H     0.59670   0.47328   0.54630   0.00000  Uiso   1.00
H1154  H     0.40979   0.55609   0.96013   0.00000  Uiso   1.00
H1155  H     0.44259   0.47851   0.60883   0.00000  Uiso   1.00
H1156  H     0.55545   0.51982   0.88795   0.00000  Uiso   1.00
H1157  H     0.64401   0.53850   0.61285   0.00000  Uiso   1.00
H1158  H     0.35761   0.47122   0.89076   0.00000  Uiso   1.00
H1159  H     0.51657   0.48862   0.58437   0.00000  Uiso   1.00
H1160  H     0.48943   0.54141   0.92138   0.00000  Uiso   1.00
H1161  H     0.44109   0.45059   0.79661   0.00000  Uiso   1.00
H1162  H     0.55899   0.54923   0.70319   0.00000  Uiso   1.00
N1163  N     0.45069   0.50001   0.74999   0.00000  Uiso   1.00
N1164  N     0.54931   0.49999   0.75001   0.00000  Uiso   1.00
O1165  O     0.37291   0.43989   0.75000   0.00000  Uiso   1.00
O1166  O     0.62709   0.56011   0.75000   0.00000  Uiso   1.00
O1167  O     0.62706   0.43988   0.75001   0.00000  Uiso   1.00
O1168  O     0.37294   0.56012   0.74999   0.00000  Uiso   1.00
O1169  O     0.35186   0.50001   0.81491   0.00000  Uiso   1.00
O1170  O     0.64814   0.49999   0.68509   0.00000  Uiso   1.00
O1171  O     0.60600   0.50000   0.81492   0.00000  Uiso   1.00
O1172  O     0.39400   0.50000   0.68508   0.00000  Uiso   1.00
C1173  C     0.33835   0.45219   0.97709   0.00000  Uiso   1.00
O1174  O     0.65602   0.42669   0.50713   0.00000  Uiso   1.00
O1175  O     0.38833   0.45888   0.96076   0.00000  Uiso   1.00
H1176  H     0.40740   0.44208   0.97762   0.00000  Uiso   1.00
C1177  C     0.33379   0.57010   0.53016   0.00000  Uiso   1.00
O1178  O     0.62341   0.56370   0.54008   0.00000  Uiso   1.00
O1179  O     0.35371   0.60446   0.50338   0.00000  Uiso   1.00
H1180  H     0.66190   0.62069   0.99322   0.00000  Uiso   1.00
C1181  C     0.34297   0.37849   0.66496   0.00000  Uiso   1.00
H1182  H     0.34206   0.41259   0.66832   0.00000  Uiso   1.00
H1183  H     0.37823   0.37117   0.64075   0.00000  Uiso   1.00
H1184  H     0.64621   0.36957   0.65061   0.00000  Uiso   1.00
C1185  C     0.65689   0.62154   0.83516   0.00000  Uiso   1.00
H1186  H     0.65777   0.58744   0.83179   0.00000  Uiso   1.00
H1187  H     0.35363   0.63042   0.84954   0.00000  Uiso   1.00
H1188  H     0.62163   0.62888   0.85935   0.00000  Uiso   1.00
C1189  C     0.34387   0.61979   0.66648   0.00000  Uiso   1.00
H1190  H     0.37605   0.59972   0.66097   0.00000  Uiso   1.00
H1191  H     0.64453   0.59991   0.66996   0.00000  Uiso   1.00
H1192  H     0.34867   0.63850   0.63549   0.00000  Uiso   1.00
C1193  C     0.65612   0.38028   0.83362   0.00000  Uiso   1.00
H1194  H     0.62393   0.40035   0.83917   0.00000  Uiso   1.00
H1195  H     0.65136   0.36154   0.86458   0.00000  Uiso   1.00
H1196  H     0.35542   0.40020   0.83015   0.00000  Uiso   1.00
C1197  C     0.52970   0.44070   0.80449   0.00000  Uiso   1.00
O1198  O     0.52851   0.44867   0.84337   0.00000  Uiso   1.00
O1199  O     0.53968   0.40055   0.78807   0.00000  Uiso   1.00
H1200  H     0.54738   0.38115   0.81098   0.00000  Uiso   1.00
C1201  C     0.47059   0.55891   0.69494   0.00000  Uiso   1.00
O1202  O     0.46024   0.59385   0.70918   0.00000  Uiso   1.00
O1203  O     0.47452   0.54977   0.65000   0.00000  Uiso   1.00
H1204  H     0.46576   0.57407   0.63301   0.00000  Uiso   1.00
C1205  C     0.99980   0.42095   0.74985   0.00000  Uiso   1.00
C1206  C     0.66684   0.57906   0.75022   0.00000  Uiso   1.00
C1207  C     0.85926   0.49123   0.54821   0.00000  Uiso   1.00
C1208  C     0.81240   0.53268   0.95637   0.00000  Uiso   1.00
C1209  C     0.90674   0.48221   0.52586   0.00000  Uiso   1.00
C1210  C     0.76529   0.54251   0.97942   0.00000  Uiso   1.00
C1211  C     0.67109   0.35506   0.70886   0.00000  Uiso   1.00
C1212  C     0.99550   0.64497   0.79125   0.00000  Uiso   1.00
C1213  C     0.67164   0.64482   0.70923   0.00000  Uiso   1.00
C1214  C     0.99499   0.35522   0.79087   0.00000  Uiso   1.00
C1215  C     0.66719   0.62378   0.75033   0.00000  Uiso   1.00
C1216  C     0.99944   0.37625   0.74976   0.00000  Uiso   1.00
C1217  C     0.84927   0.47227   0.77611   0.00000  Uiso   1.00
C1218  C     0.81743   0.52771   0.72387   0.00000  Uiso   1.00
C1219  C     0.79999   0.47253   0.77592   0.00000  Uiso   1.00
C1220  C     0.86672   0.52740   0.72400   0.00000  Uiso   1.00
C1221  C     0.97268   0.49938   0.83606   0.00000  Uiso   1.00
C1222  C     0.69396   0.50107   0.66398   0.00000  Uiso   1.00
C1223  C     0.95762   0.49694   0.88535   0.00000  Uiso   1.00
C1224  C     0.70914   0.50776   0.61521   0.00000  Uiso   1.00
C1225  C     0.97174   0.47405   0.95556   0.00000  Uiso   1.00
C1226  C     0.69833   0.54299   0.54904   0.00000  Uiso   1.00
C1227  C     0.98824   0.48083   0.90906   0.00000  Uiso   1.00
C1228  C     0.68006   0.52961   0.59378   0.00000  Uiso   1.00
C1229  C     0.91069   0.50801   0.90815   0.00000  Uiso   1.00
C1230  C     0.75609   0.49766   0.59162   0.00000  Uiso   1.00
C1231  C     0.89261   0.50296   0.95495   0.00000  Uiso   1.00
C1232  C     0.77670   0.51184   0.54744   0.00000  Uiso   1.00
C1233  C     0.92380   0.48586   0.97901   0.00000  Uiso   1.00
C1234  C     0.74666   0.53302   0.52517   0.00000  Uiso   1.00
C1235  C     0.84401   0.51362   0.97817   0.00000  Uiso   1.00
C1236  C     0.82634   0.50496   0.52491   0.00000  Uiso   1.00
Cu1237 Cu    0.71355   0.50001   0.75000   0.00000  Uiso   1.00
Cu1238 Cu    0.95311   0.49999   0.75000   0.00000  Uiso   1.00
H1239  H     0.93004   0.47328   0.54630   0.00000  Uiso   1.00
H1240  H     0.74312   0.55609   0.96013   0.00000  Uiso   1.00
H1241  H     0.77592   0.47851   0.60883   0.00000  Uiso   1.00
H1242  H     0.88878   0.51982   0.88795   0.00000  Uiso   1.00
H1243  H     0.97735   0.53850   0.61285   0.00000  Uiso   1.00
H1244  H     0.69094   0.47122   0.89076   0.00000  Uiso   1.00
H1245  H     0.84991   0.48862   0.58437   0.00000  Uiso   1.00
H1246  H     0.82277   0.54141   0.92138   0.00000  Uiso   1.00
H1247  H     0.77443   0.45059   0.79661   0.00000  Uiso   1.00
H1248  H     0.89233   0.54923   0.70319   0.00000  Uiso   1.00
N1249  N     0.78403   0.50001   0.74999   0.00000  Uiso   1.00
N1250  N     0.88264   0.49999   0.75001   0.00000  Uiso   1.00
O1251  O     0.70625   0.43989   0.75000   0.00000  Uiso   1.00
O1252  O     0.96042   0.56011   0.75000   0.00000  Uiso   1.00
O1253  O     0.96039   0.43988   0.75001   0.00000  Uiso   1.00
O1254  O     0.70628   0.56012   0.74999   0.00000  Uiso   1.00
O1255  O     0.68519   0.50001   0.81491   0.00000  Uiso   1.00
O1256  O     0.98148   0.49999   0.68509   0.00000  Uiso   1.00
O1257  O     0.93933   0.50000   0.81492   0.00000  Uiso   1.00
O1258  O     0.72733   0.50000   0.68508   0.00000  Uiso   1.00
C1259  C     0.67169   0.45219   0.97709   0.00000  Uiso   1.00
O1260  O     0.98936   0.42669   0.50713   0.00000  Uiso   1.00
O1261  O     0.72166   0.45888   0.96076   0.00000  Uiso   1.00
H1262  H     0.74073   0.44208   0.97762   0.00000  Uiso   1.00
C1263  C     0.66713   0.57010   0.53016   0.00000  Uiso   1.00
O1264  O     0.95674   0.56370   0.54008   0.00000  Uiso   1.00
O1265  O     0.68704   0.60446   0.50338   0.00000  Uiso   1.00
H1266  H     0.99524   0.62069   0.99322   0.00000  Uiso   1.00
C1267  C     0.67630   0.37849   0.66496   0.00000  Uiso   1.00
H1268  H     0.67539   0.41259   0.66832   0.00000  Uiso   1.00
H1269  H     0.71156   0.37117   0.64075   0.00000  Uiso   1.00
H1270  H     0.97954   0.36957   0.65061   0.00000  Uiso   1.00
C1271  C     0.99022   0.62154   0.83516   0.00000  Uiso   1.00
H1272  H     0.99111   0.58744   0.83179   0.00000  Uiso   1.00
H1273  H     0.68697   0.63042   0.84954   0.00000  Uiso   1.00
H1274  H     0.95496   0.62888   0.85935   0.00000  Uiso   1.00
C1275  C     0.67720   0.61979   0.66648   0.00000  Uiso   1.00
H1276  H     0.70938   0.59972   0.66097   0.00000  Uiso   1.00
H1277  H     0.97786   0.59991   0.66996   0.00000  Uiso   1.00
H1278  H     0.68201   0.63850   0.63549   0.00000  Uiso   1.00
C1279  C     0.98945   0.38028   0.83362   0.00000  Uiso   1.00
H1280  H     0.95726   0.40035   0.83917   0.00000  Uiso   1.00
H1281  H     0.98469   0.36154   0.86458   0.00000  Uiso   1.00
H1282  H     0.68876   0.40020   0.83015   0.00000  Uiso   1.00
C1283  C     0.86303   0.44070   0.80449   0.00000  Uiso   1.00
O1284  O     0.86184   0.44867   0.84337   0.00000  Uiso   1.00
O1285  O     0.87301   0.40055   0.78807   0.00000  Uiso   1.00
H1286  H     0.88071   0.38115   0.81098   0.00000  Uiso   1.00
C1287  C     0.80393   0.55891   0.69494   0.00000  Uiso   1.00
O1288  O     0.79357   0.59385   0.70918   0.00000  Uiso   1.00
O1289  O     0.80785   0.54977   0.65000   0.00000  Uiso   1.00
H1290  H     0.79910   0.57407   0.63301   0.00000  Uiso   1.00
C1291  C     0.33313   0.75428   0.74985   0.00000  Uiso   1.00
C1292  C     0.00018   0.91239   0.75022   0.00000  Uiso   1.00
C1293  C     0.19259   0.82456   0.54821   0.00000  Uiso   1.00
C1294  C     0.14573   0.86601   0.95637   0.00000  Uiso   1.00
C1295  C     0.24007   0.81555   0.52586   0.00000  Uiso   1.00
C1296  C     0.09862   0.87584   0.97942   0.00000  Uiso   1.00
C1297  C     0.00442   0.68839   0.70886   0.00000  Uiso   1.00
C1298  C     0.32883   0.97830   0.79125   0.00000  Uiso   1.00
C1299  C     0.00497   0.97815   0.70923   0.00000  Uiso   1.00
C1300  C     0.32833   0.68855   0.79087   0.00000  Uiso   1.00
C1301  C     0.00052   0.95711   0.75033   0.00000  Uiso   1.00
C1302  C     0.33277   0.70958   0.74976   0.00000  Uiso   1.00
C1303  C     0.18260   0.80561   0.77611   0.00000  Uiso   1.00
C1304  C     0.15076   0.86104   0.72387   0.00000  Uiso   1.00
C1305  C     0.13332   0.80586   0.77592   0.00000  Uiso   1.00
C1306  C     0.20005   0.86073   0.72400   0.00000  Uiso   1.00
C1307  C     0.30602   0.83271   0.83606   0.00000  Uiso   1.00
C1308  C     0.02730   0.83440   0.66398   0.00000  Uiso   1.00
C1309  C     0.29095   0.83028   0.88535   0.00000  Uiso   1.00
C1310  C     0.04248   0.84110   0.61521   0.00000  Uiso   1.00
C1311  C     0.30508   0.80738   0.95556   0.00000  Uiso   1.00
C1312  C     0.03166   0.87632   0.54904   0.00000  Uiso   1.00
C1313  C     0.32157   0.81416   0.90906   0.00000  Uiso   1.00
C1314  C     0.01340   0.86295   0.59378   0.00000  Uiso   1.00
C1315  C     0.24402   0.84134   0.90815   0.00000  Uiso   1.00
C1316  C     0.08942   0.83100   0.59162   0.00000  Uiso   1.00
C1317  C     0.22594   0.83630   0.95495   0.00000  Uiso   1.00
C1318  C     0.11003   0.84518   0.54744   0.00000  Uiso   1.00
C1319  C     0.25714   0.81920   0.97901   0.00000  Uiso   1.00
C1320  C     0.07999   0.86635   0.52517   0.00000  Uiso   1.00
C1321  C     0.17734   0.84695   0.97817   0.00000  Uiso   1.00
C1322  C     0.15967   0.83829   0.52491   0.00000  Uiso   1.00
Cu1323 Cu    0.04689   0.83334   0.75000   0.00000  Uiso   1.00
Cu1324 Cu    0.28645   0.83333   0.75000   0.00000  Uiso   1.00
H1325  H     0.26337   0.80661   0.54630   0.00000  Uiso   1.00
H1326  H     0.07646   0.88942   0.96013   0.00000  Uiso   1.00
H1327  H     0.10926   0.81185   0.60883   0.00000  Uiso   1.00
H1328  H     0.22211   0.85316   0.88795   0.00000  Uiso   1.00
H1329  H     0.31068   0.87183   0.61285   0.00000  Uiso   1.00
H1330  H     0.02427   0.80456   0.89076   0.00000  Uiso   1.00
H1331  H     0.18324   0.82196   0.58437   0.00000  Uiso   1.00
H1332  H     0.15610   0.87474   0.92138   0.00000  Uiso   1.00
H1333  H     0.10776   0.78393   0.79661   0.00000  Uiso   1.00
H1334  H     0.22566   0.88256   0.70319   0.00000  Uiso   1.00
N1335  N     0.11736   0.83334   0.74999   0.00000  Uiso   1.00
N1336  N     0.21597   0.83332   0.75001   0.00000  Uiso   1.00
O1337  O     0.03958   0.77322   0.75000   0.00000  Uiso   1.00
O1338  O     0.29375   0.89345   0.75000   0.00000  Uiso   1.00
O1339  O     0.29372   0.77321   0.75001   0.00000  Uiso   1.00
O1340  O     0.03961   0.89346   0.74999   0.00000  Uiso   1.00
O1341  O     0.01852   0.83334   0.81491   0.00000  Uiso   1.00
O1342  O     0.31481   0.83332   0.68509   0.00000  Uiso   1.00
O1343  O     0.27267   0.83333   0.81492   0.00000  Uiso   1.00
O1344  O     0.06067   0.83333   0.68508   0.00000  Uiso   1.00
C1345  C     0.00502   0.78552   0.97709   0.00000  Uiso   1.00
O1346  O     0.32269   0.76003   0.50713   0.00000  Uiso   1.00
O1347  O     0.05500   0.79221   0.96076   0.00000  Uiso   1.00
H1348  H     0.07406   0.77541   0.97762   0.00000  Uiso   1.00
C1349  C     0.00046   0.90344   0.53016   0.00000  Uiso   1.00
O1350  O     0.29007   0.89704   0.54008   0.00000  Uiso   1.00
O1351  O     0.02038   0.93779   0.50338   0.00000  Uiso   1.00
H1352  H     0.32857   0.95403   0.99322   0.00000  Uiso   1.00
C1353  C     0.00964   0.71182   0.66496   0.00000  Uiso   1.00
H1354  H     0.00873   0.74592   0.66832   0.00000  Uiso   1.00
H1355  H     0.04490   0.70450   0.64075   0.00000  Uiso   1.00
H1356  H     0.31288   0.70291   0.65061   0.00000  Uiso   1.00
C1357  C     0.32356   0.95487   0.83516   0.00000  Uiso   1.00
H1358  H     0.32444   0.92077   0.83179   0.00000  Uiso   1.00
H1359  H     0.02030   0.96375   0.84954   0.00000  Uiso   1.00
H1360  H     0.28829   0.96221   0.85935   0.00000  Uiso   1.00
C1361  C     0.01054   0.95312   0.66648   0.00000  Uiso   1.00
H1362  H     0.04271   0.93305   0.66097   0.00000  Uiso   1.00
H1363  H     0.31120   0.93325   0.66996   0.00000  Uiso   1.00
H1364  H     0.01534   0.97183   0.63549   0.00000  Uiso   1.00
C1365  C     0.32278   0.71361   0.83362   0.00000  Uiso   1.00
H1366  H     0.29060   0.73368   0.83917   0.00000  Uiso   1.00
H1367  H     0.31803   0.69487   0.86458   0.00000  Uiso   1.00
H1368  H     0.02209   0.73353   0.83015   0.00000  Uiso   1.00
C1369  C     0.19636   0.77403   0.80449   0.00000  Uiso   1.00
O1370  O     0.19517   0.78200   0.84337   0.00000  Uiso   1.00
O1371  O     0.20635   0.73389   0.78807   0.00000  Uiso   1.00
H1372  H     0.21404   0.71448   0.81098   0.00000  Uiso   1.00
C1373  C     0.13726   0.89224   0.69494   0.00000  Uiso   1.00
O1374  O     0.12690   0.92718   0.70918   0.00000  Uiso   1.00
O1375  O     0.14119   0.88310   0.65000   0.00000  Uiso   1.00
H1376  H     0.13243   0.90740   0.63301   0.00000  Uiso   1.00
C1377  C     0.66647   0.75428   0.74985   0.00000  Uiso   1.00
C1378  C     0.33351   0.91239   0.75022   0.00000  Uiso   1.00
C1379  C     0.52593   0.82456   0.54821   0.00000  Uiso   1.00
C1380  C     0.47907   0.86601   0.95637   0.00000  Uiso   1.00
C1381  C     0.57341   0.81555   0.52586   0.00000  Uiso   1.00
C1382  C     0.43196   0.87584   0.97942   0.00000  Uiso   1.00
C1383  C     0.33776   0.68839   0.70886   0.00000  Uiso   1.00
C1384  C     0.66217   0.97830   0.79125   0.00000  Uiso   1.00
C1385  C     0.33831   0.97815   0.70923   0.00000  Uiso   1.00
C1386  C     0.66166   0.68855   0.79087   0.00000  Uiso   1.00
C1387  C     0.33385   0.95711   0.75033   0.00000  Uiso   1.00
C1388  C     0.66611   0.70958   0.74976   0.00000  Uiso   1.00
C1389  C     0.51594   0.80561   0.77611   0.00000  Uiso   1.00
C1390  C     0.48410   0.86104   0.72387   0.00000  Uiso   1.00
C1391  C     0.46666   0.80586   0.77592   0.00000  Uiso   1.00
C1392  C     0.53338   0.86073   0.72400   0.00000  Uiso   1.00
C1393  C     0.63935   0.83271   0.83606   0.00000  Uiso   1.00
C1394  C     0.36063   0.83440   0.66398   0.00000  Uiso   1.00
C1395  C     0.62428   0.83028   0.88535   0.00000  Uiso   1.00
C1396  C     0.37581   0.84110   0.61521   0.00000  Uiso   1.00
C1397  C     0.63841   0.80738   0.95556   0.00000  Uiso   1.00
C1398  C     0.36499   0.87632   0.54904   0.00000  Uiso   1.00
C1399  C     0.65491   0.81416   0.90906   0.00000  Uiso   1.00
C1400  C     0.34673   0.86295   0.59378   0.00000  Uiso   1.00
C1401  C     0.57736   0.84134   0.90815   0.00000  Uiso   1.00
C1402  C     0.42276   0.83100   0.59162   0.00000  Uiso   1.00
C1403  C     0.55928   0.83630   0.95495   0.00000  Uiso   1.00
C1404  C     0.44337   0.84518   0.54744   0.00000  Uiso   1.00
C1405  C     0.59047   0.81920   0.97901   0.00000  Uiso   1.00
C1406  C     0.41333   0.86635   0.52517   0.00000  Uiso   1.00
C1407  C     0.51067   0.84695   0.97817   0.00000  Uiso   1.00
C1408  C     0.49301   0.83829   0.52491   0.00000  Uiso   1.00
Cu1409 Cu    0.38022   0.83334   0.75000   0.00000  Uiso   1.00
Cu1410 Cu    0.61978   0.83333   0.75000   0.00000  Uiso   1.00
H1411  H     0.59670   0.80661   0.54630   0.00000  Uiso   1.00
H1412  H     0.40979   0.88942   0.96013   0.00000  Uiso   1.00
H1413  H     0.44259   0.81185   0.60883   0.00000  Uiso   1.00
H1414  H     0.55545   0.85316   0.88795   0.00000  Uiso   1.00
H1415  H     0.64401   0.87183   0.61285   0.00000  Uiso   1.00
H1416  H     0.35761   0.80456   0.89076   0.00000  Uiso   1.00
H1417  H     0.51657   0.82196   0.58437   0.00000  Uiso   1.00
H1418  H     0.48943   0.87474   0.92138   0.00000  Uiso   1.00
H1419  H     0.44109   0.78393   0.79661   0.00000  Uiso   1.00
H1420  H     0.55899   0.88256   0.70319   0.00000  Uiso   1.00
N1421  N     0.45069   0.83334   0.74999   0.00000  Uiso   1.00
N1422  N     0.54931   0.83332   0.75001   0.00000  Uiso   1.00
O1423  O     0.37291   0.77322   0.75000   0.00000  Uiso   1.00
O1424  O     0.62709   0.89345   0.75000   0.00000  Uiso   1.00
O1425  O     0.62706   0.77321   0.75001   0.00000  Uiso   1.00
O1426  O     0.37294   0.89346   0.74999   0.00000  Uiso   1.00
O1427  O     0.35186   0.83334   0.81491   0.00000  Uiso   1.00
O1428  O     0.64814   0.83332   0.68509   0.00000  Uiso   1.00
O1429  O     0.60600   0.83333   0.81492   0.00000  Uiso   1.00
O1430  O     0.39400   0.83333   0.68508   0.00000  Uiso   1.00
C1431  C     0.33835   0.78552   0.97709   0.00000  Uiso   1.00
O1432  O     0.65602   0.76003   0.50713   0.00000  Uiso   1.00
O1433  O     0.38833   0.79221   0.96076   0.00000  Uiso   1.00
H1434  H     0.40740   0.77541   0.97762   0.00000  Uiso   1.00
C1435  C     0.33379   0.90344   0.53016   0.00000  Uiso   1.00
O1436  O     0.62341   0.89704   0.54008   0.00000  Uiso   1.00
O1437  O     0.35371   0.93779   0.50338   0.00000  Uiso   1.00
H1438  H     0.66190   0.95403   0.99322   0.00000  Uiso   1.00
C1439  C     0.34297   0.71182   0.66496   0.00000  Uiso   1.00
H1440  H     0.34206   0.74592   0.66832   0.00000  Uiso   1.00
H1441  H     0.37823   0.70450   0.64075   0.00000  Uiso   1.00
H1442  H     0.64621   0.70291   0.65061   0.00000  Uiso   1.00
C1443  C     0.65689   0.95487   0.83516   0.00000  Uiso   1.00
H1444  H     0.65777   0.92077   0.83179   0.00000  Uiso   1.00
H1445  H     0.35363   0.96375   0.84954   0.00000  Uiso   1.00
H1446  H     0.62163   0.96221   0.85935   0.00000  Uiso   1.00
C1447  C     0.34387   0.95312   0.66648   0.00000  Uiso   1.00
H1448  H     0.37605   0.93305   0.66097   0.00000  Uiso   1.00
H1449  H     0.64453   0.93325   0.66996   0.00000  Uiso   1.00
H1450  H     0.34867   0.97183   0.63549   0.00000  Uiso   1.00
C1451  C     0.65612   0.71361   0.83362   0.00000  Uiso   1.00
H1452  H     0.62393   0.73368   0.83917   0.00000  Uiso   1.00
H1453  H     0.65136   0.69487   0.86458   0.00000  Uiso   1.00
H1454  H     0.35542   0.73353   0.83015   0.00000  Uiso   1.00
C1455  C     0.52970   0.77403   0.80449   0.00000  Uiso   1.00
O1456  O     0.52851   0.78200   0.84337   0.00000  Uiso   1.00
O1457  O     0.53968   0.73389   0.78807   0.00000  Uiso   1.00
H1458  H     0.54738   0.71448   0.81098   0.00000  Uiso   1.00
C1459  C     0.47059   0.89224   0.69494   0.00000  Uiso   1.00
O1460  O     0.46024   0.92718   0.70918   0.00000  Uiso   1.00
O1461  O     0.47452   0.88310   0.65000   0.00000  Uiso   1.00
H1462  H     0.46576   0.90740   0.63301   0.00000  Uiso   1.00
C1463  C     0.99980   0.75428   0.74985   0.00000  Uiso   1.00
C1464  C     0.66684   0.91239   0.75022   0.00000  Uiso   1.00
C1465  C     0.85926   0.82456   0.54821   0.00000  Uiso   1.00
C1466  C     0.81240   0.86601   0.95637   0.00000  Uiso   1.00
C1467  C     0.90674   0.81555   0.52586   0.00000  Uiso   1.00
C1468  C     0.76529   0.87584   0.97942   0.00000  Uiso   1.00
C1469  C     0.67109   0.68839   0.70886   0.00000  Uiso   1.00
C1470  C     0.99550   0.97830   0.79125   0.00000  Uiso   1.00
C1471  C     0.67164   0.97815   0.70923   0.00000  Uiso   1.00
C1472  C     0.99499   0.68855   0.79087   0.00000  Uiso   1.00
C1473  C     0.66719   0.95711   0.75033   0.00000  Uiso   1.00
C1474  C     0.99944   0.70958   0.74976   0.00000  Uiso   1.00
C1475  C     0.84927   0.80561   0.77611   0.00000  Uiso   1.00
C1476  C     0.81743   0.86104   0.72387   0.00000  Uiso   1.00
C1477  C     0.79999   0.80586   0.77592   0.00000  Uiso   1.00
C1478  C     0.86672   0.86073   0.72400   0.00000  Uiso   1.00
C1479  C     0.97268   0.83271   0.83606   0.00000  Uiso   1.00
C1480  C     0.69396   0.83440   0.66398   0.00000  Uiso   1.00
C1481  C     0.95762   0.83028   0.88535   0.00000  Uiso   1.00
C1482  C     0.70914   0.84110   0.61521   0.00000  Uiso   1.00
C1483  C     0.97174   0.80738   0.95556   0.00000  Uiso   1.00
C1484  C     0.69833   0.87632   0.54904   0.00000  Uiso   1.00
C1485  C     0.98824   0.81416   0.90906   0.00000  Uiso   1.00
C1486  C     0.68006   0.86295   0.59378   0.00000  Uiso   1.00
C1487  C     0.91069   0.84134   0.90815   0.00000  Uiso   1.00
C1488  C     0.75609   0.83100   0.59162   0.00000  Uiso   1.00
C1489  C     0.89261   0.83630   0.95495   0.00000  Uiso   1.00
C1490  C     0.77670   0.84518   0.54744   0.00000  Uiso   1.00
C1491  C     0.92380   0.81920   0.97901   0.00000  Uiso   1.00
C1492  C     0.74666   0.86635   0.52517   0.00000  Uiso   1.00
C1493  C     0.84401   0.84695   0.97817   0.00000  Uiso   1.00
C1494  C     0.82634   0.83829   0.52491   0.00000  Uiso   1.00
Cu1495 Cu    0.71355   0.83334   0.75000   0.00000  Uiso   1.00
Cu1496 Cu    0.95311   0.83333   0.75000   0.00000  Uiso   1.00
H1497  H     0.93004   0.80661   0.54630   0.00000  Uiso   1.00
H1498  H     0.74312   0.88942   0.96013   0.00000  Uiso   1.00
H1499  H     0.77592   0.81185   0.60883   0.00000  Uiso   1.00
H1500  H     0.88878   0.85316   0.88795   0.00000  Uiso   1.00
H1501  H     0.97735   0.87183   0.61285   0.00000  Uiso   1.00
H1502  H     0.69094   0.80456   0.89076   0.00000  Uiso   1.00
H1503  H     0.84991   0.82196   0.58437   0.00000  Uiso   1.00
H1504  H     0.82277   0.87474   0.92138   0.00000  Uiso   1.00
H1505  H     0.77443   0.78393   0.79661   0.00000  Uiso   1.00
H1506  H     0.89233   0.88256   0.70319   0.00000  Uiso   1.00
N1507  N     0.78403   0.83334   0.74999   0.00000  Uiso   1.00
N1508  N     0.88264   0.83332   0.75001   0.00000  Uiso   1.00
O1509  O     0.70625   0.77322   0.75000   0.00000  Uiso   1.00
O1510  O     0.96042   0.89345   0.75000   0.00000  Uiso   1.00
O1511  O     0.96039   0.77321   0.75001   0.00000  Uiso   1.00
O1512  O     0.70628   0.89346   0.74999   0.00000  Uiso   1.00
O1513  O     0.68519   0.83334   0.81491   0.00000  Uiso   1.00
O1514  O     0.98148   0.83332   0.68509   0.00000  Uiso   1.00
O1515  O     0.93933   0.83333   0.81492   0.00000  Uiso   1.00
O1516  O     0.72733   0.83333   0.68508   0.00000  Uiso   1.00
C1517  C     0.67169   0.78552   0.97709   0.00000  Uiso   1.00
O1518  O     0.98936   0.76003   0.50713   0.00000  Uiso   1.00
O1519  O     0.72166   0.79221   0.96076   0.00000  Uiso   1.00
H1520  H     0.74073   0.77541   0.97762   0.00000  Uiso   1.00
C1521  C     0.66713   0.90344   0.53016   0.00000  Uiso   1.00
O1522  O     0.95674   0.89704   0.54008   0.00000  Uiso   1.00
O1523  O     0.68704   0.93779   0.50338   0.00000  Uiso   1.00
H1524  H     0.99524   0.95403   0.99322   0.00000  Uiso   1.00
C1525  C     0.67630   0.71182   0.66496   0.00000  Uiso   1.00
H1526  H     0.67539   0.74592   0.66832   0.00000  Uiso   1.00
H1527  H     0.71156   0.70450   0.64075   0.00000  Uiso   1.00
H1528  H     0.97954   0.70291   0.65061   0.00000  Uiso   1.00
C1529  C     0.99022   0.95487   0.83516   0.00000  Uiso   1.00
H1530  H     0.99111   0.92077   0.83179   0.00000  Uiso   1.00
H1531  H     0.68697   0.96375   0.84954   0.00000  Uiso   1.00
H1532  H     0.95496   0.96221   0.85935   0.00000  Uiso   1.00
C1533  C     0.67720   0.95312   0.66648   0.00000  Uiso   1.00
H1534  H     0.70938   0.93305   0.66097   0.00000  Uiso   1.00
H1535  H     0.97786   0.93325   0.66996   0.00000  Uiso   1.00
H1536  H     0.68201   0.97183   0.63549   0.00000  Uiso   1.00
C1537  C     0.98945   0.71361   0.83362   0.00000  Uiso   1.00
H1538  H     0.95726   0.73368   0.83917   0.00000  Uiso   1.00
H1539  H     0.98469   0.69487   0.86458   0.00000  Uiso   1.00
H1540  H     0.68876   0.73353   0.83015   0.00000  Uiso   1.00
C1541  C     0.86303   0.77403   0.80449   0.00000  Uiso   1.00
O1542  O     0.86184   0.78200   0.84337   0.00000  Uiso   1.00
O1543  O     0.87301   0.73389   0.78807   0.00000  Uiso   1.00
H1544  H     0.88071   0.71448   0.81098   0.00000  Uiso   1.00
C1545  C     0.80393   0.89224   0.69494   0.00000  Uiso   1.00
O1546  O     0.79357   0.92718   0.70918   0.00000  Uiso   1.00
O1547  O     0.80785   0.88310   0.65000   0.00000  Uiso   1.00
H1548  H     0.79910   0.90740   0.63301   0.00000  Uiso   1.00
loop_
_geom_bond_atom_site_label_1
_geom_bond_atom_site_label_2
_geom_bond_distance
_geom_bond_site_symmetry_2
_ccdc_geom_bond_type
C1     C12     1.442   .     S
C1     O49     1.292   .     A
C1     O133    1.290   .     S
C2     O50     1.293   .     A
C2     C11     1.443   .     S
C2     O220    1.290   1_455 S
C3     C32     1.412   .     A
C3     H41     1.078   .     S
C3     C5      1.384   .     A
C4     H42     1.075   .     S
C4     C6      1.387   .     A
C4     C31     1.416   .     A
C5     H35     1.080   .     S
C5     C803    1.399   1_554 S
C6     H36     1.080   .     S
C6     C804    1.398   .     S
C7     C63     1.520   .     S
C7     C525    1.406   1_545 S
C7     C184    1.413   1_455 S
C8     C67     1.520   .     S
C8     C268    1.407   .     S
C8     C97     1.414   .     S
C9     C11     1.411   .     A
C9     C71     1.524   .     S
C9     C265    1.406   .     S
C10    C75     1.524   .     S
C10    C12     1.411   .     A
C10    C524    1.407   1_545 S
C11    C180    1.414   1_455 S
C12    C93     1.413   .     S
C13    C79     1.469   .     S
C13    N46     1.384   .     A
C13    C15     1.418   .     A
C14    C83     1.469   .     S
C14    N45     1.384   .     A
C14    C16     1.417   .     A
C15    N45     1.358   .     A
C15    H43     1.083   .     S
C16    H44     1.083   .     S
C16    N46     1.358   .     A
C17    O53     1.300   .     A
C17    C19     1.466   .     S
C17    O137    1.299   .     S
C18    C20     1.464   .     S
C18    O54     1.300   .     A
C18    O224    1.298   1_455 S
C19    C23     1.395   .     A
C19    C25     1.391   .     A
C20    C24     1.396   .     A
C20    C26     1.389   .     A
C21    C23     1.400   .     A
C21    C29     1.426   .     A
C21    C141    1.489   .     S
C22    C24     1.401   .     A
C22    C59     1.488   .     S
C22    C30     1.424   .     A
C23    H126    1.084   .     S
C24    H211    1.084   1_455 S
C25    H38     1.073   .     S
C25    C27     1.404   .     A
C26    H37     1.078   .     S
C26    C28     1.403   .     A
C27    C29     1.427   .     A
C27    C31     1.431   .     A
C28    C32     1.425   .     A
C28    C30     1.423   .     A
C29    C779    1.399   .     S
C30    C780    1.398   1_554 S
C31    C806    1.419   .     S
C32    C805    1.419   1_554 S
Cu33   N45     2.025   .     S
Cu33   O50     1.954   .     S
Cu33   O51     1.947   .     S
Cu33   O47     1.948   .     S
Cu33   O54     1.936   .     S
Cu33   Cu206   2.694   1_455 S
Cu34   N46     2.025   .     S
Cu34   O48     1.948   .     S
Cu34   O49     1.954   .     S
Cu34   O52     1.947   .     S
Cu34   O53     1.936   .     S
Cu34   Cu119   2.694   .     S
H39    C110    1.084   .     S
H40    C195    1.084   1_455 S
O47    C173    1.290   1_455 S
O48    C88     1.290   .     S
O51    C189    1.299   1_455 S
O52    C104    1.298   .     S
C55    O57     1.398   .     S
C55    C193    1.489   1_455 S
C55    O1002   1.223   1_455 S
O56    C915    1.223   1_554 S
O57    H58     1.014   .     S
C59    O61     1.399   .     S
C59    O232    1.223   1_455 S
O60    C145    1.223   .     S
O61    H1008   1.014   1_454 S
H62    O921    1.014   .     S
C63    H65     1.110   .     S
C63    H64     1.106   .     S
C63    H238    1.110   1_455 S
H66    C149    1.110   .     S
C67    H68     1.105   .     S
C67    H70     1.110   .     S
C67    H155    1.110   .     S
H69    C239    1.110   1_455 S
C71    H74     1.105   .     S
C71    H72     1.110   .     S
C71    H245    1.110   1_455 S
H73    C157    1.110   .     S
C75    H76     1.110   .     S
C75    H77     1.105   .     S
C75    H164    1.110   .     S
H78    C247    1.110   1_455 S
C79    O81     1.398   .     S
C79    O80     1.222   .     D
O81    H82     1.014   .     S
C83    O84     1.222   .     D
C83    O85     1.396   .     S
O85    H86     1.014   .     S
C87    C98     1.442   .     S
C87    O135    1.292   .     A
C87    O219    1.290   .     S
C88    O136    1.293   .     A
C88    C97     1.443   .     S
C89    C118    1.412   .     A
C89    H127    1.078   .     S
C89    C91     1.384   .     A
C90    H128    1.075   .     S
C90    C92     1.387   .     A
C90    C117    1.416   .     A
C91    H121    1.080   .     S
C91    C889    1.399   1_554 S
C92    H122    1.080   .     S
C92    C890    1.398   .     S
C93    C149    1.520   .     S
C93    C611    1.406   1_545 S
C94    C153    1.520   .     S
C94    C354    1.407   .     S
C94    C183    1.414   .     S
C95    C97     1.411   .     A
C95    C157    1.524   .     S
C95    C351    1.406   .     S
C96    C161    1.524   .     S
C96    C98     1.411   .     A
C96    C610    1.407   1_545 S
C98    C179    1.413   .     S
C99    C165    1.469   .     S
C99    N132    1.384   .     A
C99    C101    1.418   .     A
C100   C169    1.469   .     S
C100   N131    1.384   .     A
C100   C102    1.417   .     A
C101   N131    1.358   .     A
C101   H129    1.083   .     S
C102   H130    1.083   .     S
C102   N132    1.358   .     A
C103   O139    1.300   .     A
C103   C105    1.466   .     S
C103   O223    1.299   .     S
C104   C106    1.464   .     S
C104   O140    1.300   .     A
C105   C109    1.395   .     A
C105   C111    1.391   .     A
C106   C110    1.396   .     A
C106   C112    1.389   .     A
C107   C109    1.400   .     A
C107   C115    1.426   .     A
C107   C227    1.489   .     S
C108   C110    1.401   .     A
C108   C145    1.488   .     S
C108   C116    1.424   .     A
C109   H212    1.084   .     S
C111   H124    1.073   .     S
C111   C113    1.404   .     A
C112   H123    1.078   .     S
C112   C114    1.403   .     A
C113   C115    1.427   .     A
C113   C117    1.431   .     A
C114   C118    1.425   .     A
C114   C116    1.423   .     A
C115   C865    1.399   .     S
C116   C866    1.398   1_554 S
C117   C892    1.419   .     S
C118   C891    1.419   1_554 S
Cu119  N131    2.025   .     S
Cu119  O136    1.954   .     S
Cu119  O137    1.947   .     S
Cu119  O133    1.948   .     S
Cu119  O140    1.936   .     S
Cu120  N132    2.025   .     S
Cu120  O134    1.948   .     S
Cu120  O135    1.954   .     S
Cu120  O138    1.947   .     S
Cu120  O139    1.936   .     S
Cu120  Cu205   2.694   .     S
H125   C196    1.084   .     S
O134   C174    1.290   .     S
O138   C190    1.298   .     S
C141   O143    1.398   .     S
C141   O830    1.223   .     S
O142   C1001   1.223   1_554 S
O143   H144    1.014   .     S
C145   O147    1.399   .     S
O146   C231    1.223   .     S
O147   H836    1.014   1_554 S
H148   O1007   1.014   .     S
C149   H151    1.110   .     S
C149   H150    1.106   .     S
H152   C235    1.110   .     S
C153   H154    1.105   .     S
C153   H156    1.110   .     S
C153   H241    1.110   .     S
C157   H160    1.105   .     S
C157   H158    1.110   .     S
H159   C243    1.110   .     S
C161   H162    1.110   .     S
C161   H163    1.105   .     S
C161   H250    1.110   .     S
C165   O167    1.398   .     S
C165   O166    1.222   .     D
O167   H168    1.014   .     S
C169   O170    1.222   .     D
C169   O171    1.396   .     S
O171   H172    1.014   .     S
C173   C184    1.442   .     S
C173   O221    1.292   .     A
C173   O47     1.290   1_655 S
C174   O222    1.293   .     A
C174   C183    1.443   .     S
C175   C204    1.412   .     A
C175   H213    1.078   .     S
C175   C177    1.384   .     A
C176   H214    1.075   .     S
C176   C178    1.387   .     A
C176   C203    1.416   .     A
C177   H207    1.080   .     S
C177   C975    1.399   1_554 S
C178   H208    1.080   .     S
C178   C976    1.398   .     S
C179   C235    1.520   .     S
C179   C697    1.406   1_545 S
C180   C239    1.520   .     S
C180   C440    1.407   .     S
C180   C11     1.414   1_655 S
C181   C183    1.411   .     A
C181   C243    1.524   .     S
C181   C437    1.406   .     S
C182   C247    1.524   .     S
C182   C184    1.411   .     A
C182   C696    1.407   1_545 S
C184   C7      1.413   1_655 S
C185   C251    1.469   .     S
C185   N218    1.384   .     A
C185   C187    1.418   .     A
C186   C255    1.469   .     S
C186   N217    1.384   .     A
C186   C188    1.417   .     A
C187   N217    1.358   .     A
C187   H215    1.083   .     S
C188   H216    1.083   .     S
C188   N218    1.358   .     A
C189   O225    1.300   .     A
C189   C191    1.466   .     S
C189   O51     1.299   1_655 S
C190   C192    1.464   .     S
C190   O226    1.300   .     A
C191   C195    1.395   .     A
C191   C197    1.391   .     A
C192   C196    1.396   .     A
C192   C198    1.389   .     A
C193   C195    1.400   .     A
C193   C201    1.426   .     A
C193   C55     1.489   1_655 S
C194   C196    1.401   .     A
C194   C231    1.488   .     S
C194   C202    1.424   .     A
C195   H40     1.084   1_655 S
C197   H210    1.073   .     S
C197   C199    1.404   .     A
C198   H209    1.078   .     S
C198   C200    1.403   .     A
C199   C201    1.427   .     A
C199   C203    1.431   .     A
C200   C204    1.425   .     A
C200   C202    1.423   .     A
C201   C951    1.399   .     S
C202   C952    1.398   1_554 S
C203   C978    1.419   .     S
C204   C977    1.419   1_554 S
Cu205  N217    2.025   .     S
Cu205  O222    1.954   .     S
Cu205  O223    1.947   .     S
Cu205  O219    1.948   .     S
Cu205  O226    1.936   .     S
Cu206  N218    2.025   .     S
Cu206  O220    1.948   .     S
Cu206  O221    1.954   .     S
Cu206  O224    1.947   .     S
Cu206  O225    1.936   .     S
Cu206  Cu33    2.694   1_655 S
H211   C24     1.084   1_655 S
O220   C2      1.290   1_655 S
O224   C18     1.298   1_655 S
C227   O229    1.398   .     S
C227   O916    1.223   .     S
O228   C829    1.223   1_654 S
O229   H230    1.014   .     S
C231   O233    1.399   .     S
O232   C59     1.223   1_655 S
O233   H922    1.014   1_554 S
H234   O835    1.014   1_655 S
C235   H237    1.110   .     S
C235   H236    1.106   .     S
H238   C63     1.110   1_655 S
C239   H240    1.105   .     S
C239   H242    1.110   .     S
C239   H69     1.110   1_655 S
C243   H246    1.105   .     S
C243   H244    1.110   .     S
H245   C71     1.110   1_655 S
C247   H248    1.110   .     S
C247   H249    1.105   .     S
C247   H78     1.110   1_655 S
C251   O253    1.398   .     S
C251   O252    1.222   .     D
O253   H254    1.014   .     S
C255   O256    1.222   .     D
C255   O257    1.396   .     S
O257   H258    1.014   .     S
C259   C270    1.442   .     S
C259   O307    1.292   .     A
C259   O391    1.290   .     S
C260   O308    1.293   .     A
C260   C269    1.443   .     S
C260   O478    1.290   1_455 S
C261   C290    1.412   .     A
C261   H299    1.078   .     S
C261   C263    1.384   .     A
C262   H300    1.075   .     S
C262   C264    1.387   .     A
C262   C289    1.416   .     A
C263   H293    1.080   .     S
C263   C1061   1.399   1_554 S
C264   H294    1.080   .     S
C264   C1062   1.398   .     S
C265   C321    1.520   .     S
C265   C442    1.413   1_455 S
C266   C325    1.520   .     S
C266   C526    1.407   .     S
C266   C355    1.414   .     S
C267   C269    1.411   .     A
C267   C329    1.524   .     S
C267   C523    1.406   .     S
C268   C333    1.524   .     S
C268   C270    1.411   .     A
C269   C438    1.414   1_455 S
C270   C351    1.413   .     S
C271   C337    1.469   .     S
C271   N304    1.384   .     A
C271   C273    1.418   .     A
C272   C341    1.469   .     S
C272   N303    1.384   .     A
C272   C274    1.417   .     A
C273   N303    1.358   .     A
C273   H301    1.083   .     S
C274   H302    1.083   .     S
C274   N304    1.358   .     A
C275   O311    1.300   .     A
C275   C277    1.466   .     S
C275   O395    1.299   .     S
C276   C278    1.464   .     S
C276   O312    1.300   .     A
C276   O482    1.298   1_455 S
C277   C281    1.395   .     A
C277   C283    1.391   .     A
C278   C282    1.396   .     A
C278   C284    1.389   .     A
C279   C281    1.400   .     A
C279   C287    1.426   .     A
C279   C399    1.489   .     S
C280   C282    1.401   .     A
C280   C317    1.488   .     S
C280   C288    1.424   .     A
C281   H384    1.084   .     S
C282   H469    1.084   1_455 S
C283   H296    1.073   .     S
C283   C285    1.404   .     A
C284   H295    1.078   .     S
C284   C286    1.403   .     A
C285   C287    1.427   .     A
C285   C289    1.431   .     A
C286   C290    1.425   .     A
C286   C288    1.423   .     A
C287   C1037   1.399   .     S
C288   C1038   1.398   1_554 S
C289   C1064   1.419   .     S
C290   C1063   1.419   1_554 S
Cu291  N303    2.025   .     S
Cu291  O308    1.954   .     S
Cu291  O309    1.947   .     S
Cu291  O305    1.948   .     S
Cu291  O312    1.936   .     S
Cu291  Cu464   2.694   1_455 S
Cu292  N304    2.025   .     S
Cu292  O306    1.948   .     S
Cu292  O307    1.954   .     S
Cu292  O310    1.947   .     S
Cu292  O311    1.936   .     S
Cu292  Cu377   2.694   .     S
H297   C368    1.084   .     S
H298   C453    1.084   1_455 S
O305   C431    1.290   1_455 S
O306   C346    1.290   .     S
O309   C447    1.299   1_455 S
O310   C362    1.298   .     S
C313   O315    1.398   .     S
C313   C451    1.489   1_455 S
C313   O1260   1.223   1_455 S
O314   C1173   1.223   1_554 S
O315   H316    1.014   .     S
C317   O319    1.399   .     S
C317   O490    1.223   1_455 S
O318   C403    1.223   .     S
O319   H1266   1.014   1_454 S
H320   O1179   1.014   .     S
C321   H323    1.110   .     S
C321   H322    1.106   .     S
C321   H496    1.110   1_455 S
H324   C407    1.110   .     S
C325   H326    1.105   .     S
C325   H328    1.110   .     S
C325   H413    1.110   .     S
H327   C497    1.110   1_455 S
C329   H332    1.105   .     S
C329   H330    1.110   .     S
C329   H503    1.110   1_455 S
H331   C415    1.110   .     S
C333   H334    1.110   .     S
C333   H335    1.105   .     S
C333   H422    1.110   .     S
H336   C505    1.110   1_455 S
C337   O339    1.398   .     S
C337   O338    1.222   .     D
O339   H340    1.014   .     S
C341   O342    1.222   .     D
C341   O343    1.396   .     S
O343   H344    1.014   .     S
C345   C356    1.442   .     S
C345   O393    1.292   .     A
C345   O477    1.290   .     S
C346   O394    1.293   .     A
C346   C355    1.443   .     S
C347   C376    1.412   .     A
C347   H385    1.078   .     S
C347   C349    1.384   .     A
C348   H386    1.075   .     S
C348   C350    1.387   .     A
C348   C375    1.416   .     A
C349   H379    1.080   .     S
C349   C1147   1.399   1_554 S
C350   H380    1.080   .     S
C350   C1148   1.398   .     S
C351   C407    1.520   .     S
C352   C411    1.520   .     S
C352   C612    1.407   .     S
C352   C441    1.414   .     S
C353   C355    1.411   .     A
C353   C415    1.524   .     S
C353   C609    1.406   .     S
C354   C419    1.524   .     S
C354   C356    1.411   .     A
C356   C437    1.413   .     S
C357   C423    1.469   .     S
C357   N390    1.384   .     A
C357   C359    1.418   .     A
C358   C427    1.469   .     S
C358   N389    1.384   .     A
C358   C360    1.417   .     A
C359   N389    1.358   .     A
C359   H387    1.083   .     S
C360   H388    1.083   .     S
C360   N390    1.358   .     A
C361   O397    1.300   .     A
C361   C363    1.466   .     S
C361   O481    1.299   .     S
C362   C364    1.464   .     S
C362   O398    1.300   .     A
C363   C367    1.395   .     A
C363   C369    1.391   .     A
C364   C368    1.396   .     A
C364   C370    1.389   .     A
C365   C367    1.400   .     A
C365   C373    1.426   .     A
C365   C485    1.489   .     S
C366   C368    1.401   .     A
C366   C403    1.488   .     S
C366   C374    1.424   .     A
C367   H470    1.084   .     S
C369   H382    1.073   .     S
C369   C371    1.404   .     A
C370   H381    1.078   .     S
C370   C372    1.403   .     A
C371   C373    1.427   .     A
C371   C375    1.431   .     A
C372   C376    1.425   .     A
C372   C374    1.423   .     A
C373   C1123   1.399   .     S
C374   C1124   1.398   1_554 S
C375   C1150   1.419   .     S
C376   C1149   1.419   1_554 S
Cu377  N389    2.025   .     S
Cu377  O394    1.954   .     S
Cu377  O395    1.947   .     S
Cu377  O391    1.948   .     S
Cu377  O398    1.936   .     S
Cu378  N390    2.025   .     S
Cu378  O392    1.948   .     S
Cu378  O393    1.954   .     S
Cu378  O396    1.947   .     S
Cu378  O397    1.936   .     S
Cu378  Cu463   2.694   .     S
H383   C454    1.084   .     S
O392   C432    1.290   .     S
O396   C448    1.298   .     S
C399   O401    1.398   .     S
C399   O1088   1.223   .     S
O400   C1259   1.223   1_554 S
O401   H402    1.014   .     S
C403   O405    1.399   .     S
O404   C489    1.223   .     S
O405   H1094   1.014   1_554 S
H406   O1265   1.014   .     S
C407   H409    1.110   .     S
C407   H408    1.106   .     S
H410   C493    1.110   .     S
C411   H412    1.105   .     S
C411   H414    1.110   .     S
C411   H499    1.110   .     S
C415   H418    1.105   .     S
C415   H416    1.110   .     S
H417   C501    1.110   .     S
C419   H420    1.110   .     S
C419   H421    1.105   .     S
C419   H508    1.110   .     S
C423   O425    1.398   .     S
C423   O424    1.222   .     D
O425   H426    1.014   .     S
C427   O428    1.222   .     D
C427   O429    1.396   .     S
O429   H430    1.014   .     S
C431   C442    1.442   .     S
C431   O479    1.292   .     A
C431   O305    1.290   1_655 S
C432   O480    1.293   .     A
C432   C441    1.443   .     S
C433   C462    1.412   .     A
C433   H471    1.078   .     S
C433   C435    1.384   .     A
C434   H472    1.075   .     S
C434   C436    1.387   .     A
C434   C461    1.416   .     A
C435   H465    1.080   .     S
C435   C1233   1.399   1_554 S
C436   H466    1.080   .     S
C436   C1234   1.398   .     S
C437   C493    1.520   .     S
C438   C497    1.520   .     S
C438   C698    1.407   .     S
C438   C269    1.414   1_655 S
C439   C441    1.411   .     A
C439   C501    1.524   .     S
C439   C695    1.406   .     S
C440   C505    1.524   .     S
C440   C442    1.411   .     A
C442   C265    1.413   1_655 S
C443   C509    1.469   .     S
C443   N476    1.384   .     A
C443   C445    1.418   .     A
C444   C513    1.469   .     S
C444   N475    1.384   .     A
C444   C446    1.417   .     A
C445   N475    1.358   .     A
C445   H473    1.083   .     S
C446   H474    1.083   .     S
C446   N476    1.358   .     A
C447   O483    1.300   .     A
C447   C449    1.466   .     S
C447   O309    1.299   1_655 S
C448   C450    1.464   .     S
C448   O484    1.300   .     A
C449   C453    1.395   .     A
C449   C455    1.391   .     A
C450   C454    1.396   .     A
C450   C456    1.389   .     A
C451   C453    1.400   .     A
C451   C459    1.426   .     A
C451   C313    1.489   1_655 S
C452   C454    1.401   .     A
C452   C489    1.488   .     S
C452   C460    1.424   .     A
C453   H298    1.084   1_655 S
C455   H468    1.073   .     S
C455   C457    1.404   .     A
C456   H467    1.078   .     S
C456   C458    1.403   .     A
C457   C459    1.427   .     A
C457   C461    1.431   .     A
C458   C462    1.425   .     A
C458   C460    1.423   .     A
C459   C1209   1.399   .     S
C460   C1210   1.398   1_554 S
C461   C1236   1.419   .     S
C462   C1235   1.419   1_554 S
Cu463  N475    2.025   .     S
Cu463  O480    1.954   .     S
Cu463  O481    1.947   .     S
Cu463  O477    1.948   .     S
Cu463  O484    1.936   .     S
Cu464  N476    2.025   .     S
Cu464  O478    1.948   .     S
Cu464  O479    1.954   .     S
Cu464  O482    1.947   .     S
Cu464  O483    1.936   .     S
Cu464  Cu291   2.694   1_655 S
H469   C282    1.084   1_655 S
O478   C260    1.290   1_655 S
O482   C276    1.298   1_655 S
C485   O487    1.398   .     S
C485   O1174   1.223   .     S
O486   C1087   1.223   1_654 S
O487   H488    1.014   .     S
C489   O491    1.399   .     S
O490   C317    1.223   1_655 S
O491   H1180   1.014   1_554 S
H492   O1093   1.014   1_655 S
C493   H495    1.110   .     S
C493   H494    1.106   .     S
H496   C321    1.110   1_655 S
C497   H498    1.105   .     S
C497   H500    1.110   .     S
C497   H327    1.110   1_655 S
C501   H504    1.105   .     S
C501   H502    1.110   .     S
H503   C329    1.110   1_655 S
C505   H506    1.110   .     S
C505   H507    1.105   .     S
C505   H336    1.110   1_655 S
C509   O511    1.398   .     S
C509   O510    1.222   .     D
O511   H512    1.014   .     S
C513   O514    1.222   .     D
C513   O515    1.396   .     S
O515   H516    1.014   .     S
C517   C528    1.442   .     S
C517   O565    1.292   .     A
C517   O649    1.290   .     S
C518   O566    1.293   .     A
C518   C527    1.443   .     S
C518   O736    1.290   1_455 S
C519   C548    1.412   .     A
C519   H557    1.078   .     S
C519   C521    1.384   .     A
C520   H558    1.075   .     S
C520   C522    1.387   .     A
C520   C547    1.416   .     A
C521   H551    1.080   .     S
C521   C1319   1.399   1_554 S
C522   H552    1.080   .     S
C522   C1320   1.398   .     S
C523   C579    1.520   .     S
C523   C700    1.413   1_455 S
C524   C583    1.520   .     S
C524   C10     1.407   1_565 S
C524   C613    1.414   .     S
C525   C527    1.411   .     A
C525   C587    1.524   .     S
C525   C7      1.406   1_565 S
C526   C591    1.524   .     S
C526   C528    1.411   .     A
C527   C696    1.414   1_455 S
C528   C609    1.413   .     S
C529   C595    1.469   .     S
C529   N562    1.384   .     A
C529   C531    1.418   .     A
C530   C599    1.469   .     S
C530   N561    1.384   .     A
C530   C532    1.417   .     A
C531   N561    1.358   .     A
C531   H559    1.083   .     S
C532   H560    1.083   .     S
C532   N562    1.358   .     A
C533   O569    1.300   .     A
C533   C535    1.466   .     S
C533   O653    1.299   .     S
C534   C536    1.464   .     S
C534   O570    1.300   .     A
C534   O740    1.298   1_455 S
C535   C539    1.395   .     A
C535   C541    1.391   .     A
C536   C540    1.396   .     A
C536   C542    1.389   .     A
C537   C539    1.400   .     A
C537   C545    1.426   .     A
C537   C657    1.489   .     S
C538   C540    1.401   .     A
C538   C575    1.488   .     S
C538   C546    1.424   .     A
C539   H642    1.084   .     S
C540   H727    1.084   1_455 S
C541   H554    1.073   .     S
C541   C543    1.404   .     A
C542   H553    1.078   .     S
C542   C544    1.403   .     A
C543   C545    1.427   .     A
C543   C547    1.431   .     A
C544   C548    1.425   .     A
C544   C546    1.423   .     A
C545   C1295   1.399   .     S
C546   C1296   1.398   1_554 S
C547   C1322   1.419   .     S
C548   C1321   1.419   1_554 S
Cu549  N561    2.025   .     S
Cu549  O566    1.954   .     S
Cu549  O567    1.947   .     S
Cu549  O563    1.948   .     S
Cu549  O570    1.936   .     S
Cu549  Cu722   2.694   1_455 S
Cu550  N562    2.025   .     S
Cu550  O564    1.948   .     S
Cu550  O565    1.954   .     S
Cu550  O568    1.947   .     S
Cu550  O569    1.936   .     S
Cu550  Cu635   2.694   .     S
H555   C626    1.084   .     S
H556   C711    1.084   1_455 S
O563   C689    1.290   1_455 S
O564   C604    1.290   .     S
O567   C705    1.299   1_455 S
O568   C620    1.298   .     S
C571   O573    1.398   .     S
C571   C709    1.489   1_455 S
C571   O1518   1.223   1_455 S
O572   C1431   1.223   1_554 S
O573   H574    1.014   .     S
C575   O577    1.399   .     S
C575   O748    1.223   1_455 S
O576   C661    1.223   .     S
O577   H1524   1.014   1_454 S
H578   O1437   1.014   .     S
C579   H581    1.110   .     S
C579   H580    1.106   .     S
C579   H754    1.110   1_455 S
H582   C665    1.110   .     S
C583   H584    1.105   .     S
C583   H586    1.110   .     S
C583   H671    1.110   .     S
H585   C755    1.110   1_455 S
C587   H590    1.105   .     S
C587   H588    1.110   .     S
C587   H761    1.110   1_455 S
H589   C673    1.110   .     S
C591   H592    1.110   .     S
C591   H593    1.105   .     S
C591   H680    1.110   .     S
H594   C763    1.110   1_455 S
C595   O597    1.398   .     S
C595   O596    1.222   .     D
O597   H598    1.014   .     S
C599   O600    1.222   .     D
C599   O601    1.396   .     S
O601   H602    1.014   .     S
C603   C614    1.442   .     S
C603   O651    1.292   .     A
C603   O735    1.290   .     S
C604   O652    1.293   .     A
C604   C613    1.443   .     S
C605   C634    1.412   .     A
C605   H643    1.078   .     S
C605   C607    1.384   .     A
C606   H644    1.075   .     S
C606   C608    1.387   .     A
C606   C633    1.416   .     A
C607   H637    1.080   .     S
C607   C1405   1.399   1_554 S
C608   H638    1.080   .     S
C608   C1406   1.398   .     S
C609   C665    1.520   .     S
C610   C669    1.520   .     S
C610   C96     1.407   1_565 S
C610   C699    1.414   .     S
C611   C613    1.411   .     A
C611   C673    1.524   .     S
C611   C93     1.406   1_565 S
C612   C677    1.524   .     S
C612   C614    1.411   .     A
C614   C695    1.413   .     S
C615   C681    1.469   .     S
C615   N648    1.384   .     A
C615   C617    1.418   .     A
C616   C685    1.469   .     S
C616   N647    1.384   .     A
C616   C618    1.417   .     A
C617   N647    1.358   .     A
C617   H645    1.083   .     S
C618   H646    1.083   .     S
C618   N648    1.358   .     A
C619   O655    1.300   .     A
C619   C621    1.466   .     S
C619   O739    1.299   .     S
C620   C622    1.464   .     S
C620   O656    1.300   .     A
C621   C625    1.395   .     A
C621   C627    1.391   .     A
C622   C626    1.396   .     A
C622   C628    1.389   .     A
C623   C625    1.400   .     A
C623   C631    1.426   .     A
C623   C743    1.489   .     S
C624   C626    1.401   .     A
C624   C661    1.488   .     S
C624   C632    1.424   .     A
C625   H728    1.084   .     S
C627   H640    1.073   .     S
C627   C629    1.404   .     A
C628   H639    1.078   .     S
C628   C630    1.403   .     A
C629   C631    1.427   .     A
C629   C633    1.431   .     A
C630   C634    1.425   .     A
C630   C632    1.423   .     A
C631   C1381   1.399   .     S
C632   C1382   1.398   1_554 S
C633   C1408   1.419   .     S
C634   C1407   1.419   1_554 S
Cu635  N647    2.025   .     S
Cu635  O652    1.954   .     S
Cu635  O653    1.947   .     S
Cu635  O649    1.948   .     S
Cu635  O656    1.936   .     S
Cu636  N648    2.025   .     S
Cu636  O650    1.948   .     S
Cu636  O651    1.954   .     S
Cu636  O654    1.947   .     S
Cu636  O655    1.936   .     S
Cu636  Cu721   2.694   .     S
H641   C712    1.084   .     S
O650   C690    1.290   .     S
O654   C706    1.298   .     S
C657   O659    1.398   .     S
C657   O1346   1.223   .     S
O658   C1517   1.223   1_554 S
O659   H660    1.014   .     S
C661   O663    1.399   .     S
O662   C747    1.223   .     S
O663   H1352   1.014   1_554 S
H664   O1523   1.014   .     S
C665   H667    1.110   .     S
C665   H666    1.106   .     S
H668   C751    1.110   .     S
C669   H670    1.105   .     S
C669   H672    1.110   .     S
C669   H757    1.110   .     S
C673   H676    1.105   .     S
C673   H674    1.110   .     S
H675   C759    1.110   .     S
C677   H678    1.110   .     S
C677   H679    1.105   .     S
C677   H766    1.110   .     S
C681   O683    1.398   .     S
C681   O682    1.222   .     D
O683   H684    1.014   .     S
C685   O686    1.222   .     D
C685   O687    1.396   .     S
O687   H688    1.014   .     S
C689   C700    1.442   .     S
C689   O737    1.292   .     A
C689   O563    1.290   1_655 S
C690   O738    1.293   .     A
C690   C699    1.443   .     S
C691   C720    1.412   .     A
C691   H729    1.078   .     S
C691   C693    1.384   .     A
C692   H730    1.075   .     S
C692   C694    1.387   .     A
C692   C719    1.416   .     A
C693   H723    1.080   .     S
C693   C1491   1.399   1_554 S
C694   H724    1.080   .     S
C694   C1492   1.398   .     S
C695   C751    1.520   .     S
C696   C755    1.520   .     S
C696   C182    1.407   1_565 S
C696   C527    1.414   1_655 S
C697   C699    1.411   .     A
C697   C759    1.524   .     S
C697   C179    1.406   1_565 S
C698   C763    1.524   .     S
C698   C700    1.411   .     A
C700   C523    1.413   1_655 S
C701   C767    1.469   .     S
C701   N734    1.384   .     A
C701   C703    1.418   .     A
C702   C771    1.469   .     S
C702   N733    1.384   .     A
C702   C704    1.417   .     A
C703   N733    1.358   .     A
C703   H731    1.083   .     S
C704   H732    1.083   .     S
C704   N734    1.358   .     A
C705   O741    1.300   .     A
C705   C707    1.466   .     S
C705   O567    1.299   1_655 S
C706   C708    1.464   .     S
C706   O742    1.300   .     A
C707   C711    1.395   .     A
C707   C713    1.391   .     A
C708   C712    1.396   .     A
C708   C714    1.389   .     A
C709   C711    1.400   .     A
C709   C717    1.426   .     A
C709   C571    1.489   1_655 S
C710   C712    1.401   .     A
C710   C747    1.488   .     S
C710   C718    1.424   .     A
C711   H556    1.084   1_655 S
C713   H726    1.073   .     S
C713   C715    1.404   .     A
C714   H725    1.078   .     S
C714   C716    1.403   .     A
C715   C717    1.427   .     A
C715   C719    1.431   .     A
C716   C720    1.425   .     A
C716   C718    1.423   .     A
C717   C1467   1.399   .     S
C718   C1468   1.398   1_554 S
C719   C1494   1.419   .     S
C720   C1493   1.419   1_554 S
Cu721  N733    2.025   .     S
Cu721  O738    1.954   .     S
Cu721  O739    1.947   .     S
Cu721  O735    1.948   .     S
Cu721  O742    1.936   .     S
Cu722  N734    2.025   .     S
Cu722  O736    1.948   .     S
Cu722  O737    1.954   .     S
Cu722  O740    1.947   .     S
Cu722  O741    1.936   .     S
Cu722  Cu549   2.694   1_655 S
H727   C540    1.084   1_655 S
O736   C518    1.290   1_655 S
O740   C534    1.298   1_655 S
C743   O745    1.398   .     S
C743   O1432   1.223   .     S
O744   C1345   1.223   1_654 S
O745   H746    1.014   .     S
C747   O749    1.399   .     S
O748   C575    1.223   1_655 S
O749   H1438   1.014   1_554 S
H750   O1351   1.014   1_655 S
C751   H753    1.110   .     S
C751   H752    1.106   .     S
H754   C579    1.110   1_655 S
C755   H756    1.105   .     S
C755   H758    1.110   .     S
C755   H585    1.110   1_655 S
C759   H762    1.105   .     S
C759   H760    1.110   .     S
H761   C587    1.110   1_655 S
C763   H764    1.110   .     S
C763   H765    1.105   .     S
C763   H594    1.110   1_655 S
C767   O769    1.398   .     S
C767   O768    1.222   .     D
O769   H770    1.014   .     S
C771   O772    1.222   .     D
C771   O773    1.396   .     S
O773   H774    1.014   .     S
C775   C786    1.442   .     S
C775   O823    1.292   .     A
C775   O907    1.290   .     S
C776   O824    1.293   .     A
C776   C785    1.443   .     S
C776   O994    1.290   1_455 S
C777   C806    1.412   .     A
C777   H815    1.078   .     S
C777   C779    1.384   .     A
C778   H816    1.075   .     S
C778   C780    1.387   .     A
C778   C805    1.416   .     A
C779   H809    1.080   .     S
C780   H810    1.080   .     S
C780   C30     1.398   1_556 S
C781   C837    1.520   .     S
C781   C1299   1.406   1_545 S
C781   C958    1.413   1_455 S
C782   C841    1.520   .     S
C782   C1042   1.407   .     S
C782   C871    1.414   .     S
C783   C785    1.411   .     A
C783   C845    1.524   .     S
C783   C1039   1.406   .     S
C784   C849    1.524   .     S
C784   C786    1.411   .     A
C784   C1298   1.407   1_545 S
C785   C954    1.414   1_455 S
C786   C867    1.413   .     S
C787   C853    1.469   .     S
C787   N820    1.384   .     A
C787   C789    1.418   .     A
C788   C857    1.469   .     S
C788   N819    1.384   .     A
C788   C790    1.417   .     A
C789   N819    1.358   .     A
C789   H817    1.083   .     S
C790   H818    1.083   .     S
C790   N820    1.358   .     A
C791   O827    1.300   .     A
C791   C793    1.466   .     S
C791   O911    1.299   .     S
C792   C794    1.464   .     S
C792   O828    1.300   .     A
C792   O998    1.298   1_455 S
C793   C797    1.395   .     A
C793   C799    1.391   .     A
C794   C798    1.396   .     A
C794   C800    1.389   .     A
C795   C797    1.400   .     A
C795   C803    1.426   .     A
C795   C915    1.489   .     S
C796   C798    1.401   .     A
C796   C833    1.488   .     S
C796   C804    1.424   .     A
C797   H900    1.084   .     S
C798   H985    1.084   1_455 S
C799   H812    1.073   .     S
C799   C801    1.404   .     A
C800   H811    1.078   .     S
C800   C802    1.403   .     A
C801   C803    1.427   .     A
C801   C805    1.431   .     A
C802   C806    1.425   .     A
C802   C804    1.423   .     A
C803   C5      1.399   1_556 S
C805   C32     1.419   1_556 S
Cu807  N819    2.025   .     S
Cu807  O824    1.954   .     S
Cu807  O825    1.947   .     S
Cu807  O821    1.948   .     S
Cu807  O828    1.936   .     S
Cu807  Cu980   2.694   1_455 S
Cu808  N820    2.025   .     S
Cu808  O822    1.948   .     S
Cu808  O823    1.954   .     S
Cu808  O826    1.947   .     S
Cu808  O827    1.936   .     S
Cu808  Cu893   2.694   .     S
H813   C884    1.084   .     S
H814   C969    1.084   1_455 S
O821   C947    1.290   1_455 S
O822   C862    1.290   .     S
O825   C963    1.299   1_455 S
O826   C878    1.298   .     S
C829   O831    1.398   .     S
C829   C967    1.489   1_455 S
C829   O228    1.223   1_456 S
O831   H832    1.014   .     S
C833   O835    1.399   .     S
C833   O1006   1.223   1_455 S
O834   C919    1.223   .     S
O835   H234    1.014   1_455 S
H836   O147    1.014   1_556 S
C837   H839    1.110   .     S
C837   H838    1.106   .     S
C837   H1012   1.110   1_455 S
H840   C923    1.110   .     S
C841   H842    1.105   .     S
C841   H844    1.110   .     S
C841   H929    1.110   .     S
H843   C1013   1.110   1_455 S
C845   H848    1.105   .     S
C845   H846    1.110   .     S
C845   H1019   1.110   1_455 S
H847   C931    1.110   .     S
C849   H850    1.110   .     S
C849   H851    1.105   .     S
C849   H938    1.110   .     S
H852   C1021   1.110   1_455 S
C853   O855    1.398   .     S
C853   O854    1.222   .     D
O855   H856    1.014   .     S
C857   O858    1.222   .     D
C857   O859    1.396   .     S
O859   H860    1.014   .     S
C861   C872    1.442   .     S
C861   O909    1.292   .     A
C861   O993    1.290   .     S
C862   O910    1.293   .     A
C862   C871    1.443   .     S
C863   C892    1.412   .     A
C863   H901    1.078   .     S
C863   C865    1.384   .     A
C864   H902    1.075   .     S
C864   C866    1.387   .     A
C864   C891    1.416   .     A
C865   H895    1.080   .     S
C866   H896    1.080   .     S
C866   C116    1.398   1_556 S
C867   C923    1.520   .     S
C867   C1385   1.406   1_545 S
C868   C927    1.520   .     S
C868   C1128   1.407   .     S
C868   C957    1.414   .     S
C869   C871    1.411   .     A
C869   C931    1.524   .     S
C869   C1125   1.406   .     S
C870   C935    1.524   .     S
C870   C872    1.411   .     A
C870   C1384   1.407   1_545 S
C872   C953    1.413   .     S
C873   C939    1.469   .     S
C873   N906    1.384   .     A
C873   C875    1.418   .     A
C874   C943    1.469   .     S
C874   N905    1.384   .     A
C874   C876    1.417   .     A
C875   N905    1.358   .     A
C875   H903    1.083   .     S
C876   H904    1.083   .     S
C876   N906    1.358   .     A
C877   O913    1.300   .     A
C877   C879    1.466   .     S
C877   O997    1.299   .     S
C878   C880    1.464   .     S
C878   O914    1.300   .     A
C879   C883    1.395   .     A
C879   C885    1.391   .     A
C880   C884    1.396   .     A
C880   C886    1.389   .     A
C881   C883    1.400   .     A
C881   C889    1.426   .     A
C881   C1001   1.489   .     S
C882   C884    1.401   .     A
C882   C919    1.488   .     S
C882   C890    1.424   .     A
C883   H986    1.084   .     S
C885   H898    1.073   .     S
C885   C887    1.404   .     A
C886   H897    1.078   .     S
C886   C888    1.403   .     A
C887   C889    1.427   .     A
C887   C891    1.431   .     A
C888   C892    1.425   .     A
C888   C890    1.423   .     A
C889   C91     1.399   1_556 S
C891   C118    1.419   1_556 S
Cu893  N905    2.025   .     S
Cu893  O910    1.954   .     S
Cu893  O911    1.947   .     S
Cu893  O907    1.948   .     S
Cu893  O914    1.936   .     S
Cu894  N906    2.025   .     S
Cu894  O908    1.948   .     S
Cu894  O909    1.954   .     S
Cu894  O912    1.947   .     S
Cu894  O913    1.936   .     S
Cu894  Cu979   2.694   .     S
H899   C970    1.084   .     S
O908   C948    1.290   .     S
O912   C964    1.298   .     S
C915   O917    1.398   .     S
C915   O56     1.223   1_556 S
O917   H918    1.014   .     S
C919   O921    1.399   .     S
O920   C1005   1.223   .     S
H922   O233    1.014   1_556 S
C923   H925    1.110   .     S
C923   H924    1.106   .     S
H926   C1009   1.110   .     S
C927   H928    1.105   .     S
C927   H930    1.110   .     S
C927   H1015   1.110   .     S
C931   H934    1.105   .     S
C931   H932    1.110   .     S
H933   C1017   1.110   .     S
C935   H936    1.110   .     S
C935   H937    1.105   .     S
C935   H1024   1.110   .     S
C939   O941    1.398   .     S
C939   O940    1.222   .     D
O941   H942    1.014   .     S
C943   O944    1.222   .     D
C943   O945    1.396   .     S
O945   H946    1.014   .     S
C947   C958    1.442   .     S
C947   O995    1.292   .     A
C947   O821    1.290   1_655 S
C948   O996    1.293   .     A
C948   C957    1.443   .     S
C949   C978    1.412   .     A
C949   H987    1.078   .     S
C949   C951    1.384   .     A
C950   H988    1.075   .     S
C950   C952    1.387   .     A
C950   C977    1.416   .     A
C951   H981    1.080   .     S
C952   H982    1.080   .     S
C952   C202    1.398   1_556 S
C953   C1009   1.520   .     S
C953   C1471   1.406   1_545 S
C954   C1013   1.520   .     S
C954   C1214   1.407   .     S
C954   C785    1.414   1_655 S
C955   C957    1.411   .     A
C955   C1017   1.524   .     S
C955   C1211   1.406   .     S
C956   C1021   1.524   .     S
C956   C958    1.411   .     A
C956   C1470   1.407   1_545 S
C958   C781    1.413   1_655 S
C959   C1025   1.469   .     S
C959   N992    1.384   .     A
C959   C961    1.418   .     A
C960   C1029   1.469   .     S
C960   N991    1.384   .     A
C960   C962    1.417   .     A
C961   N991    1.358   .     A
C961   H989    1.083   .     S
C962   H990    1.083   .     S
C962   N992    1.358   .     A
C963   O999    1.300   .     A
C963   C965    1.466   .     S
C963   O825    1.299   1_655 S
C964   C966    1.464   .     S
C964   O1000   1.300   .     A
C965   C969    1.395   .     A
C965   C971    1.391   .     A
C966   C970    1.396   .     A
C966   C972    1.389   .     A
C967   C969    1.400   .     A
C967   C975    1.426   .     A
C967   C829    1.489   1_655 S
C968   C970    1.401   .     A
C968   C1005   1.488   .     S
C968   C976    1.424   .     A
C969   H814    1.084   1_655 S
C971   H984    1.073   .     S
C971   C973    1.404   .     A
C972   H983    1.078   .     S
C972   C974    1.403   .     A
C973   C975    1.427   .     A
C973   C977    1.431   .     A
C974   C978    1.425   .     A
C974   C976    1.423   .     A
C975   C177    1.399   1_556 S
C977   C204    1.419   1_556 S
Cu979  N991    2.025   .     S
Cu979  O996    1.954   .     S
Cu979  O997    1.947   .     S
Cu979  O993    1.948   .     S
Cu979  O1000   1.936   .     S
Cu980  N992    2.025   .     S
Cu980  O994    1.948   .     S
Cu980  O995    1.954   .     S
Cu980  O998    1.947   .     S
Cu980  O999    1.936   .     S
Cu980  Cu807   2.694   1_655 S
H985   C798    1.084   1_655 S
O994   C776    1.290   1_655 S
O998   C792    1.298   1_655 S
C1001  O1003   1.398   .     S
C1001  O142    1.223   1_556 S
O1002  C55     1.223   1_655 S
O1003  H1004   1.014   .     S
C1005  O1007   1.399   .     S
O1006  C833    1.223   1_655 S
H1008  O61     1.014   1_656 S
C1009  H1011   1.110   .     S
C1009  H1010   1.106   .     S
H1012  C837    1.110   1_655 S
C1013  H1014   1.105   .     S
C1013  H1016   1.110   .     S
C1013  H843    1.110   1_655 S
C1017  H1020   1.105   .     S
C1017  H1018   1.110   .     S
H1019  C845    1.110   1_655 S
C1021  H1022   1.110   .     S
C1021  H1023   1.105   .     S
C1021  H852    1.110   1_655 S
C1025  O1027   1.398   .     S
C1025  O1026   1.222   .     D
O1027  H1028   1.014   .     S
C1029  O1030   1.222   .     D
C1029  O1031   1.396   .     S
O1031  H1032   1.014   .     S
C1033  C1044   1.442   .     S
C1033  O1081   1.292   .     A
C1033  O1165   1.290   .     S
C1034  O1082   1.293   .     A
C1034  C1043   1.443   .     S
C1034  O1252   1.290   1_455 S
C1035  C1064   1.412   .     A
C1035  H1073   1.078   .     S
C1035  C1037   1.384   .     A
C1036  H1074   1.075   .     S
C1036  C1038   1.387   .     A
C1036  C1063   1.416   .     A
C1037  H1067   1.080   .     S
C1038  H1068   1.080   .     S
C1038  C288    1.398   1_556 S
C1039  C1095   1.520   .     S
C1039  C1216   1.413   1_455 S
C1040  C1099   1.520   .     S
C1040  C1300   1.407   .     S
C1040  C1129   1.414   .     S
C1041  C1043   1.411   .     A
C1041  C1103   1.524   .     S
C1041  C1297   1.406   .     S
C1042  C1107   1.524   .     S
C1042  C1044   1.411   .     A
C1043  C1212   1.414   1_455 S
C1044  C1125   1.413   .     S
C1045  C1111   1.469   .     S
C1045  N1078   1.384   .     A
C1045  C1047   1.418   .     A
C1046  C1115   1.469   .     S
C1046  N1077   1.384   .     A
C1046  C1048   1.417   .     A
C1047  N1077   1.358   .     A
C1047  H1075   1.083   .     S
C1048  H1076   1.083   .     S
C1048  N1078   1.358   .     A
C1049  O1085   1.300   .     A
C1049  C1051   1.466   .     S
C1049  O1169   1.299   .     S
C1050  C1052   1.464   .     S
C1050  O1086   1.300   .     A
C1050  O1256   1.298   1_455 S
C1051  C1055   1.395   .     A
C1051  C1057   1.391   .     A
C1052  C1056   1.396   .     A
C1052  C1058   1.389   .     A
C1053  C1055   1.400   .     A
C1053  C1061   1.426   .     A
C1053  C1173   1.489   .     S
C1054  C1056   1.401   .     A
C1054  C1091   1.488   .     S
C1054  C1062   1.424   .     A
C1055  H1158   1.084   .     S
C1056  H1243   1.084   1_455 S
C1057  H1070   1.073   .     S
C1057  C1059   1.404   .     A
C1058  H1069   1.078   .     S
C1058  C1060   1.403   .     A
C1059  C1061   1.427   .     A
C1059  C1063   1.431   .     A
C1060  C1064   1.425   .     A
C1060  C1062   1.423   .     A
C1061  C263    1.399   1_556 S
C1063  C290    1.419   1_556 S
Cu1065 N1077   2.025   .     S
Cu1065 O1082   1.954   .     S
Cu1065 O1083   1.947   .     S
Cu1065 O1079   1.948   .     S
Cu1065 O1086   1.936   .     S
Cu1065 Cu1238  2.694   1_455 S
Cu1066 N1078   2.025   .     S
Cu1066 O1080   1.948   .     S
Cu1066 O1081   1.954   .     S
Cu1066 O1084   1.947   .     S
Cu1066 O1085   1.936   .     S
Cu1066 Cu1151  2.694   .     S
H1071  C1142   1.084   .     S
H1072  C1227   1.084   1_455 S
O1079  C1205   1.290   1_455 S
O1080  C1120   1.290   .     S
O1083  C1221   1.299   1_455 S
O1084  C1136   1.298   .     S
C1087  O1089   1.398   .     S
C1087  C1225   1.489   1_455 S
C1087  O486    1.223   1_456 S
O1089  H1090   1.014   .     S
C1091  O1093   1.399   .     S
C1091  O1264   1.223   1_455 S
O1092  C1177   1.223   .     S
O1093  H492    1.014   1_455 S
H1094  O405    1.014   1_556 S
C1095  H1097   1.110   .     S
C1095  H1096   1.106   .     S
C1095  H1270   1.110   1_455 S
H1098  C1181   1.110   .     S
C1099  H1100   1.105   .     S
C1099  H1102   1.110   .     S
C1099  H1187   1.110   .     S
H1101  C1271   1.110   1_455 S
C1103  H1106   1.105   .     S
C1103  H1104   1.110   .     S
C1103  H1277   1.110   1_455 S
H1105  C1189   1.110   .     S
C1107  H1108   1.110   .     S
C1107  H1109   1.105   .     S
C1107  H1196   1.110   .     S
H1110  C1279   1.110   1_455 S
C1111  O1113   1.398   .     S
C1111  O1112   1.222   .     D
O1113  H1114   1.014   .     S
C1115  O1116   1.222   .     D
C1115  O1117   1.396   .     S
O1117  H1118   1.014   .     S
C1119  C1130   1.442   .     S
C1119  O1167   1.292   .     A
C1119  O1251   1.290   .     S
C1120  O1168   1.293   .     A
C1120  C1129   1.443   .     S
C1121  C1150   1.412   .     A
C1121  H1159   1.078   .     S
C1121  C1123   1.384   .     A
C1122  H1160   1.075   .     S
C1122  C1124   1.387   .     A
C1122  C1149   1.416   .     A
C1123  H1153   1.080   .     S
C1124  H1154   1.080   .     S
C1124  C374    1.398   1_556 S
C1125  C1181   1.520   .     S
C1126  C1185   1.520   .     S
C1126  C1386   1.407   .     S
C1126  C1215   1.414   .     S
C1127  C1129   1.411   .     A
C1127  C1189   1.524   .     S
C1127  C1383   1.406   .     S
C1128  C1193   1.524   .     S
C1128  C1130   1.411   .     A
C1130  C1211   1.413   .     S
C1131  C1197   1.469   .     S
C1131  N1164   1.384   .     A
C1131  C1133   1.418   .     A
C1132  C1201   1.469   .     S
C1132  N1163   1.384   .     A
C1132  C1134   1.417   .     A
C1133  N1163   1.358   .     A
C1133  H1161   1.083   .     S
C1134  H1162   1.083   .     S
C1134  N1164   1.358   .     A
C1135  O1171   1.300   .     A
C1135  C1137   1.466   .     S
C1135  O1255   1.299   .     S
C1136  C1138   1.464   .     S
C1136  O1172   1.300   .     A
C1137  C1141   1.395   .     A
C1137  C1143   1.391   .     A
C1138  C1142   1.396   .     A
C1138  C1144   1.389   .     A
C1139  C1141   1.400   .     A
C1139  C1147   1.426   .     A
C1139  C1259   1.489   .     S
C1140  C1142   1.401   .     A
C1140  C1177   1.488   .     S
C1140  C1148   1.424   .     A
C1141  H1244   1.084   .     S
C1143  H1156   1.073   .     S
C1143  C1145   1.404   .     A
C1144  H1155   1.078   .     S
C1144  C1146   1.403   .     A
C1145  C1147   1.427   .     A
C1145  C1149   1.431   .     A
C1146  C1150   1.425   .     A
C1146  C1148   1.423   .     A
C1147  C349    1.399   1_556 S
C1149  C376    1.419   1_556 S
Cu1151 N1163   2.025   .     S
Cu1151 O1168   1.954   .     S
Cu1151 O1169   1.947   .     S
Cu1151 O1165   1.948   .     S
Cu1151 O1172   1.936   .     S
Cu1152 N1164   2.025   .     S
Cu1152 O1166   1.948   .     S
Cu1152 O1167   1.954   .     S
Cu1152 O1170   1.947   .     S
Cu1152 O1171   1.936   .     S
Cu1152 Cu1237  2.694   .     S
H1157  C1228   1.084   .     S
O1166  C1206   1.290   .     S
O1170  C1222   1.298   .     S
C1173  O1175   1.398   .     S
C1173  O314    1.223   1_556 S
O1175  H1176   1.014   .     S
C1177  O1179   1.399   .     S
O1178  C1263   1.223   .     S
H1180  O491    1.014   1_556 S
C1181  H1183   1.110   .     S
C1181  H1182   1.106   .     S
H1184  C1267   1.110   .     S
C1185  H1186   1.105   .     S
C1185  H1188   1.110   .     S
C1185  H1273   1.110   .     S
C1189  H1192   1.105   .     S
C1189  H1190   1.110   .     S
H1191  C1275   1.110   .     S
C1193  H1194   1.110   .     S
C1193  H1195   1.105   .     S
C1193  H1282   1.110   .     S
C1197  O1199   1.398   .     S
C1197  O1198   1.222   .     D
O1199  H1200   1.014   .     S
C1201  O1202   1.222   .     D
C1201  O1203   1.396   .     S
O1203  H1204   1.014   .     S
C1205  C1216   1.442   .     S
C1205  O1253   1.292   .     A
C1205  O1079   1.290   1_655 S
C1206  O1254   1.293   .     A
C1206  C1215   1.443   .     S
C1207  C1236   1.412   .     A
C1207  H1245   1.078   .     S
C1207  C1209   1.384   .     A
C1208  H1246   1.075   .     S
C1208  C1210   1.387   .     A
C1208  C1235   1.416   .     A
C1209  H1239   1.080   .     S
C1210  H1240   1.080   .     S
C1210  C460    1.398   1_556 S
C1211  C1267   1.520   .     S
C1212  C1271   1.520   .     S
C1212  C1472   1.407   .     S
C1212  C1043   1.414   1_655 S
C1213  C1215   1.411   .     A
C1213  C1275   1.524   .     S
C1213  C1469   1.406   .     S
C1214  C1279   1.524   .     S
C1214  C1216   1.411   .     A
C1216  C1039   1.413   1_655 S
C1217  C1283   1.469   .     S
C1217  N1250   1.384   .     A
C1217  C1219   1.418   .     A
C1218  C1287   1.469   .     S
C1218  N1249   1.384   .     A
C1218  C1220   1.417   .     A
C1219  N1249   1.358   .     A
C1219  H1247   1.083   .     S
C1220  H1248   1.083   .     S
C1220  N1250   1.358   .     A
C1221  O1257   1.300   .     A
C1221  C1223   1.466   .     S
C1221  O1083   1.299   1_655 S
C1222  C1224   1.464   .     S
C1222  O1258   1.300   .     A
C1223  C1227   1.395   .     A
C1223  C1229   1.391   .     A
C1224  C1228   1.396   .     A
C1224  C1230   1.389   .     A
C1225  C1227   1.400   .     A
C1225  C1233   1.426   .     A
C1225  C1087   1.489   1_655 S
C1226  C1228   1.401   .     A
C1226  C1263   1.488   .     S
C1226  C1234   1.424   .     A
C1227  H1072   1.084   1_655 S
C1229  H1242   1.073   .     S
C1229  C1231   1.404   .     A
C1230  H1241   1.078   .     S
C1230  C1232   1.403   .     A
C1231  C1233   1.427   .     A
C1231  C1235   1.431   .     A
C1232  C1236   1.425   .     A
C1232  C1234   1.423   .     A
C1233  C435    1.399   1_556 S
C1235  C462    1.419   1_556 S
Cu1237 N1249   2.025   .     S
Cu1237 O1254   1.954   .     S
Cu1237 O1255   1.947   .     S
Cu1237 O1251   1.948   .     S
Cu1237 O1258   1.936   .     S
Cu1238 N1250   2.025   .     S
Cu1238 O1252   1.948   .     S
Cu1238 O1253   1.954   .     S
Cu1238 O1256   1.947   .     S
Cu1238 O1257   1.936   .     S
Cu1238 Cu1065  2.694   1_655 S
H1243  C1056   1.084   1_655 S
O1252  C1034   1.290   1_655 S
O1256  C1050   1.298   1_655 S
C1259  O1261   1.398   .     S
C1259  O400    1.223   1_556 S
O1260  C313    1.223   1_655 S
O1261  H1262   1.014   .     S
C1263  O1265   1.399   .     S
O1264  C1091   1.223   1_655 S
H1266  O319    1.014   1_656 S
C1267  H1269   1.110   .     S
C1267  H1268   1.106   .     S
H1270  C1095   1.110   1_655 S
C1271  H1272   1.105   .     S
C1271  H1274   1.110   .     S
C1271  H1101   1.110   1_655 S
C1275  H1278   1.105   .     S
C1275  H1276   1.110   .     S
H1277  C1103   1.110   1_655 S
C1279  H1280   1.110   .     S
C1279  H1281   1.105   .     S
C1279  H1110   1.110   1_655 S
C1283  O1285   1.398   .     S
C1283  O1284   1.222   .     D
O1285  H1286   1.014   .     S
C1287  O1288   1.222   .     D
C1287  O1289   1.396   .     S
O1289  H1290   1.014   .     S
C1291  C1302   1.442   .     S
C1291  O1339   1.292   .     A
C1291  O1423   1.290   .     S
C1292  O1340   1.293   .     A
C1292  C1301   1.443   .     S
C1292  O1510   1.290   1_455 S
C1293  C1322   1.412   .     A
C1293  H1331   1.078   .     S
C1293  C1295   1.384   .     A
C1294  H1332   1.075   .     S
C1294  C1296   1.387   .     A
C1294  C1321   1.416   .     A
C1295  H1325   1.080   .     S
C1296  H1326   1.080   .     S
C1296  C546    1.398   1_556 S
C1297  C1353   1.520   .     S
C1297  C1474   1.413   1_455 S
C1298  C1357   1.520   .     S
C1298  C784    1.407   1_565 S
C1298  C1387   1.414   .     S
C1299  C1301   1.411   .     A
C1299  C1361   1.524   .     S
C1299  C781    1.406   1_565 S
C1300  C1365   1.524   .     S
C1300  C1302   1.411   .     A
C1301  C1470   1.414   1_455 S
C1302  C1383   1.413   .     S
C1303  C1369   1.469   .     S
C1303  N1336   1.384   .     A
C1303  C1305   1.418   .     A
C1304  C1373   1.469   .     S
C1304  N1335   1.384   .     A
C1304  C1306   1.417   .     A
C1305  N1335   1.358   .     A
C1305  H1333   1.083   .     S
C1306  H1334   1.083   .     S
C1306  N1336   1.358   .     A
C1307  O1343   1.300   .     A
C1307  C1309   1.466   .     S
C1307  O1427   1.299   .     S
C1308  C1310   1.464   .     S
C1308  O1344   1.300   .     A
C1308  O1514   1.298   1_455 S
C1309  C1313   1.395   .     A
C1309  C1315   1.391   .     A
C1310  C1314   1.396   .     A
C1310  C1316   1.389   .     A
C1311  C1313   1.400   .     A
C1311  C1319   1.426   .     A
C1311  C1431   1.489   .     S
C1312  C1314   1.401   .     A
C1312  C1349   1.488   .     S
C1312  C1320   1.424   .     A
C1313  H1416   1.084   .     S
C1314  H1501   1.084   1_455 S
C1315  H1328   1.073   .     S
C1315  C1317   1.404   .     A
C1316  H1327   1.078   .     S
C1316  C1318   1.403   .     A
C1317  C1319   1.427   .     A
C1317  C1321   1.431   .     A
C1318  C1322   1.425   .     A
C1318  C1320   1.423   .     A
C1319  C521    1.399   1_556 S
C1321  C548    1.419   1_556 S
Cu1323 N1335   2.025   .     S
Cu1323 O1340   1.954   .     S
Cu1323 O1341   1.947   .     S
Cu1323 O1337   1.948   .     S
Cu1323 O1344   1.936   .     S
Cu1323 Cu1496  2.694   1_455 S
Cu1324 N1336   2.025   .     S
Cu1324 O1338   1.948   .     S
Cu1324 O1339   1.954   .     S
Cu1324 O1342   1.947   .     S
Cu1324 O1343   1.936   .     S
Cu1324 Cu1409  2.694   .     S
H1329  C1400   1.084   .     S
H1330  C1485   1.084   1_455 S
O1337  C1463   1.290   1_455 S
O1338  C1378   1.290   .     S
O1341  C1479   1.299   1_455 S
O1342  C1394   1.298   .     S
C1345  O1347   1.398   .     S
C1345  C1483   1.489   1_455 S
C1345  O744    1.223   1_456 S
O1347  H1348   1.014   .     S
C1349  O1351   1.399   .     S
C1349  O1522   1.223   1_455 S
O1350  C1435   1.223   .     S
O1351  H750    1.014   1_455 S
H1352  O663    1.014   1_556 S
C1353  H1355   1.110   .     S
C1353  H1354   1.106   .     S
C1353  H1528   1.110   1_455 S
H1356  C1439   1.110   .     S
C1357  H1358   1.105   .     S
C1357  H1360   1.110   .     S
C1357  H1445   1.110   .     S
H1359  C1529   1.110   1_455 S
C1361  H1364   1.105   .     S
C1361  H1362   1.110   .     S
C1361  H1535   1.110   1_455 S
H1363  C1447   1.110   .     S
C1365  H1366   1.110   .     S
C1365  H1367   1.105   .     S
C1365  H1454   1.110   .     S
H1368  C1537   1.110   1_455 S
C1369  O1371   1.398   .     S
C1369  O1370   1.222   .     D
O1371  H1372   1.014   .     S
C1373  O1374   1.222   .     D
C1373  O1375   1.396   .     S
O1375  H1376   1.014   .     S
C1377  C1388   1.442   .     S
C1377  O1425   1.292   .     A
C1377  O1509   1.290   .     S
C1378  O1426   1.293   .     A
C1378  C1387   1.443   .     S
C1379  C1408   1.412   .     A
C1379  H1417   1.078   .     S
C1379  C1381   1.384   .     A
C1380  H1418   1.075   .     S
C1380  C1382   1.387   .     A
C1380  C1407   1.416   .     A
C1381  H1411   1.080   .     S
C1382  H1412   1.080   .     S
C1382  C632    1.398   1_556 S
C1383  C1439   1.520   .     S
C1384  C1443   1.520   .     S
C1384  C870    1.407   1_565 S
C1384  C1473   1.414   .     S
C1385  C1387   1.411   .     A
C1385  C1447   1.524   .     S
C1385  C867    1.406   1_565 S
C1386  C1451   1.524   .     S
C1386  C1388   1.411   .     A
C1388  C1469   1.413   .     S
C1389  C1455   1.469   .     S
C1389  N1422   1.384   .     A
C1389  C1391   1.418   .     A
C1390  C1459   1.469   .     S
C1390  N1421   1.384   .     A
C1390  C1392   1.417   .     A
C1391  N1421   1.358   .     A
C1391  H1419   1.083   .     S
C1392  H1420   1.083   .     S
C1392  N1422   1.358   .     A
C1393  O1429   1.300   .     A
C1393  C1395   1.466   .     S
C1393  O1513   1.299   .     S
C1394  C1396   1.464   .     S
C1394  O1430   1.300   .     A
C1395  C1399   1.395   .     A
C1395  C1401   1.391   .     A
C1396  C1400   1.396   .     A
C1396  C1402   1.389   .     A
C1397  C1399   1.400   .     A
C1397  C1405   1.426   .     A
C1397  C1517   1.489   .     S
C1398  C1400   1.401   .     A
C1398  C1435   1.488   .     S
C1398  C1406   1.424   .     A
C1399  H1502   1.084   .     S
C1401  H1414   1.073   .     S
C1401  C1403   1.404   .     A
C1402  H1413   1.078   .     S
C1402  C1404   1.403   .     A
C1403  C1405   1.427   .     A
C1403  C1407   1.431   .     A
C1404  C1408   1.425   .     A
C1404  C1406   1.423   .     A
C1405  C607    1.399   1_556 S
C1407  C634    1.419   1_556 S
Cu1409 N1421   2.025   .     S
Cu1409 O1426   1.954   .     S
Cu1409 O1427   1.947   .     S
Cu1409 O1423   1.948   .     S
Cu1409 O1430   1.936   .     S
Cu1410 N1422   2.025   .     S
Cu1410 O1424   1.948   .     S
Cu1410 O1425   1.954   .     S
Cu1410 O1428   1.947   .     S
Cu1410 O1429   1.936   .     S
Cu1410 Cu1495  2.694   .     S
H1415  C1486   1.084   .     S
O1424  C1464   1.290   .     S
O1428  C1480   1.298   .     S
C1431  O1433   1.398   .     S
C1431  O572    1.223   1_556 S
O1433  H1434   1.014   .     S
C1435  O1437   1.399   .     S
O1436  C1521   1.223   .     S
H1438  O749    1.014   1_556 S
C1439  H1441   1.110   .     S
C1439  H1440   1.106   .     S
H1442  C1525   1.110   .     S
C1443  H1444   1.105   .     S
C1443  H1446   1.110   .     S
C1443  H1531   1.110   .     S
C1447  H1450   1.105   .     S
C1447  H1448   1.110   .     S
H1449  C1533   1.110   .     S
C1451  H1452   1.110   .     S
C1451  H1453   1.105   .     S
C1451  H1540   1.110   .     S
C1455  O1457   1.398   .     S
C1455  O1456   1.222   .     D
O1457  H1458   1.014   .     S
C1459  O1460   1.222   .     D
C1459  O1461   1.396   .     S
O1461  H1462   1.014   .     S
C1463  C1474   1.442   .     S
C1463  O1511   1.292   .     A
C1463  O1337   1.290   1_655 S
C1464  O1512   1.293   .     A
C1464  C1473   1.443   .     S
C1465  C1494   1.412   .     A
C1465  H1503   1.078   .     S
C1465  C1467   1.384   .     A
C1466  H1504   1.075   .     S
C1466  C1468   1.387   .     A
C1466  C1493   1.416   .     A
C1467  H1497   1.080   .     S
C1468  H1498   1.080   .     S
C1468  C718    1.398   1_556 S
C1469  C1525   1.520   .     S
C1470  C1529   1.520   .     S
C1470  C956    1.407   1_565 S
C1470  C1301   1.414   1_655 S
C1471  C1473   1.411   .     A
C1471  C1533   1.524   .     S
C1471  C953    1.406   1_565 S
C1472  C1537   1.524   .     S
C1472  C1474   1.411   .     A
C1474  C1297   1.413   1_655 S
C1475  C1541   1.469   .     S
C1475  N1508   1.384   .     A
C1475  C1477   1.418   .     A
C1476  C1545   1.469   .     S
C1476  N1507   1.384   .     A
C1476  C1478   1.417   .     A
C1477  N1507   1.358   .     A
C1477  H1505   1.083   .     S
C1478  H1506   1.083   .     S
C1478  N1508   1.358   .     A
C1479  O1515   1.300   .     A
C1479  C1481   1.466   .     S
C1479  O1341   1.299   1_655 S
C1480  C1482   1.464   .     S
C1480  O1516   1.300   .     A
C1481  C1485   1.395   .     A
C1481  C1487   1.391   .     A
C1482  C1486   1.396   .     A
C1482  C1488   1.389   .     A
C1483  C1485   1.400   .     A
C1483  C1491   1.426   .     A
C1483  C1345   1.489   1_655 S
C1484  C1486   1.401   .     A
C1484  C1521   1.488   .     S
C1484  C1492   1.424   .     A
C1485  H1330   1.084   1_655 S
C1487  H1500   1.073   .     S
C1487  C1489   1.404   .     A
C1488  H1499   1.078   .     S
C1488  C1490   1.403   .     A
C1489  C1491   1.427   .     A
C1489  C1493   1.431   .     A
C1490  C1494   1.425   .     A
C1490  C1492   1.423   .     A
C1491  C693    1.399   1_556 S
C1493  C720    1.419   1_556 S
Cu1495 N1507   2.025   .     S
Cu1495 O1512   1.954   .     S
Cu1495 O1513   1.947   .     S
Cu1495 O1509   1.948   .     S
Cu1495 O1516   1.936   .     S
Cu1496 N1508   2.025   .     S
Cu1496 O1510   1.948   .     S
Cu1496 O1511   1.954   .     S
Cu1496 O1514   1.947   .     S
Cu1496 O1515   1.936   .     S
Cu1496 Cu1323  2.694   1_655 S
H1501  C1314   1.084   1_655 S
O1510  C1292   1.290   1_655 S
O1514  C1308   1.298   1_655 S
C1517  O1519   1.398   .     S
C1517  O658    1.223   1_556 S
O1518  C571    1.223   1_655 S
O1519  H1520   1.014   .     S
C1521  O1523   1.399   .     S
O1522  C1349   1.223   1_655 S
H1524  O577    1.014   1_656 S
C1525  H1527   1.110   .     S
C1525  H1526   1.106   .     S
H1528  C1353   1.110   1_655 S
C1529  H1530   1.105   .     S
C1529  H1532   1.110   .     S
C1529  H1359   1.110   1_655 S
C1533  H1536   1.105   .     S
C1533  H1534   1.110   .     S
H1535  C1361   1.110   1_655 S
C1537  H1538   1.110   .     S
C1537  H1539   1.105   .     S
C1537  H1368   1.110   1_655 S
C1541  O1543   1.398   .     S
C1541  O1542   1.222   .     D
O1543  H1544   1.014   .     S
C1545  O1546   1.222   .     D
C1545  O1547   1.396   .     S
O1547  H1548   1.014   .     S
