data_str_m2_o1_o10_pcu_sym.114
_audit_creation_date              2020-01-03
_audit_creation_method            'Materials Studio'
_symmetry_space_group_name_H-M    'P1'
_symmetry_Int_Tables_number       1
_symmetry_cell_setting            triclinic
loop_
_symmetry_equiv_pos_as_xyz
  x,y,z
_cell_length_a                    26.1504
_cell_length_b                    32.2993
_cell_length_c                    28.9589
_cell_angle_alpha                 90.0060
_cell_angle_beta                  97.8351
_cell_angle_gamma                 92.9713
loop_
_atom_site_label
_atom_site_type_symbol
_atom_site_fract_x
_atom_site_fract_y
_atom_site_fract_z
_atom_site_U_iso_or_equiv
_atom_site_adp_type
_atom_site_occupancy
C1     C     0.16770   0.08764   0.16680   0.00000  Uiso   1.00
C2     C     0.16563   0.24569   0.16654   0.00000  Uiso   1.00
C3     C     0.06807   0.16638   0.15468   0.00000  Uiso   1.00
C4     C     0.26527   0.16695   0.17865   0.00000  Uiso   1.00
C5     C     0.01267   0.16568   0.14821   0.00000  Uiso   1.00
C6     C     0.32067   0.16765   0.18512   0.00000  Uiso   1.00
C7     C     0.13016   0.02094   0.13706   0.00000  Uiso   1.00
C8     C     0.20317   0.31239   0.19627   0.00000  Uiso   1.00
C9     C     0.12741   0.31108   0.13651   0.00000  Uiso   1.00
C10    C     0.20592   0.02225   0.19683   0.00000  Uiso   1.00
C11    C     0.16474   0.29034   0.16641   0.00000  Uiso   1.00
C12    C     0.16860   0.04299   0.16692   0.00000  Uiso   1.00
C13    C     0.13451   0.13945   0.02078   0.00000  Uiso   1.00
C14    C     0.19882   0.19388   0.31256   0.00000  Uiso   1.00
C15    C     0.13266   0.14089   0.30445   0.00000  Uiso   1.00
C16    C     0.20068   0.19244   0.02889   0.00000  Uiso   1.00
Cu17   Cu    0.16667   0.16667   0.21355   0.00000  Uiso   1.00
Cu18   Cu    0.16667   0.16666   0.11978   0.00000  Uiso   1.00
H19    H     0.32598   0.16322   0.11283   0.00000  Uiso   1.00
H20    H     0.00735   0.17011   0.22050   0.00000  Uiso   1.00
H21    H     0.10132   0.03770   0.11521   0.00000  Uiso   1.00
H22    H     0.23201   0.29563   0.21813   0.00000  Uiso   1.00
N23    N     0.16668   0.16668   0.28403   0.00000  Uiso   1.00
N24    N     0.16665   0.16666   0.04931   0.00000  Uiso   1.00
O25    O     0.16666   0.10655   0.20625   0.00000  Uiso   1.00
O26    O     0.16667   0.22678   0.12709   0.00000  Uiso   1.00
O27    O     0.16666   0.10654   0.12706   0.00000  Uiso   1.00
O28    O     0.16667   0.22679   0.20628   0.00000  Uiso   1.00
O29    O     0.09161   0.16667   0.19712   0.00000  Uiso   1.00
O30    O     0.24172   0.16666   0.13621   0.00000  Uiso   1.00
O31    O     0.09161   0.16666   0.11793   0.00000  Uiso   1.00
O32    O     0.24172   0.16667   0.21540   0.00000  Uiso   1.00
C33    C     0.08435   0.28838   0.10635   0.00000  Uiso   1.00
H34    H     0.07758   0.25519   0.10960   0.00000  Uiso   1.00
O35    O     0.05536   0.30665   0.07756   0.00000  Uiso   1.00
C36    C     0.24899   0.04495   0.22699   0.00000  Uiso   1.00
H37    H     0.25576   0.07814   0.22373   0.00000  Uiso   1.00
O38    O     0.27797   0.02668   0.25577   0.00000  Uiso   1.00
C39    C     0.10524   0.10521   0.04131   0.00000  Uiso   1.00
H40    H     0.08218   0.11049   0.06856   0.00000  Uiso   1.00
O41    O     0.10682   0.06968   0.02734   0.00000  Uiso   1.00
C42    C     0.22810   0.22812   0.29202   0.00000  Uiso   1.00
H43    H     0.25116   0.22284   0.26477   0.00000  Uiso   1.00
O44    O     0.22651   0.26365   0.30599   0.00000  Uiso   1.00
C45    C     0.09013   0.11691   0.27517   0.00000  Uiso   1.00
H46    H     0.09619   0.10037   0.24438   0.00000  Uiso   1.00
O47    O     0.04633   0.11562   0.28552   0.00000  Uiso   1.00
C48    C     0.24320   0.21642   0.05817   0.00000  Uiso   1.00
H49    H     0.23715   0.23297   0.08895   0.00000  Uiso   1.00
O50    O     0.28700   0.21771   0.04781   0.00000  Uiso   1.00
C51    C     0.50103   0.08764   0.16680   0.00000  Uiso   1.00
C52    C     0.49897   0.24569   0.16654   0.00000  Uiso   1.00
C53    C     0.40140   0.16638   0.15468   0.00000  Uiso   1.00
C54    C     0.59860   0.16695   0.17865   0.00000  Uiso   1.00
C55    C     0.34600   0.16568   0.14821   0.00000  Uiso   1.00
C56    C     0.65400   0.16765   0.18512   0.00000  Uiso   1.00
C57    C     0.46349   0.02094   0.13706   0.00000  Uiso   1.00
C58    C     0.53651   0.31239   0.19627   0.00000  Uiso   1.00
C59    C     0.46075   0.31108   0.13651   0.00000  Uiso   1.00
C60    C     0.53925   0.02225   0.19683   0.00000  Uiso   1.00
C61    C     0.49807   0.29034   0.16641   0.00000  Uiso   1.00
C62    C     0.50193   0.04299   0.16692   0.00000  Uiso   1.00
C63    C     0.46784   0.13945   0.02078   0.00000  Uiso   1.00
C64    C     0.53216   0.19388   0.31256   0.00000  Uiso   1.00
C65    C     0.46599   0.14089   0.30445   0.00000  Uiso   1.00
C66    C     0.53401   0.19244   0.02889   0.00000  Uiso   1.00
Cu67   Cu    0.50000   0.16667   0.21355   0.00000  Uiso   1.00
Cu68   Cu    0.50000   0.16666   0.11978   0.00000  Uiso   1.00
H69    H     0.65931   0.16322   0.11283   0.00000  Uiso   1.00
H70    H     0.34069   0.17011   0.22050   0.00000  Uiso   1.00
H71    H     0.43465   0.03770   0.11521   0.00000  Uiso   1.00
H72    H     0.56535   0.29563   0.21813   0.00000  Uiso   1.00
N73    N     0.50001   0.16668   0.28403   0.00000  Uiso   1.00
N74    N     0.49999   0.16666   0.04931   0.00000  Uiso   1.00
O75    O     0.50000   0.10655   0.20625   0.00000  Uiso   1.00
O76    O     0.50000   0.22678   0.12709   0.00000  Uiso   1.00
O77    O     0.50000   0.10654   0.12706   0.00000  Uiso   1.00
O78    O     0.50000   0.22679   0.20628   0.00000  Uiso   1.00
O79    O     0.42495   0.16667   0.19712   0.00000  Uiso   1.00
O80    O     0.57505   0.16666   0.13621   0.00000  Uiso   1.00
O81    O     0.42494   0.16666   0.11793   0.00000  Uiso   1.00
O82    O     0.57506   0.16667   0.21540   0.00000  Uiso   1.00
C83    C     0.41768   0.28838   0.10635   0.00000  Uiso   1.00
H84    H     0.41091   0.25519   0.10960   0.00000  Uiso   1.00
O85    O     0.38869   0.30665   0.07756   0.00000  Uiso   1.00
C86    C     0.58232   0.04495   0.22699   0.00000  Uiso   1.00
H87    H     0.58909   0.07814   0.22373   0.00000  Uiso   1.00
O88    O     0.61131   0.02668   0.25577   0.00000  Uiso   1.00
C89    C     0.43857   0.10521   0.04131   0.00000  Uiso   1.00
H90    H     0.41551   0.11049   0.06856   0.00000  Uiso   1.00
O91    O     0.44015   0.06968   0.02734   0.00000  Uiso   1.00
C92    C     0.56143   0.22812   0.29202   0.00000  Uiso   1.00
H93    H     0.58449   0.22284   0.26477   0.00000  Uiso   1.00
O94    O     0.55985   0.26365   0.30599   0.00000  Uiso   1.00
C95    C     0.42346   0.11691   0.27517   0.00000  Uiso   1.00
H96    H     0.42952   0.10037   0.24438   0.00000  Uiso   1.00
O97    O     0.37966   0.11562   0.28552   0.00000  Uiso   1.00
C98    C     0.57654   0.21642   0.05817   0.00000  Uiso   1.00
H99    H     0.57048   0.23297   0.08895   0.00000  Uiso   1.00
O100   O     0.62034   0.21771   0.04781   0.00000  Uiso   1.00
C101   C     0.83437   0.08764   0.16680   0.00000  Uiso   1.00
C102   C     0.83230   0.24569   0.16654   0.00000  Uiso   1.00
C103   C     0.73473   0.16638   0.15468   0.00000  Uiso   1.00
C104   C     0.93193   0.16695   0.17865   0.00000  Uiso   1.00
C105   C     0.67933   0.16568   0.14821   0.00000  Uiso   1.00
C106   C     0.98733   0.16765   0.18512   0.00000  Uiso   1.00
C107   C     0.79683   0.02094   0.13706   0.00000  Uiso   1.00
C108   C     0.86984   0.31239   0.19627   0.00000  Uiso   1.00
C109   C     0.79408   0.31108   0.13651   0.00000  Uiso   1.00
C110   C     0.87259   0.02225   0.19683   0.00000  Uiso   1.00
C111   C     0.83140   0.29034   0.16641   0.00000  Uiso   1.00
C112   C     0.83526   0.04299   0.16692   0.00000  Uiso   1.00
C113   C     0.80118   0.13945   0.02078   0.00000  Uiso   1.00
C114   C     0.86549   0.19388   0.31256   0.00000  Uiso   1.00
C115   C     0.79932   0.14089   0.30445   0.00000  Uiso   1.00
C116   C     0.86734   0.19244   0.02889   0.00000  Uiso   1.00
Cu117  Cu    0.83333   0.16667   0.21355   0.00000  Uiso   1.00
Cu118  Cu    0.83333   0.16666   0.11978   0.00000  Uiso   1.00
H119   H     0.99265   0.16322   0.11283   0.00000  Uiso   1.00
H120   H     0.67402   0.17011   0.22050   0.00000  Uiso   1.00
H121   H     0.76799   0.03770   0.11521   0.00000  Uiso   1.00
H122   H     0.89868   0.29563   0.21813   0.00000  Uiso   1.00
N123   N     0.83335   0.16668   0.28403   0.00000  Uiso   1.00
N124   N     0.83332   0.16666   0.04931   0.00000  Uiso   1.00
O125   O     0.83333   0.10655   0.20625   0.00000  Uiso   1.00
O126   O     0.83334   0.22678   0.12709   0.00000  Uiso   1.00
O127   O     0.83333   0.10654   0.12706   0.00000  Uiso   1.00
O128   O     0.83334   0.22679   0.20628   0.00000  Uiso   1.00
O129   O     0.75828   0.16667   0.19712   0.00000  Uiso   1.00
O130   O     0.90839   0.16666   0.13621   0.00000  Uiso   1.00
O131   O     0.75828   0.16666   0.11793   0.00000  Uiso   1.00
O132   O     0.90839   0.16667   0.21540   0.00000  Uiso   1.00
C133   C     0.75101   0.28838   0.10635   0.00000  Uiso   1.00
H134   H     0.74424   0.25519   0.10960   0.00000  Uiso   1.00
O135   O     0.72202   0.30665   0.07756   0.00000  Uiso   1.00
C136   C     0.91565   0.04495   0.22699   0.00000  Uiso   1.00
H137   H     0.92242   0.07814   0.22373   0.00000  Uiso   1.00
O138   O     0.94464   0.02668   0.25577   0.00000  Uiso   1.00
C139   C     0.77190   0.10521   0.04131   0.00000  Uiso   1.00
H140   H     0.74884   0.11049   0.06856   0.00000  Uiso   1.00
O141   O     0.77349   0.06968   0.02734   0.00000  Uiso   1.00
C142   C     0.89476   0.22812   0.29202   0.00000  Uiso   1.00
H143   H     0.91782   0.22284   0.26477   0.00000  Uiso   1.00
O144   O     0.89318   0.26365   0.30599   0.00000  Uiso   1.00
C145   C     0.75680   0.11691   0.27517   0.00000  Uiso   1.00
H146   H     0.76285   0.10037   0.24438   0.00000  Uiso   1.00
O147   O     0.71300   0.11562   0.28552   0.00000  Uiso   1.00
C148   C     0.90987   0.21642   0.05817   0.00000  Uiso   1.00
H149   H     0.90381   0.23297   0.08895   0.00000  Uiso   1.00
O150   O     0.95367   0.21771   0.04781   0.00000  Uiso   1.00
C151   C     0.16770   0.42098   0.16680   0.00000  Uiso   1.00
C152   C     0.16563   0.57902   0.16654   0.00000  Uiso   1.00
C153   C     0.06807   0.49972   0.15468   0.00000  Uiso   1.00
C154   C     0.26527   0.50028   0.17865   0.00000  Uiso   1.00
C155   C     0.01267   0.49902   0.14821   0.00000  Uiso   1.00
C156   C     0.32067   0.50098   0.18512   0.00000  Uiso   1.00
C157   C     0.13016   0.35428   0.13706   0.00000  Uiso   1.00
C158   C     0.20317   0.64572   0.19627   0.00000  Uiso   1.00
C159   C     0.12741   0.64442   0.13651   0.00000  Uiso   1.00
C160   C     0.20592   0.35558   0.19683   0.00000  Uiso   1.00
C161   C     0.16474   0.62367   0.16641   0.00000  Uiso   1.00
C162   C     0.16860   0.37633   0.16692   0.00000  Uiso   1.00
C163   C     0.13451   0.47279   0.02078   0.00000  Uiso   1.00
C164   C     0.19882   0.52721   0.31256   0.00000  Uiso   1.00
C165   C     0.13266   0.47422   0.30445   0.00000  Uiso   1.00
C166   C     0.20068   0.52578   0.02889   0.00000  Uiso   1.00
Cu167  Cu    0.16667   0.50001   0.21355   0.00000  Uiso   1.00
Cu168  Cu    0.16667   0.49999   0.11978   0.00000  Uiso   1.00
H169   H     0.32598   0.49656   0.11283   0.00000  Uiso   1.00
H170   H     0.00735   0.50344   0.22050   0.00000  Uiso   1.00
H171   H     0.10132   0.37104   0.11521   0.00000  Uiso   1.00
H172   H     0.23201   0.62896   0.21813   0.00000  Uiso   1.00
N173   N     0.16668   0.50001   0.28403   0.00000  Uiso   1.00
N174   N     0.16665   0.49999   0.04931   0.00000  Uiso   1.00
O175   O     0.16666   0.43989   0.20625   0.00000  Uiso   1.00
O176   O     0.16667   0.56011   0.12709   0.00000  Uiso   1.00
O177   O     0.16666   0.43988   0.12706   0.00000  Uiso   1.00
O178   O     0.16667   0.56012   0.20628   0.00000  Uiso   1.00
O179   O     0.09161   0.50000   0.19712   0.00000  Uiso   1.00
O180   O     0.24172   0.50000   0.13621   0.00000  Uiso   1.00
O181   O     0.09161   0.49999   0.11793   0.00000  Uiso   1.00
O182   O     0.24172   0.50001   0.21540   0.00000  Uiso   1.00
C183   C     0.08435   0.62172   0.10635   0.00000  Uiso   1.00
H184   H     0.07758   0.58853   0.10960   0.00000  Uiso   1.00
O185   O     0.05536   0.63999   0.07756   0.00000  Uiso   1.00
C186   C     0.24899   0.37828   0.22699   0.00000  Uiso   1.00
H187   H     0.25576   0.41147   0.22373   0.00000  Uiso   1.00
O188   O     0.27797   0.36001   0.25577   0.00000  Uiso   1.00
C189   C     0.10524   0.43855   0.04131   0.00000  Uiso   1.00
H190   H     0.08218   0.44382   0.06856   0.00000  Uiso   1.00
O191   O     0.10682   0.40301   0.02734   0.00000  Uiso   1.00
C192   C     0.22810   0.56145   0.29202   0.00000  Uiso   1.00
H193   H     0.25116   0.55618   0.26477   0.00000  Uiso   1.00
O194   O     0.22651   0.59699   0.30599   0.00000  Uiso   1.00
C195   C     0.09013   0.45024   0.27517   0.00000  Uiso   1.00
H196   H     0.09619   0.43370   0.24438   0.00000  Uiso   1.00
O197   O     0.04633   0.44896   0.28552   0.00000  Uiso   1.00
C198   C     0.24320   0.54976   0.05817   0.00000  Uiso   1.00
H199   H     0.23715   0.56630   0.08895   0.00000  Uiso   1.00
O200   O     0.28700   0.55104   0.04781   0.00000  Uiso   1.00
C201   C     0.50103   0.42098   0.16680   0.00000  Uiso   1.00
C202   C     0.49897   0.57902   0.16654   0.00000  Uiso   1.00
C203   C     0.40140   0.49972   0.15468   0.00000  Uiso   1.00
C204   C     0.59860   0.50028   0.17865   0.00000  Uiso   1.00
C205   C     0.34600   0.49902   0.14821   0.00000  Uiso   1.00
C206   C     0.65400   0.50098   0.18512   0.00000  Uiso   1.00
C207   C     0.46349   0.35428   0.13706   0.00000  Uiso   1.00
C208   C     0.53651   0.64572   0.19627   0.00000  Uiso   1.00
C209   C     0.46075   0.64442   0.13651   0.00000  Uiso   1.00
C210   C     0.53925   0.35558   0.19683   0.00000  Uiso   1.00
C211   C     0.49807   0.62367   0.16641   0.00000  Uiso   1.00
C212   C     0.50193   0.37633   0.16692   0.00000  Uiso   1.00
C213   C     0.46784   0.47279   0.02078   0.00000  Uiso   1.00
C214   C     0.53216   0.52721   0.31256   0.00000  Uiso   1.00
C215   C     0.46599   0.47422   0.30445   0.00000  Uiso   1.00
C216   C     0.53401   0.52578   0.02889   0.00000  Uiso   1.00
Cu217  Cu    0.50000   0.50001   0.21355   0.00000  Uiso   1.00
Cu218  Cu    0.50000   0.49999   0.11978   0.00000  Uiso   1.00
H219   H     0.65931   0.49656   0.11283   0.00000  Uiso   1.00
H220   H     0.34069   0.50344   0.22050   0.00000  Uiso   1.00
H221   H     0.43465   0.37104   0.11521   0.00000  Uiso   1.00
H222   H     0.56535   0.62896   0.21813   0.00000  Uiso   1.00
N223   N     0.50001   0.50001   0.28403   0.00000  Uiso   1.00
N224   N     0.49999   0.49999   0.04931   0.00000  Uiso   1.00
O225   O     0.50000   0.43989   0.20625   0.00000  Uiso   1.00
O226   O     0.50000   0.56011   0.12709   0.00000  Uiso   1.00
O227   O     0.50000   0.43988   0.12706   0.00000  Uiso   1.00
O228   O     0.50000   0.56012   0.20628   0.00000  Uiso   1.00
O229   O     0.42495   0.50000   0.19712   0.00000  Uiso   1.00
O230   O     0.57505   0.50000   0.13621   0.00000  Uiso   1.00
O231   O     0.42494   0.49999   0.11793   0.00000  Uiso   1.00
O232   O     0.57506   0.50001   0.21540   0.00000  Uiso   1.00
C233   C     0.41768   0.62172   0.10635   0.00000  Uiso   1.00
H234   H     0.41091   0.58853   0.10960   0.00000  Uiso   1.00
O235   O     0.38869   0.63999   0.07756   0.00000  Uiso   1.00
C236   C     0.58232   0.37828   0.22699   0.00000  Uiso   1.00
H237   H     0.58909   0.41147   0.22373   0.00000  Uiso   1.00
O238   O     0.61131   0.36001   0.25577   0.00000  Uiso   1.00
C239   C     0.43857   0.43855   0.04131   0.00000  Uiso   1.00
H240   H     0.41551   0.44382   0.06856   0.00000  Uiso   1.00
O241   O     0.44015   0.40301   0.02734   0.00000  Uiso   1.00
C242   C     0.56143   0.56145   0.29202   0.00000  Uiso   1.00
H243   H     0.58449   0.55618   0.26477   0.00000  Uiso   1.00
O244   O     0.55985   0.59699   0.30599   0.00000  Uiso   1.00
C245   C     0.42346   0.45024   0.27517   0.00000  Uiso   1.00
H246   H     0.42952   0.43370   0.24438   0.00000  Uiso   1.00
O247   O     0.37966   0.44896   0.28552   0.00000  Uiso   1.00
C248   C     0.57654   0.54976   0.05817   0.00000  Uiso   1.00
H249   H     0.57048   0.56630   0.08895   0.00000  Uiso   1.00
O250   O     0.62034   0.55104   0.04781   0.00000  Uiso   1.00
C251   C     0.83437   0.42098   0.16680   0.00000  Uiso   1.00
C252   C     0.83230   0.57902   0.16654   0.00000  Uiso   1.00
C253   C     0.73473   0.49972   0.15468   0.00000  Uiso   1.00
C254   C     0.93193   0.50028   0.17865   0.00000  Uiso   1.00
C255   C     0.67933   0.49902   0.14821   0.00000  Uiso   1.00
C256   C     0.98733   0.50098   0.18512   0.00000  Uiso   1.00
C257   C     0.79683   0.35428   0.13706   0.00000  Uiso   1.00
C258   C     0.86984   0.64572   0.19627   0.00000  Uiso   1.00
C259   C     0.79408   0.64442   0.13651   0.00000  Uiso   1.00
C260   C     0.87259   0.35558   0.19683   0.00000  Uiso   1.00
C261   C     0.83140   0.62367   0.16641   0.00000  Uiso   1.00
C262   C     0.83526   0.37633   0.16692   0.00000  Uiso   1.00
C263   C     0.80118   0.47279   0.02078   0.00000  Uiso   1.00
C264   C     0.86549   0.52721   0.31256   0.00000  Uiso   1.00
C265   C     0.79932   0.47422   0.30445   0.00000  Uiso   1.00
C266   C     0.86734   0.52578   0.02889   0.00000  Uiso   1.00
Cu267  Cu    0.83333   0.50001   0.21355   0.00000  Uiso   1.00
Cu268  Cu    0.83333   0.49999   0.11978   0.00000  Uiso   1.00
H269   H     0.99265   0.49656   0.11283   0.00000  Uiso   1.00
H270   H     0.67402   0.50344   0.22050   0.00000  Uiso   1.00
H271   H     0.76799   0.37104   0.11521   0.00000  Uiso   1.00
H272   H     0.89868   0.62896   0.21813   0.00000  Uiso   1.00
N273   N     0.83335   0.50001   0.28403   0.00000  Uiso   1.00
N274   N     0.83332   0.49999   0.04931   0.00000  Uiso   1.00
O275   O     0.83333   0.43989   0.20625   0.00000  Uiso   1.00
O276   O     0.83334   0.56011   0.12709   0.00000  Uiso   1.00
O277   O     0.83333   0.43988   0.12706   0.00000  Uiso   1.00
O278   O     0.83334   0.56012   0.20628   0.00000  Uiso   1.00
O279   O     0.75828   0.50000   0.19712   0.00000  Uiso   1.00
O280   O     0.90839   0.50000   0.13621   0.00000  Uiso   1.00
O281   O     0.75828   0.49999   0.11793   0.00000  Uiso   1.00
O282   O     0.90839   0.50001   0.21540   0.00000  Uiso   1.00
C283   C     0.75101   0.62172   0.10635   0.00000  Uiso   1.00
H284   H     0.74424   0.58853   0.10960   0.00000  Uiso   1.00
O285   O     0.72202   0.63999   0.07756   0.00000  Uiso   1.00
C286   C     0.91565   0.37828   0.22699   0.00000  Uiso   1.00
H287   H     0.92242   0.41147   0.22373   0.00000  Uiso   1.00
O288   O     0.94464   0.36001   0.25577   0.00000  Uiso   1.00
C289   C     0.77190   0.43855   0.04131   0.00000  Uiso   1.00
H290   H     0.74884   0.44382   0.06856   0.00000  Uiso   1.00
O291   O     0.77349   0.40301   0.02734   0.00000  Uiso   1.00
C292   C     0.89476   0.56145   0.29202   0.00000  Uiso   1.00
H293   H     0.91782   0.55618   0.26477   0.00000  Uiso   1.00
O294   O     0.89318   0.59699   0.30599   0.00000  Uiso   1.00
C295   C     0.75680   0.45024   0.27517   0.00000  Uiso   1.00
H296   H     0.76285   0.43370   0.24438   0.00000  Uiso   1.00
O297   O     0.71300   0.44896   0.28552   0.00000  Uiso   1.00
C298   C     0.90987   0.54976   0.05817   0.00000  Uiso   1.00
H299   H     0.90381   0.56630   0.08895   0.00000  Uiso   1.00
O300   O     0.95367   0.55104   0.04781   0.00000  Uiso   1.00
C301   C     0.16770   0.75431   0.16680   0.00000  Uiso   1.00
C302   C     0.16563   0.91236   0.16654   0.00000  Uiso   1.00
C303   C     0.06807   0.83305   0.15468   0.00000  Uiso   1.00
C304   C     0.26527   0.83362   0.17865   0.00000  Uiso   1.00
C305   C     0.01267   0.83235   0.14821   0.00000  Uiso   1.00
C306   C     0.32067   0.83432   0.18512   0.00000  Uiso   1.00
C307   C     0.13016   0.68761   0.13706   0.00000  Uiso   1.00
C308   C     0.20317   0.97906   0.19627   0.00000  Uiso   1.00
C309   C     0.12741   0.97775   0.13651   0.00000  Uiso   1.00
C310   C     0.20592   0.68892   0.19683   0.00000  Uiso   1.00
C311   C     0.16474   0.95701   0.16641   0.00000  Uiso   1.00
C312   C     0.16860   0.70966   0.16692   0.00000  Uiso   1.00
C313   C     0.13451   0.80612   0.02078   0.00000  Uiso   1.00
C314   C     0.19882   0.86055   0.31256   0.00000  Uiso   1.00
C315   C     0.13266   0.80756   0.30445   0.00000  Uiso   1.00
C316   C     0.20068   0.85911   0.02889   0.00000  Uiso   1.00
Cu317  Cu    0.16667   0.83334   0.21355   0.00000  Uiso   1.00
Cu318  Cu    0.16667   0.83333   0.11978   0.00000  Uiso   1.00
H319   H     0.32598   0.82989   0.11283   0.00000  Uiso   1.00
H320   H     0.00735   0.83678   0.22050   0.00000  Uiso   1.00
H321   H     0.10132   0.70437   0.11521   0.00000  Uiso   1.00
H322   H     0.23201   0.96230   0.21813   0.00000  Uiso   1.00
N323   N     0.16668   0.83334   0.28403   0.00000  Uiso   1.00
N324   N     0.16665   0.83332   0.04931   0.00000  Uiso   1.00
O325   O     0.16666   0.77322   0.20625   0.00000  Uiso   1.00
O326   O     0.16667   0.89345   0.12709   0.00000  Uiso   1.00
O327   O     0.16666   0.77321   0.12706   0.00000  Uiso   1.00
O328   O     0.16667   0.89346   0.20628   0.00000  Uiso   1.00
O329   O     0.09161   0.83334   0.19712   0.00000  Uiso   1.00
O330   O     0.24172   0.83333   0.13621   0.00000  Uiso   1.00
O331   O     0.09161   0.83333   0.11793   0.00000  Uiso   1.00
O332   O     0.24172   0.83334   0.21540   0.00000  Uiso   1.00
C333   C     0.08435   0.95505   0.10635   0.00000  Uiso   1.00
H334   H     0.07758   0.92186   0.10960   0.00000  Uiso   1.00
O335   O     0.05536   0.97332   0.07756   0.00000  Uiso   1.00
C336   C     0.24899   0.71162   0.22699   0.00000  Uiso   1.00
H337   H     0.25576   0.74481   0.22373   0.00000  Uiso   1.00
O338   O     0.27797   0.69335   0.25577   0.00000  Uiso   1.00
C339   C     0.10524   0.77188   0.04131   0.00000  Uiso   1.00
H340   H     0.08218   0.77716   0.06856   0.00000  Uiso   1.00
O341   O     0.10682   0.73635   0.02734   0.00000  Uiso   1.00
C342   C     0.22810   0.89479   0.29202   0.00000  Uiso   1.00
H343   H     0.25116   0.88951   0.26477   0.00000  Uiso   1.00
O344   O     0.22651   0.93032   0.30599   0.00000  Uiso   1.00
C345   C     0.09013   0.78358   0.27517   0.00000  Uiso   1.00
H346   H     0.09619   0.76703   0.24438   0.00000  Uiso   1.00
O347   O     0.04633   0.78229   0.28552   0.00000  Uiso   1.00
C348   C     0.24320   0.88309   0.05817   0.00000  Uiso   1.00
H349   H     0.23715   0.89963   0.08895   0.00000  Uiso   1.00
O350   O     0.28700   0.88438   0.04781   0.00000  Uiso   1.00
C351   C     0.50103   0.75431   0.16680   0.00000  Uiso   1.00
C352   C     0.49897   0.91236   0.16654   0.00000  Uiso   1.00
C353   C     0.40140   0.83305   0.15468   0.00000  Uiso   1.00
C354   C     0.59860   0.83362   0.17865   0.00000  Uiso   1.00
C355   C     0.34600   0.83235   0.14821   0.00000  Uiso   1.00
C356   C     0.65400   0.83432   0.18512   0.00000  Uiso   1.00
C357   C     0.46349   0.68761   0.13706   0.00000  Uiso   1.00
C358   C     0.53651   0.97906   0.19627   0.00000  Uiso   1.00
C359   C     0.46075   0.97775   0.13651   0.00000  Uiso   1.00
C360   C     0.53925   0.68892   0.19683   0.00000  Uiso   1.00
C361   C     0.49807   0.95701   0.16641   0.00000  Uiso   1.00
C362   C     0.50193   0.70966   0.16692   0.00000  Uiso   1.00
C363   C     0.46784   0.80612   0.02078   0.00000  Uiso   1.00
C364   C     0.53216   0.86055   0.31256   0.00000  Uiso   1.00
C365   C     0.46599   0.80756   0.30445   0.00000  Uiso   1.00
C366   C     0.53401   0.85911   0.02889   0.00000  Uiso   1.00
Cu367  Cu    0.50000   0.83334   0.21355   0.00000  Uiso   1.00
Cu368  Cu    0.50000   0.83333   0.11978   0.00000  Uiso   1.00
H369   H     0.65931   0.82989   0.11283   0.00000  Uiso   1.00
H370   H     0.34069   0.83678   0.22050   0.00000  Uiso   1.00
H371   H     0.43465   0.70437   0.11521   0.00000  Uiso   1.00
H372   H     0.56535   0.96230   0.21813   0.00000  Uiso   1.00
N373   N     0.50001   0.83334   0.28403   0.00000  Uiso   1.00
N374   N     0.49999   0.83332   0.04931   0.00000  Uiso   1.00
O375   O     0.50000   0.77322   0.20625   0.00000  Uiso   1.00
O376   O     0.50000   0.89345   0.12709   0.00000  Uiso   1.00
O377   O     0.50000   0.77321   0.12706   0.00000  Uiso   1.00
O378   O     0.50000   0.89346   0.20628   0.00000  Uiso   1.00
O379   O     0.42495   0.83334   0.19712   0.00000  Uiso   1.00
O380   O     0.57505   0.83333   0.13621   0.00000  Uiso   1.00
O381   O     0.42494   0.83333   0.11793   0.00000  Uiso   1.00
O382   O     0.57506   0.83334   0.21540   0.00000  Uiso   1.00
C383   C     0.41768   0.95505   0.10635   0.00000  Uiso   1.00
H384   H     0.41091   0.92186   0.10960   0.00000  Uiso   1.00
O385   O     0.38869   0.97332   0.07756   0.00000  Uiso   1.00
C386   C     0.58232   0.71162   0.22699   0.00000  Uiso   1.00
H387   H     0.58909   0.74481   0.22373   0.00000  Uiso   1.00
O388   O     0.61131   0.69335   0.25577   0.00000  Uiso   1.00
C389   C     0.43857   0.77188   0.04131   0.00000  Uiso   1.00
H390   H     0.41551   0.77716   0.06856   0.00000  Uiso   1.00
O391   O     0.44015   0.73635   0.02734   0.00000  Uiso   1.00
C392   C     0.56143   0.89479   0.29202   0.00000  Uiso   1.00
H393   H     0.58449   0.88951   0.26477   0.00000  Uiso   1.00
O394   O     0.55985   0.93032   0.30599   0.00000  Uiso   1.00
C395   C     0.42346   0.78358   0.27517   0.00000  Uiso   1.00
H396   H     0.42952   0.76703   0.24438   0.00000  Uiso   1.00
O397   O     0.37966   0.78229   0.28552   0.00000  Uiso   1.00
C398   C     0.57654   0.88309   0.05817   0.00000  Uiso   1.00
H399   H     0.57048   0.89963   0.08895   0.00000  Uiso   1.00
O400   O     0.62034   0.88438   0.04781   0.00000  Uiso   1.00
C401   C     0.83437   0.75431   0.16680   0.00000  Uiso   1.00
C402   C     0.83230   0.91236   0.16654   0.00000  Uiso   1.00
C403   C     0.73473   0.83305   0.15468   0.00000  Uiso   1.00
C404   C     0.93193   0.83362   0.17865   0.00000  Uiso   1.00
C405   C     0.67933   0.83235   0.14821   0.00000  Uiso   1.00
C406   C     0.98733   0.83432   0.18512   0.00000  Uiso   1.00
C407   C     0.79683   0.68761   0.13706   0.00000  Uiso   1.00
C408   C     0.86984   0.97906   0.19627   0.00000  Uiso   1.00
C409   C     0.79408   0.97775   0.13651   0.00000  Uiso   1.00
C410   C     0.87259   0.68892   0.19683   0.00000  Uiso   1.00
C411   C     0.83140   0.95701   0.16641   0.00000  Uiso   1.00
C412   C     0.83526   0.70966   0.16692   0.00000  Uiso   1.00
C413   C     0.80118   0.80612   0.02078   0.00000  Uiso   1.00
C414   C     0.86549   0.86055   0.31256   0.00000  Uiso   1.00
C415   C     0.79932   0.80756   0.30445   0.00000  Uiso   1.00
C416   C     0.86734   0.85911   0.02889   0.00000  Uiso   1.00
Cu417  Cu    0.83333   0.83334   0.21355   0.00000  Uiso   1.00
Cu418  Cu    0.83333   0.83333   0.11978   0.00000  Uiso   1.00
H419   H     0.99265   0.82989   0.11283   0.00000  Uiso   1.00
H420   H     0.67402   0.83678   0.22050   0.00000  Uiso   1.00
H421   H     0.76799   0.70437   0.11521   0.00000  Uiso   1.00
H422   H     0.89868   0.96230   0.21813   0.00000  Uiso   1.00
N423   N     0.83335   0.83334   0.28403   0.00000  Uiso   1.00
N424   N     0.83332   0.83332   0.04931   0.00000  Uiso   1.00
O425   O     0.83333   0.77322   0.20625   0.00000  Uiso   1.00
O426   O     0.83334   0.89345   0.12709   0.00000  Uiso   1.00
O427   O     0.83333   0.77321   0.12706   0.00000  Uiso   1.00
O428   O     0.83334   0.89346   0.20628   0.00000  Uiso   1.00
O429   O     0.75828   0.83334   0.19712   0.00000  Uiso   1.00
O430   O     0.90839   0.83333   0.13621   0.00000  Uiso   1.00
O431   O     0.75828   0.83333   0.11793   0.00000  Uiso   1.00
O432   O     0.90839   0.83334   0.21540   0.00000  Uiso   1.00
C433   C     0.75101   0.95505   0.10635   0.00000  Uiso   1.00
H434   H     0.74424   0.92186   0.10960   0.00000  Uiso   1.00
O435   O     0.72202   0.97332   0.07756   0.00000  Uiso   1.00
C436   C     0.91565   0.71162   0.22699   0.00000  Uiso   1.00
H437   H     0.92242   0.74481   0.22373   0.00000  Uiso   1.00
O438   O     0.94464   0.69335   0.25577   0.00000  Uiso   1.00
C439   C     0.77190   0.77188   0.04131   0.00000  Uiso   1.00
H440   H     0.74884   0.77716   0.06856   0.00000  Uiso   1.00
O441   O     0.77349   0.73635   0.02734   0.00000  Uiso   1.00
C442   C     0.89476   0.89479   0.29202   0.00000  Uiso   1.00
H443   H     0.91782   0.88951   0.26477   0.00000  Uiso   1.00
O444   O     0.89318   0.93032   0.30599   0.00000  Uiso   1.00
C445   C     0.75680   0.78358   0.27517   0.00000  Uiso   1.00
H446   H     0.76285   0.76703   0.24438   0.00000  Uiso   1.00
O447   O     0.71300   0.78229   0.28552   0.00000  Uiso   1.00
C448   C     0.90987   0.88309   0.05817   0.00000  Uiso   1.00
H449   H     0.90381   0.89963   0.08895   0.00000  Uiso   1.00
O450   O     0.95367   0.88438   0.04781   0.00000  Uiso   1.00
C451   C     0.16770   0.08764   0.50013   0.00000  Uiso   1.00
C452   C     0.16563   0.24569   0.49987   0.00000  Uiso   1.00
C453   C     0.06807   0.16638   0.48802   0.00000  Uiso   1.00
C454   C     0.26527   0.16695   0.51198   0.00000  Uiso   1.00
C455   C     0.01267   0.16568   0.48154   0.00000  Uiso   1.00
C456   C     0.32067   0.16765   0.51846   0.00000  Uiso   1.00
C457   C     0.13016   0.02094   0.47039   0.00000  Uiso   1.00
C458   C     0.20317   0.31239   0.52961   0.00000  Uiso   1.00
C459   C     0.12741   0.31108   0.46984   0.00000  Uiso   1.00
C460   C     0.20592   0.02225   0.53016   0.00000  Uiso   1.00
C461   C     0.16474   0.29034   0.49975   0.00000  Uiso   1.00
C462   C     0.16860   0.04299   0.50025   0.00000  Uiso   1.00
C463   C     0.13451   0.13945   0.35411   0.00000  Uiso   1.00
C464   C     0.19882   0.19388   0.64589   0.00000  Uiso   1.00
C465   C     0.13266   0.14089   0.63778   0.00000  Uiso   1.00
C466   C     0.20068   0.19244   0.36222   0.00000  Uiso   1.00
Cu467  Cu    0.16667   0.16667   0.54689   0.00000  Uiso   1.00
Cu468  Cu    0.16667   0.16666   0.45311   0.00000  Uiso   1.00
H469   H     0.32598   0.16322   0.44616   0.00000  Uiso   1.00
H470   H     0.00735   0.17011   0.55384   0.00000  Uiso   1.00
H471   H     0.10132   0.03770   0.44854   0.00000  Uiso   1.00
H472   H     0.23201   0.29563   0.55146   0.00000  Uiso   1.00
N473   N     0.16668   0.16668   0.61736   0.00000  Uiso   1.00
N474   N     0.16665   0.16666   0.38264   0.00000  Uiso   1.00
O475   O     0.16666   0.10655   0.53958   0.00000  Uiso   1.00
O476   O     0.16667   0.22678   0.46042   0.00000  Uiso   1.00
O477   O     0.16666   0.10654   0.46039   0.00000  Uiso   1.00
O478   O     0.16667   0.22679   0.53961   0.00000  Uiso   1.00
O479   O     0.09161   0.16667   0.53046   0.00000  Uiso   1.00
O480   O     0.24172   0.16666   0.46954   0.00000  Uiso   1.00
O481   O     0.09161   0.16666   0.45127   0.00000  Uiso   1.00
O482   O     0.24172   0.16667   0.54873   0.00000  Uiso   1.00
C483   C     0.08435   0.28838   0.43968   0.00000  Uiso   1.00
H484   H     0.07758   0.25519   0.44293   0.00000  Uiso   1.00
O485   O     0.05536   0.30665   0.41090   0.00000  Uiso   1.00
C486   C     0.24899   0.04495   0.56032   0.00000  Uiso   1.00
H487   H     0.25576   0.07814   0.55706   0.00000  Uiso   1.00
O488   O     0.27797   0.02668   0.58911   0.00000  Uiso   1.00
C489   C     0.10524   0.10521   0.37464   0.00000  Uiso   1.00
H490   H     0.08218   0.11049   0.40190   0.00000  Uiso   1.00
O491   O     0.10682   0.06968   0.36067   0.00000  Uiso   1.00
C492   C     0.22810   0.22812   0.62536   0.00000  Uiso   1.00
H493   H     0.25116   0.22284   0.59810   0.00000  Uiso   1.00
O494   O     0.22651   0.26365   0.63933   0.00000  Uiso   1.00
C495   C     0.09013   0.11691   0.60850   0.00000  Uiso   1.00
H496   H     0.09619   0.10037   0.57771   0.00000  Uiso   1.00
O497   O     0.04633   0.11562   0.61885   0.00000  Uiso   1.00
C498   C     0.24320   0.21642   0.39150   0.00000  Uiso   1.00
H499   H     0.23715   0.23297   0.42229   0.00000  Uiso   1.00
O500   O     0.28700   0.21771   0.38115   0.00000  Uiso   1.00
C501   C     0.50103   0.08764   0.50013   0.00000  Uiso   1.00
C502   C     0.49897   0.24569   0.49987   0.00000  Uiso   1.00
C503   C     0.40140   0.16638   0.48802   0.00000  Uiso   1.00
C504   C     0.59860   0.16695   0.51198   0.00000  Uiso   1.00
C505   C     0.34600   0.16568   0.48154   0.00000  Uiso   1.00
C506   C     0.65400   0.16765   0.51846   0.00000  Uiso   1.00
C507   C     0.46349   0.02094   0.47039   0.00000  Uiso   1.00
C508   C     0.53651   0.31239   0.52961   0.00000  Uiso   1.00
C509   C     0.46075   0.31108   0.46984   0.00000  Uiso   1.00
C510   C     0.53925   0.02225   0.53016   0.00000  Uiso   1.00
C511   C     0.49807   0.29034   0.49975   0.00000  Uiso   1.00
C512   C     0.50193   0.04299   0.50025   0.00000  Uiso   1.00
C513   C     0.46784   0.13945   0.35411   0.00000  Uiso   1.00
C514   C     0.53216   0.19388   0.64589   0.00000  Uiso   1.00
C515   C     0.46599   0.14089   0.63778   0.00000  Uiso   1.00
C516   C     0.53401   0.19244   0.36222   0.00000  Uiso   1.00
Cu517  Cu    0.50000   0.16667   0.54689   0.00000  Uiso   1.00
Cu518  Cu    0.50000   0.16666   0.45311   0.00000  Uiso   1.00
H519   H     0.65931   0.16322   0.44616   0.00000  Uiso   1.00
H520   H     0.34069   0.17011   0.55384   0.00000  Uiso   1.00
H521   H     0.43465   0.03770   0.44854   0.00000  Uiso   1.00
H522   H     0.56535   0.29563   0.55146   0.00000  Uiso   1.00
N523   N     0.50001   0.16668   0.61736   0.00000  Uiso   1.00
N524   N     0.49999   0.16666   0.38264   0.00000  Uiso   1.00
O525   O     0.50000   0.10655   0.53958   0.00000  Uiso   1.00
O526   O     0.50000   0.22678   0.46042   0.00000  Uiso   1.00
O527   O     0.50000   0.10654   0.46039   0.00000  Uiso   1.00
O528   O     0.50000   0.22679   0.53961   0.00000  Uiso   1.00
O529   O     0.42495   0.16667   0.53046   0.00000  Uiso   1.00
O530   O     0.57505   0.16666   0.46954   0.00000  Uiso   1.00
O531   O     0.42494   0.16666   0.45127   0.00000  Uiso   1.00
O532   O     0.57506   0.16667   0.54873   0.00000  Uiso   1.00
C533   C     0.41768   0.28838   0.43968   0.00000  Uiso   1.00
H534   H     0.41091   0.25519   0.44293   0.00000  Uiso   1.00
O535   O     0.38869   0.30665   0.41090   0.00000  Uiso   1.00
C536   C     0.58232   0.04495   0.56032   0.00000  Uiso   1.00
H537   H     0.58909   0.07814   0.55706   0.00000  Uiso   1.00
O538   O     0.61131   0.02668   0.58911   0.00000  Uiso   1.00
C539   C     0.43857   0.10521   0.37464   0.00000  Uiso   1.00
H540   H     0.41551   0.11049   0.40190   0.00000  Uiso   1.00
O541   O     0.44015   0.06968   0.36067   0.00000  Uiso   1.00
C542   C     0.56143   0.22812   0.62536   0.00000  Uiso   1.00
H543   H     0.58449   0.22284   0.59810   0.00000  Uiso   1.00
O544   O     0.55985   0.26365   0.63933   0.00000  Uiso   1.00
C545   C     0.42346   0.11691   0.60850   0.00000  Uiso   1.00
H546   H     0.42952   0.10037   0.57771   0.00000  Uiso   1.00
O547   O     0.37966   0.11562   0.61885   0.00000  Uiso   1.00
C548   C     0.57654   0.21642   0.39150   0.00000  Uiso   1.00
H549   H     0.57048   0.23297   0.42229   0.00000  Uiso   1.00
O550   O     0.62034   0.21771   0.38115   0.00000  Uiso   1.00
C551   C     0.83437   0.08764   0.50013   0.00000  Uiso   1.00
C552   C     0.83230   0.24569   0.49987   0.00000  Uiso   1.00
C553   C     0.73473   0.16638   0.48802   0.00000  Uiso   1.00
C554   C     0.93193   0.16695   0.51198   0.00000  Uiso   1.00
C555   C     0.67933   0.16568   0.48154   0.00000  Uiso   1.00
C556   C     0.98733   0.16765   0.51846   0.00000  Uiso   1.00
C557   C     0.79683   0.02094   0.47039   0.00000  Uiso   1.00
C558   C     0.86984   0.31239   0.52961   0.00000  Uiso   1.00
C559   C     0.79408   0.31108   0.46984   0.00000  Uiso   1.00
C560   C     0.87259   0.02225   0.53016   0.00000  Uiso   1.00
C561   C     0.83140   0.29034   0.49975   0.00000  Uiso   1.00
C562   C     0.83526   0.04299   0.50025   0.00000  Uiso   1.00
C563   C     0.80118   0.13945   0.35411   0.00000  Uiso   1.00
C564   C     0.86549   0.19388   0.64589   0.00000  Uiso   1.00
C565   C     0.79932   0.14089   0.63778   0.00000  Uiso   1.00
C566   C     0.86734   0.19244   0.36222   0.00000  Uiso   1.00
Cu567  Cu    0.83333   0.16667   0.54689   0.00000  Uiso   1.00
Cu568  Cu    0.83333   0.16666   0.45311   0.00000  Uiso   1.00
H569   H     0.99265   0.16322   0.44616   0.00000  Uiso   1.00
H570   H     0.67402   0.17011   0.55384   0.00000  Uiso   1.00
H571   H     0.76799   0.03770   0.44854   0.00000  Uiso   1.00
H572   H     0.89868   0.29563   0.55146   0.00000  Uiso   1.00
N573   N     0.83335   0.16668   0.61736   0.00000  Uiso   1.00
N574   N     0.83332   0.16666   0.38264   0.00000  Uiso   1.00
O575   O     0.83333   0.10655   0.53958   0.00000  Uiso   1.00
O576   O     0.83334   0.22678   0.46042   0.00000  Uiso   1.00
O577   O     0.83333   0.10654   0.46039   0.00000  Uiso   1.00
O578   O     0.83334   0.22679   0.53961   0.00000  Uiso   1.00
O579   O     0.75828   0.16667   0.53046   0.00000  Uiso   1.00
O580   O     0.90839   0.16666   0.46954   0.00000  Uiso   1.00
O581   O     0.75828   0.16666   0.45127   0.00000  Uiso   1.00
O582   O     0.90839   0.16667   0.54873   0.00000  Uiso   1.00
C583   C     0.75101   0.28838   0.43968   0.00000  Uiso   1.00
H584   H     0.74424   0.25519   0.44293   0.00000  Uiso   1.00
O585   O     0.72202   0.30665   0.41090   0.00000  Uiso   1.00
C586   C     0.91565   0.04495   0.56032   0.00000  Uiso   1.00
H587   H     0.92242   0.07814   0.55706   0.00000  Uiso   1.00
O588   O     0.94464   0.02668   0.58911   0.00000  Uiso   1.00
C589   C     0.77190   0.10521   0.37464   0.00000  Uiso   1.00
H590   H     0.74884   0.11049   0.40190   0.00000  Uiso   1.00
O591   O     0.77349   0.06968   0.36067   0.00000  Uiso   1.00
C592   C     0.89476   0.22812   0.62536   0.00000  Uiso   1.00
H593   H     0.91782   0.22284   0.59810   0.00000  Uiso   1.00
O594   O     0.89318   0.26365   0.63933   0.00000  Uiso   1.00
C595   C     0.75680   0.11691   0.60850   0.00000  Uiso   1.00
H596   H     0.76285   0.10037   0.57771   0.00000  Uiso   1.00
O597   O     0.71300   0.11562   0.61885   0.00000  Uiso   1.00
C598   C     0.90987   0.21642   0.39150   0.00000  Uiso   1.00
H599   H     0.90381   0.23297   0.42229   0.00000  Uiso   1.00
O600   O     0.95367   0.21771   0.38115   0.00000  Uiso   1.00
C601   C     0.16770   0.42098   0.50013   0.00000  Uiso   1.00
C602   C     0.16563   0.57902   0.49987   0.00000  Uiso   1.00
C603   C     0.06807   0.49972   0.48802   0.00000  Uiso   1.00
C604   C     0.26527   0.50028   0.51198   0.00000  Uiso   1.00
C605   C     0.01267   0.49902   0.48154   0.00000  Uiso   1.00
C606   C     0.32067   0.50098   0.51846   0.00000  Uiso   1.00
C607   C     0.13016   0.35428   0.47039   0.00000  Uiso   1.00
C608   C     0.20317   0.64572   0.52961   0.00000  Uiso   1.00
C609   C     0.12741   0.64442   0.46984   0.00000  Uiso   1.00
C610   C     0.20592   0.35558   0.53016   0.00000  Uiso   1.00
C611   C     0.16474   0.62367   0.49975   0.00000  Uiso   1.00
C612   C     0.16860   0.37633   0.50025   0.00000  Uiso   1.00
C613   C     0.13451   0.47279   0.35411   0.00000  Uiso   1.00
C614   C     0.19882   0.52721   0.64589   0.00000  Uiso   1.00
C615   C     0.13266   0.47422   0.63778   0.00000  Uiso   1.00
C616   C     0.20068   0.52578   0.36222   0.00000  Uiso   1.00
Cu617  Cu    0.16667   0.50001   0.54689   0.00000  Uiso   1.00
Cu618  Cu    0.16667   0.49999   0.45311   0.00000  Uiso   1.00
H619   H     0.32598   0.49656   0.44616   0.00000  Uiso   1.00
H620   H     0.00735   0.50344   0.55384   0.00000  Uiso   1.00
H621   H     0.10132   0.37104   0.44854   0.00000  Uiso   1.00
H622   H     0.23201   0.62896   0.55146   0.00000  Uiso   1.00
N623   N     0.16668   0.50001   0.61736   0.00000  Uiso   1.00
N624   N     0.16665   0.49999   0.38264   0.00000  Uiso   1.00
O625   O     0.16666   0.43989   0.53958   0.00000  Uiso   1.00
O626   O     0.16667   0.56011   0.46042   0.00000  Uiso   1.00
O627   O     0.16666   0.43988   0.46039   0.00000  Uiso   1.00
O628   O     0.16667   0.56012   0.53961   0.00000  Uiso   1.00
O629   O     0.09161   0.50000   0.53046   0.00000  Uiso   1.00
O630   O     0.24172   0.50000   0.46954   0.00000  Uiso   1.00
O631   O     0.09161   0.49999   0.45127   0.00000  Uiso   1.00
O632   O     0.24172   0.50001   0.54873   0.00000  Uiso   1.00
C633   C     0.08435   0.62172   0.43968   0.00000  Uiso   1.00
H634   H     0.07758   0.58853   0.44293   0.00000  Uiso   1.00
O635   O     0.05536   0.63999   0.41090   0.00000  Uiso   1.00
C636   C     0.24899   0.37828   0.56032   0.00000  Uiso   1.00
H637   H     0.25576   0.41147   0.55706   0.00000  Uiso   1.00
O638   O     0.27797   0.36001   0.58911   0.00000  Uiso   1.00
C639   C     0.10524   0.43855   0.37464   0.00000  Uiso   1.00
H640   H     0.08218   0.44382   0.40190   0.00000  Uiso   1.00
O641   O     0.10682   0.40301   0.36067   0.00000  Uiso   1.00
C642   C     0.22810   0.56145   0.62536   0.00000  Uiso   1.00
H643   H     0.25116   0.55618   0.59810   0.00000  Uiso   1.00
O644   O     0.22651   0.59699   0.63933   0.00000  Uiso   1.00
C645   C     0.09013   0.45024   0.60850   0.00000  Uiso   1.00
H646   H     0.09619   0.43370   0.57771   0.00000  Uiso   1.00
O647   O     0.04633   0.44896   0.61885   0.00000  Uiso   1.00
C648   C     0.24320   0.54976   0.39150   0.00000  Uiso   1.00
H649   H     0.23715   0.56630   0.42229   0.00000  Uiso   1.00
O650   O     0.28700   0.55104   0.38115   0.00000  Uiso   1.00
C651   C     0.50103   0.42098   0.50013   0.00000  Uiso   1.00
C652   C     0.49897   0.57902   0.49987   0.00000  Uiso   1.00
C653   C     0.40140   0.49972   0.48802   0.00000  Uiso   1.00
C654   C     0.59860   0.50028   0.51198   0.00000  Uiso   1.00
C655   C     0.34600   0.49902   0.48154   0.00000  Uiso   1.00
C656   C     0.65400   0.50098   0.51846   0.00000  Uiso   1.00
C657   C     0.46349   0.35428   0.47039   0.00000  Uiso   1.00
C658   C     0.53651   0.64572   0.52961   0.00000  Uiso   1.00
C659   C     0.46075   0.64442   0.46984   0.00000  Uiso   1.00
C660   C     0.53925   0.35558   0.53016   0.00000  Uiso   1.00
C661   C     0.49807   0.62367   0.49975   0.00000  Uiso   1.00
C662   C     0.50193   0.37633   0.50025   0.00000  Uiso   1.00
C663   C     0.46784   0.47279   0.35411   0.00000  Uiso   1.00
C664   C     0.53216   0.52721   0.64589   0.00000  Uiso   1.00
C665   C     0.46599   0.47422   0.63778   0.00000  Uiso   1.00
C666   C     0.53401   0.52578   0.36222   0.00000  Uiso   1.00
Cu667  Cu    0.50000   0.50001   0.54689   0.00000  Uiso   1.00
Cu668  Cu    0.50000   0.49999   0.45311   0.00000  Uiso   1.00
H669   H     0.65931   0.49656   0.44616   0.00000  Uiso   1.00
H670   H     0.34069   0.50344   0.55384   0.00000  Uiso   1.00
H671   H     0.43465   0.37104   0.44854   0.00000  Uiso   1.00
H672   H     0.56535   0.62896   0.55146   0.00000  Uiso   1.00
N673   N     0.50001   0.50001   0.61736   0.00000  Uiso   1.00
N674   N     0.49999   0.49999   0.38264   0.00000  Uiso   1.00
O675   O     0.50000   0.43989   0.53958   0.00000  Uiso   1.00
O676   O     0.50000   0.56011   0.46042   0.00000  Uiso   1.00
O677   O     0.50000   0.43988   0.46039   0.00000  Uiso   1.00
O678   O     0.50000   0.56012   0.53961   0.00000  Uiso   1.00
O679   O     0.42495   0.50000   0.53046   0.00000  Uiso   1.00
O680   O     0.57505   0.50000   0.46954   0.00000  Uiso   1.00
O681   O     0.42494   0.49999   0.45127   0.00000  Uiso   1.00
O682   O     0.57506   0.50001   0.54873   0.00000  Uiso   1.00
C683   C     0.41768   0.62172   0.43968   0.00000  Uiso   1.00
H684   H     0.41091   0.58853   0.44293   0.00000  Uiso   1.00
O685   O     0.38869   0.63999   0.41090   0.00000  Uiso   1.00
C686   C     0.58232   0.37828   0.56032   0.00000  Uiso   1.00
H687   H     0.58909   0.41147   0.55706   0.00000  Uiso   1.00
O688   O     0.61131   0.36001   0.58911   0.00000  Uiso   1.00
C689   C     0.43857   0.43855   0.37464   0.00000  Uiso   1.00
H690   H     0.41551   0.44382   0.40190   0.00000  Uiso   1.00
O691   O     0.44015   0.40301   0.36067   0.00000  Uiso   1.00
C692   C     0.56143   0.56145   0.62536   0.00000  Uiso   1.00
H693   H     0.58449   0.55618   0.59810   0.00000  Uiso   1.00
O694   O     0.55985   0.59699   0.63933   0.00000  Uiso   1.00
C695   C     0.42346   0.45024   0.60850   0.00000  Uiso   1.00
H696   H     0.42952   0.43370   0.57771   0.00000  Uiso   1.00
O697   O     0.37966   0.44896   0.61885   0.00000  Uiso   1.00
C698   C     0.57654   0.54976   0.39150   0.00000  Uiso   1.00
H699   H     0.57048   0.56630   0.42229   0.00000  Uiso   1.00
O700   O     0.62034   0.55104   0.38115   0.00000  Uiso   1.00
C701   C     0.83437   0.42098   0.50013   0.00000  Uiso   1.00
C702   C     0.83230   0.57902   0.49987   0.00000  Uiso   1.00
C703   C     0.73473   0.49972   0.48802   0.00000  Uiso   1.00
C704   C     0.93193   0.50028   0.51198   0.00000  Uiso   1.00
C705   C     0.67933   0.49902   0.48154   0.00000  Uiso   1.00
C706   C     0.98733   0.50098   0.51846   0.00000  Uiso   1.00
C707   C     0.79683   0.35428   0.47039   0.00000  Uiso   1.00
C708   C     0.86984   0.64572   0.52961   0.00000  Uiso   1.00
C709   C     0.79408   0.64442   0.46984   0.00000  Uiso   1.00
C710   C     0.87259   0.35558   0.53016   0.00000  Uiso   1.00
C711   C     0.83140   0.62367   0.49975   0.00000  Uiso   1.00
C712   C     0.83526   0.37633   0.50025   0.00000  Uiso   1.00
C713   C     0.80118   0.47279   0.35411   0.00000  Uiso   1.00
C714   C     0.86549   0.52721   0.64589   0.00000  Uiso   1.00
C715   C     0.79932   0.47422   0.63778   0.00000  Uiso   1.00
C716   C     0.86734   0.52578   0.36222   0.00000  Uiso   1.00
Cu717  Cu    0.83333   0.50001   0.54689   0.00000  Uiso   1.00
Cu718  Cu    0.83333   0.49999   0.45311   0.00000  Uiso   1.00
H719   H     0.99265   0.49656   0.44616   0.00000  Uiso   1.00
H720   H     0.67402   0.50344   0.55384   0.00000  Uiso   1.00
H721   H     0.76799   0.37104   0.44854   0.00000  Uiso   1.00
H722   H     0.89868   0.62896   0.55146   0.00000  Uiso   1.00
N723   N     0.83335   0.50001   0.61736   0.00000  Uiso   1.00
N724   N     0.83332   0.49999   0.38264   0.00000  Uiso   1.00
O725   O     0.83333   0.43989   0.53958   0.00000  Uiso   1.00
O726   O     0.83334   0.56011   0.46042   0.00000  Uiso   1.00
O727   O     0.83333   0.43988   0.46039   0.00000  Uiso   1.00
O728   O     0.83334   0.56012   0.53961   0.00000  Uiso   1.00
O729   O     0.75828   0.50000   0.53046   0.00000  Uiso   1.00
O730   O     0.90839   0.50000   0.46954   0.00000  Uiso   1.00
O731   O     0.75828   0.49999   0.45127   0.00000  Uiso   1.00
O732   O     0.90839   0.50001   0.54873   0.00000  Uiso   1.00
C733   C     0.75101   0.62172   0.43968   0.00000  Uiso   1.00
H734   H     0.74424   0.58853   0.44293   0.00000  Uiso   1.00
O735   O     0.72202   0.63999   0.41090   0.00000  Uiso   1.00
C736   C     0.91565   0.37828   0.56032   0.00000  Uiso   1.00
H737   H     0.92242   0.41147   0.55706   0.00000  Uiso   1.00
O738   O     0.94464   0.36001   0.58911   0.00000  Uiso   1.00
C739   C     0.77190   0.43855   0.37464   0.00000  Uiso   1.00
H740   H     0.74884   0.44382   0.40190   0.00000  Uiso   1.00
O741   O     0.77349   0.40301   0.36067   0.00000  Uiso   1.00
C742   C     0.89476   0.56145   0.62536   0.00000  Uiso   1.00
H743   H     0.91782   0.55618   0.59810   0.00000  Uiso   1.00
O744   O     0.89318   0.59699   0.63933   0.00000  Uiso   1.00
C745   C     0.75680   0.45024   0.60850   0.00000  Uiso   1.00
H746   H     0.76285   0.43370   0.57771   0.00000  Uiso   1.00
O747   O     0.71300   0.44896   0.61885   0.00000  Uiso   1.00
C748   C     0.90987   0.54976   0.39150   0.00000  Uiso   1.00
H749   H     0.90381   0.56630   0.42229   0.00000  Uiso   1.00
O750   O     0.95367   0.55104   0.38115   0.00000  Uiso   1.00
C751   C     0.16770   0.75431   0.50013   0.00000  Uiso   1.00
C752   C     0.16563   0.91236   0.49987   0.00000  Uiso   1.00
C753   C     0.06807   0.83305   0.48802   0.00000  Uiso   1.00
C754   C     0.26527   0.83362   0.51198   0.00000  Uiso   1.00
C755   C     0.01267   0.83235   0.48154   0.00000  Uiso   1.00
C756   C     0.32067   0.83432   0.51846   0.00000  Uiso   1.00
C757   C     0.13016   0.68761   0.47039   0.00000  Uiso   1.00
C758   C     0.20317   0.97906   0.52961   0.00000  Uiso   1.00
C759   C     0.12741   0.97775   0.46984   0.00000  Uiso   1.00
C760   C     0.20592   0.68892   0.53016   0.00000  Uiso   1.00
C761   C     0.16474   0.95701   0.49975   0.00000  Uiso   1.00
C762   C     0.16860   0.70966   0.50025   0.00000  Uiso   1.00
C763   C     0.13451   0.80612   0.35411   0.00000  Uiso   1.00
C764   C     0.19882   0.86055   0.64589   0.00000  Uiso   1.00
C765   C     0.13266   0.80756   0.63778   0.00000  Uiso   1.00
C766   C     0.20068   0.85911   0.36222   0.00000  Uiso   1.00
Cu767  Cu    0.16667   0.83334   0.54689   0.00000  Uiso   1.00
Cu768  Cu    0.16667   0.83333   0.45311   0.00000  Uiso   1.00
H769   H     0.32598   0.82989   0.44616   0.00000  Uiso   1.00
H770   H     0.00735   0.83678   0.55384   0.00000  Uiso   1.00
H771   H     0.10132   0.70437   0.44854   0.00000  Uiso   1.00
H772   H     0.23201   0.96230   0.55146   0.00000  Uiso   1.00
N773   N     0.16668   0.83334   0.61736   0.00000  Uiso   1.00
N774   N     0.16665   0.83332   0.38264   0.00000  Uiso   1.00
O775   O     0.16666   0.77322   0.53958   0.00000  Uiso   1.00
O776   O     0.16667   0.89345   0.46042   0.00000  Uiso   1.00
O777   O     0.16666   0.77321   0.46039   0.00000  Uiso   1.00
O778   O     0.16667   0.89346   0.53961   0.00000  Uiso   1.00
O779   O     0.09161   0.83334   0.53046   0.00000  Uiso   1.00
O780   O     0.24172   0.83333   0.46954   0.00000  Uiso   1.00
O781   O     0.09161   0.83333   0.45127   0.00000  Uiso   1.00
O782   O     0.24172   0.83334   0.54873   0.00000  Uiso   1.00
C783   C     0.08435   0.95505   0.43968   0.00000  Uiso   1.00
H784   H     0.07758   0.92186   0.44293   0.00000  Uiso   1.00
O785   O     0.05536   0.97332   0.41090   0.00000  Uiso   1.00
C786   C     0.24899   0.71162   0.56032   0.00000  Uiso   1.00
H787   H     0.25576   0.74481   0.55706   0.00000  Uiso   1.00
O788   O     0.27797   0.69335   0.58911   0.00000  Uiso   1.00
C789   C     0.10524   0.77188   0.37464   0.00000  Uiso   1.00
H790   H     0.08218   0.77716   0.40190   0.00000  Uiso   1.00
O791   O     0.10682   0.73635   0.36067   0.00000  Uiso   1.00
C792   C     0.22810   0.89479   0.62536   0.00000  Uiso   1.00
H793   H     0.25116   0.88951   0.59810   0.00000  Uiso   1.00
O794   O     0.22651   0.93032   0.63933   0.00000  Uiso   1.00
C795   C     0.09013   0.78358   0.60850   0.00000  Uiso   1.00
H796   H     0.09619   0.76703   0.57771   0.00000  Uiso   1.00
O797   O     0.04633   0.78229   0.61885   0.00000  Uiso   1.00
C798   C     0.24320   0.88309   0.39150   0.00000  Uiso   1.00
H799   H     0.23715   0.89963   0.42229   0.00000  Uiso   1.00
O800   O     0.28700   0.88438   0.38115   0.00000  Uiso   1.00
C801   C     0.50103   0.75431   0.50013   0.00000  Uiso   1.00
C802   C     0.49897   0.91236   0.49987   0.00000  Uiso   1.00
C803   C     0.40140   0.83305   0.48802   0.00000  Uiso   1.00
C804   C     0.59860   0.83362   0.51198   0.00000  Uiso   1.00
C805   C     0.34600   0.83235   0.48154   0.00000  Uiso   1.00
C806   C     0.65400   0.83432   0.51846   0.00000  Uiso   1.00
C807   C     0.46349   0.68761   0.47039   0.00000  Uiso   1.00
C808   C     0.53651   0.97906   0.52961   0.00000  Uiso   1.00
C809   C     0.46075   0.97775   0.46984   0.00000  Uiso   1.00
C810   C     0.53925   0.68892   0.53016   0.00000  Uiso   1.00
C811   C     0.49807   0.95701   0.49975   0.00000  Uiso   1.00
C812   C     0.50193   0.70966   0.50025   0.00000  Uiso   1.00
C813   C     0.46784   0.80612   0.35411   0.00000  Uiso   1.00
C814   C     0.53216   0.86055   0.64589   0.00000  Uiso   1.00
C815   C     0.46599   0.80756   0.63778   0.00000  Uiso   1.00
C816   C     0.53401   0.85911   0.36222   0.00000  Uiso   1.00
Cu817  Cu    0.50000   0.83334   0.54689   0.00000  Uiso   1.00
Cu818  Cu    0.50000   0.83333   0.45311   0.00000  Uiso   1.00
H819   H     0.65931   0.82989   0.44616   0.00000  Uiso   1.00
H820   H     0.34069   0.83678   0.55384   0.00000  Uiso   1.00
H821   H     0.43465   0.70437   0.44854   0.00000  Uiso   1.00
H822   H     0.56535   0.96230   0.55146   0.00000  Uiso   1.00
N823   N     0.50001   0.83334   0.61736   0.00000  Uiso   1.00
N824   N     0.49999   0.83332   0.38264   0.00000  Uiso   1.00
O825   O     0.50000   0.77322   0.53958   0.00000  Uiso   1.00
O826   O     0.50000   0.89345   0.46042   0.00000  Uiso   1.00
O827   O     0.50000   0.77321   0.46039   0.00000  Uiso   1.00
O828   O     0.50000   0.89346   0.53961   0.00000  Uiso   1.00
O829   O     0.42495   0.83334   0.53046   0.00000  Uiso   1.00
O830   O     0.57505   0.83333   0.46954   0.00000  Uiso   1.00
O831   O     0.42494   0.83333   0.45127   0.00000  Uiso   1.00
O832   O     0.57506   0.83334   0.54873   0.00000  Uiso   1.00
C833   C     0.41768   0.95505   0.43968   0.00000  Uiso   1.00
H834   H     0.41091   0.92186   0.44293   0.00000  Uiso   1.00
O835   O     0.38869   0.97332   0.41090   0.00000  Uiso   1.00
C836   C     0.58232   0.71162   0.56032   0.00000  Uiso   1.00
H837   H     0.58909   0.74481   0.55706   0.00000  Uiso   1.00
O838   O     0.61131   0.69335   0.58911   0.00000  Uiso   1.00
C839   C     0.43857   0.77188   0.37464   0.00000  Uiso   1.00
H840   H     0.41551   0.77716   0.40190   0.00000  Uiso   1.00
O841   O     0.44015   0.73635   0.36067   0.00000  Uiso   1.00
C842   C     0.56143   0.89479   0.62536   0.00000  Uiso   1.00
H843   H     0.58449   0.88951   0.59810   0.00000  Uiso   1.00
O844   O     0.55985   0.93032   0.63933   0.00000  Uiso   1.00
C845   C     0.42346   0.78358   0.60850   0.00000  Uiso   1.00
H846   H     0.42952   0.76703   0.57771   0.00000  Uiso   1.00
O847   O     0.37966   0.78229   0.61885   0.00000  Uiso   1.00
C848   C     0.57654   0.88309   0.39150   0.00000  Uiso   1.00
H849   H     0.57048   0.89963   0.42229   0.00000  Uiso   1.00
O850   O     0.62034   0.88438   0.38115   0.00000  Uiso   1.00
C851   C     0.83437   0.75431   0.50013   0.00000  Uiso   1.00
C852   C     0.83230   0.91236   0.49987   0.00000  Uiso   1.00
C853   C     0.73473   0.83305   0.48802   0.00000  Uiso   1.00
C854   C     0.93193   0.83362   0.51198   0.00000  Uiso   1.00
C855   C     0.67933   0.83235   0.48154   0.00000  Uiso   1.00
C856   C     0.98733   0.83432   0.51846   0.00000  Uiso   1.00
C857   C     0.79683   0.68761   0.47039   0.00000  Uiso   1.00
C858   C     0.86984   0.97906   0.52961   0.00000  Uiso   1.00
C859   C     0.79408   0.97775   0.46984   0.00000  Uiso   1.00
C860   C     0.87259   0.68892   0.53016   0.00000  Uiso   1.00
C861   C     0.83140   0.95701   0.49975   0.00000  Uiso   1.00
C862   C     0.83526   0.70966   0.50025   0.00000  Uiso   1.00
C863   C     0.80118   0.80612   0.35411   0.00000  Uiso   1.00
C864   C     0.86549   0.86055   0.64589   0.00000  Uiso   1.00
C865   C     0.79932   0.80756   0.63778   0.00000  Uiso   1.00
C866   C     0.86734   0.85911   0.36222   0.00000  Uiso   1.00
Cu867  Cu    0.83333   0.83334   0.54689   0.00000  Uiso   1.00
Cu868  Cu    0.83333   0.83333   0.45311   0.00000  Uiso   1.00
H869   H     0.99265   0.82989   0.44616   0.00000  Uiso   1.00
H870   H     0.67402   0.83678   0.55384   0.00000  Uiso   1.00
H871   H     0.76799   0.70437   0.44854   0.00000  Uiso   1.00
H872   H     0.89868   0.96230   0.55146   0.00000  Uiso   1.00
N873   N     0.83335   0.83334   0.61736   0.00000  Uiso   1.00
N874   N     0.83332   0.83332   0.38264   0.00000  Uiso   1.00
O875   O     0.83333   0.77322   0.53958   0.00000  Uiso   1.00
O876   O     0.83334   0.89345   0.46042   0.00000  Uiso   1.00
O877   O     0.83333   0.77321   0.46039   0.00000  Uiso   1.00
O878   O     0.83334   0.89346   0.53961   0.00000  Uiso   1.00
O879   O     0.75828   0.83334   0.53046   0.00000  Uiso   1.00
O880   O     0.90839   0.83333   0.46954   0.00000  Uiso   1.00
O881   O     0.75828   0.83333   0.45127   0.00000  Uiso   1.00
O882   O     0.90839   0.83334   0.54873   0.00000  Uiso   1.00
C883   C     0.75101   0.95505   0.43968   0.00000  Uiso   1.00
H884   H     0.74424   0.92186   0.44293   0.00000  Uiso   1.00
O885   O     0.72202   0.97332   0.41090   0.00000  Uiso   1.00
C886   C     0.91565   0.71162   0.56032   0.00000  Uiso   1.00
H887   H     0.92242   0.74481   0.55706   0.00000  Uiso   1.00
O888   O     0.94464   0.69335   0.58911   0.00000  Uiso   1.00
C889   C     0.77190   0.77188   0.37464   0.00000  Uiso   1.00
H890   H     0.74884   0.77716   0.40190   0.00000  Uiso   1.00
O891   O     0.77349   0.73635   0.36067   0.00000  Uiso   1.00
C892   C     0.89476   0.89479   0.62536   0.00000  Uiso   1.00
H893   H     0.91782   0.88951   0.59810   0.00000  Uiso   1.00
O894   O     0.89318   0.93032   0.63933   0.00000  Uiso   1.00
C895   C     0.75680   0.78358   0.60850   0.00000  Uiso   1.00
H896   H     0.76285   0.76703   0.57771   0.00000  Uiso   1.00
O897   O     0.71300   0.78229   0.61885   0.00000  Uiso   1.00
C898   C     0.90987   0.88309   0.39150   0.00000  Uiso   1.00
H899   H     0.90381   0.89963   0.42229   0.00000  Uiso   1.00
O900   O     0.95367   0.88438   0.38115   0.00000  Uiso   1.00
C901   C     0.16770   0.08764   0.83346   0.00000  Uiso   1.00
C902   C     0.16563   0.24569   0.83320   0.00000  Uiso   1.00
C903   C     0.06807   0.16638   0.82135   0.00000  Uiso   1.00
C904   C     0.26527   0.16695   0.84532   0.00000  Uiso   1.00
C905   C     0.01267   0.16568   0.81488   0.00000  Uiso   1.00
C906   C     0.32067   0.16765   0.85179   0.00000  Uiso   1.00
C907   C     0.13016   0.02094   0.80373   0.00000  Uiso   1.00
C908   C     0.20317   0.31239   0.86294   0.00000  Uiso   1.00
C909   C     0.12741   0.31108   0.80317   0.00000  Uiso   1.00
C910   C     0.20592   0.02225   0.86349   0.00000  Uiso   1.00
C911   C     0.16474   0.29034   0.83308   0.00000  Uiso   1.00
C912   C     0.16860   0.04299   0.83359   0.00000  Uiso   1.00
C913   C     0.13451   0.13945   0.68744   0.00000  Uiso   1.00
C914   C     0.19882   0.19388   0.97922   0.00000  Uiso   1.00
C915   C     0.13266   0.14089   0.97111   0.00000  Uiso   1.00
C916   C     0.20068   0.19244   0.69555   0.00000  Uiso   1.00
Cu917  Cu    0.16667   0.16667   0.88022   0.00000  Uiso   1.00
Cu918  Cu    0.16667   0.16666   0.78645   0.00000  Uiso   1.00
H919   H     0.32598   0.16322   0.77950   0.00000  Uiso   1.00
H920   H     0.00735   0.17011   0.88717   0.00000  Uiso   1.00
H921   H     0.10132   0.03770   0.78187   0.00000  Uiso   1.00
H922   H     0.23201   0.29563   0.88479   0.00000  Uiso   1.00
N923   N     0.16668   0.16668   0.95069   0.00000  Uiso   1.00
N924   N     0.16665   0.16666   0.71597   0.00000  Uiso   1.00
O925   O     0.16666   0.10655   0.87291   0.00000  Uiso   1.00
O926   O     0.16667   0.22678   0.79375   0.00000  Uiso   1.00
O927   O     0.16666   0.10654   0.79372   0.00000  Uiso   1.00
O928   O     0.16667   0.22679   0.87294   0.00000  Uiso   1.00
O929   O     0.09161   0.16667   0.86379   0.00000  Uiso   1.00
O930   O     0.24172   0.16666   0.80288   0.00000  Uiso   1.00
O931   O     0.09161   0.16666   0.78460   0.00000  Uiso   1.00
O932   O     0.24172   0.16667   0.88207   0.00000  Uiso   1.00
C933   C     0.08435   0.28838   0.77301   0.00000  Uiso   1.00
H934   H     0.07758   0.25519   0.77627   0.00000  Uiso   1.00
O935   O     0.05536   0.30665   0.74423   0.00000  Uiso   1.00
C936   C     0.24899   0.04495   0.89365   0.00000  Uiso   1.00
H937   H     0.25576   0.07814   0.89040   0.00000  Uiso   1.00
O938   O     0.27797   0.02668   0.92244   0.00000  Uiso   1.00
C939   C     0.10524   0.10521   0.70798   0.00000  Uiso   1.00
H940   H     0.08218   0.11049   0.73523   0.00000  Uiso   1.00
O941   O     0.10682   0.06968   0.69401   0.00000  Uiso   1.00
C942   C     0.22810   0.22812   0.95869   0.00000  Uiso   1.00
H943   H     0.25116   0.22284   0.93144   0.00000  Uiso   1.00
O944   O     0.22651   0.26365   0.97266   0.00000  Uiso   1.00
C945   C     0.09013   0.11691   0.94183   0.00000  Uiso   1.00
H946   H     0.09619   0.10037   0.91105   0.00000  Uiso   1.00
O947   O     0.04633   0.11562   0.95219   0.00000  Uiso   1.00
C948   C     0.24320   0.21642   0.72483   0.00000  Uiso   1.00
H949   H     0.23715   0.23297   0.75562   0.00000  Uiso   1.00
O950   O     0.28700   0.21771   0.71448   0.00000  Uiso   1.00
C951   C     0.50103   0.08764   0.83346   0.00000  Uiso   1.00
C952   C     0.49897   0.24569   0.83320   0.00000  Uiso   1.00
C953   C     0.40140   0.16638   0.82135   0.00000  Uiso   1.00
C954   C     0.59860   0.16695   0.84532   0.00000  Uiso   1.00
C955   C     0.34600   0.16568   0.81488   0.00000  Uiso   1.00
C956   C     0.65400   0.16765   0.85179   0.00000  Uiso   1.00
C957   C     0.46349   0.02094   0.80373   0.00000  Uiso   1.00
C958   C     0.53651   0.31239   0.86294   0.00000  Uiso   1.00
C959   C     0.46075   0.31108   0.80317   0.00000  Uiso   1.00
C960   C     0.53925   0.02225   0.86349   0.00000  Uiso   1.00
C961   C     0.49807   0.29034   0.83308   0.00000  Uiso   1.00
C962   C     0.50193   0.04299   0.83359   0.00000  Uiso   1.00
C963   C     0.46784   0.13945   0.68744   0.00000  Uiso   1.00
C964   C     0.53216   0.19388   0.97922   0.00000  Uiso   1.00
C965   C     0.46599   0.14089   0.97111   0.00000  Uiso   1.00
C966   C     0.53401   0.19244   0.69555   0.00000  Uiso   1.00
Cu967  Cu    0.50000   0.16667   0.88022   0.00000  Uiso   1.00
Cu968  Cu    0.50000   0.16666   0.78645   0.00000  Uiso   1.00
H969   H     0.65931   0.16322   0.77950   0.00000  Uiso   1.00
H970   H     0.34069   0.17011   0.88717   0.00000  Uiso   1.00
H971   H     0.43465   0.03770   0.78187   0.00000  Uiso   1.00
H972   H     0.56535   0.29563   0.88479   0.00000  Uiso   1.00
N973   N     0.50001   0.16668   0.95069   0.00000  Uiso   1.00
N974   N     0.49999   0.16666   0.71597   0.00000  Uiso   1.00
O975   O     0.50000   0.10655   0.87291   0.00000  Uiso   1.00
O976   O     0.50000   0.22678   0.79375   0.00000  Uiso   1.00
O977   O     0.50000   0.10654   0.79372   0.00000  Uiso   1.00
O978   O     0.50000   0.22679   0.87294   0.00000  Uiso   1.00
O979   O     0.42495   0.16667   0.86379   0.00000  Uiso   1.00
O980   O     0.57505   0.16666   0.80288   0.00000  Uiso   1.00
O981   O     0.42494   0.16666   0.78460   0.00000  Uiso   1.00
O982   O     0.57506   0.16667   0.88207   0.00000  Uiso   1.00
C983   C     0.41768   0.28838   0.77301   0.00000  Uiso   1.00
H984   H     0.41091   0.25519   0.77627   0.00000  Uiso   1.00
O985   O     0.38869   0.30665   0.74423   0.00000  Uiso   1.00
C986   C     0.58232   0.04495   0.89365   0.00000  Uiso   1.00
H987   H     0.58909   0.07814   0.89040   0.00000  Uiso   1.00
O988   O     0.61131   0.02668   0.92244   0.00000  Uiso   1.00
C989   C     0.43857   0.10521   0.70798   0.00000  Uiso   1.00
H990   H     0.41551   0.11049   0.73523   0.00000  Uiso   1.00
O991   O     0.44015   0.06968   0.69401   0.00000  Uiso   1.00
C992   C     0.56143   0.22812   0.95869   0.00000  Uiso   1.00
H993   H     0.58449   0.22284   0.93144   0.00000  Uiso   1.00
O994   O     0.55985   0.26365   0.97266   0.00000  Uiso   1.00
C995   C     0.42346   0.11691   0.94183   0.00000  Uiso   1.00
H996   H     0.42952   0.10037   0.91105   0.00000  Uiso   1.00
O997   O     0.37966   0.11562   0.95219   0.00000  Uiso   1.00
C998   C     0.57654   0.21642   0.72483   0.00000  Uiso   1.00
H999   H     0.57048   0.23297   0.75562   0.00000  Uiso   1.00
O1000  O     0.62034   0.21771   0.71448   0.00000  Uiso   1.00
C1001  C     0.83437   0.08764   0.83346   0.00000  Uiso   1.00
C1002  C     0.83230   0.24569   0.83320   0.00000  Uiso   1.00
C1003  C     0.73473   0.16638   0.82135   0.00000  Uiso   1.00
C1004  C     0.93193   0.16695   0.84532   0.00000  Uiso   1.00
C1005  C     0.67933   0.16568   0.81488   0.00000  Uiso   1.00
C1006  C     0.98733   0.16765   0.85179   0.00000  Uiso   1.00
C1007  C     0.79683   0.02094   0.80373   0.00000  Uiso   1.00
C1008  C     0.86984   0.31239   0.86294   0.00000  Uiso   1.00
C1009  C     0.79408   0.31108   0.80317   0.00000  Uiso   1.00
C1010  C     0.87259   0.02225   0.86349   0.00000  Uiso   1.00
C1011  C     0.83140   0.29034   0.83308   0.00000  Uiso   1.00
C1012  C     0.83526   0.04299   0.83359   0.00000  Uiso   1.00
C1013  C     0.80118   0.13945   0.68744   0.00000  Uiso   1.00
C1014  C     0.86549   0.19388   0.97922   0.00000  Uiso   1.00
C1015  C     0.79932   0.14089   0.97111   0.00000  Uiso   1.00
C1016  C     0.86734   0.19244   0.69555   0.00000  Uiso   1.00
Cu1017 Cu    0.83333   0.16667   0.88022   0.00000  Uiso   1.00
Cu1018 Cu    0.83333   0.16666   0.78645   0.00000  Uiso   1.00
H1019  H     0.99265   0.16322   0.77950   0.00000  Uiso   1.00
H1020  H     0.67402   0.17011   0.88717   0.00000  Uiso   1.00
H1021  H     0.76799   0.03770   0.78187   0.00000  Uiso   1.00
H1022  H     0.89868   0.29563   0.88479   0.00000  Uiso   1.00
N1023  N     0.83335   0.16668   0.95069   0.00000  Uiso   1.00
N1024  N     0.83332   0.16666   0.71597   0.00000  Uiso   1.00
O1025  O     0.83333   0.10655   0.87291   0.00000  Uiso   1.00
O1026  O     0.83334   0.22678   0.79375   0.00000  Uiso   1.00
O1027  O     0.83333   0.10654   0.79372   0.00000  Uiso   1.00
O1028  O     0.83334   0.22679   0.87294   0.00000  Uiso   1.00
O1029  O     0.75828   0.16667   0.86379   0.00000  Uiso   1.00
O1030  O     0.90839   0.16666   0.80288   0.00000  Uiso   1.00
O1031  O     0.75828   0.16666   0.78460   0.00000  Uiso   1.00
O1032  O     0.90839   0.16667   0.88207   0.00000  Uiso   1.00
C1033  C     0.75101   0.28838   0.77301   0.00000  Uiso   1.00
H1034  H     0.74424   0.25519   0.77627   0.00000  Uiso   1.00
O1035  O     0.72202   0.30665   0.74423   0.00000  Uiso   1.00
C1036  C     0.91565   0.04495   0.89365   0.00000  Uiso   1.00
H1037  H     0.92242   0.07814   0.89040   0.00000  Uiso   1.00
O1038  O     0.94464   0.02668   0.92244   0.00000  Uiso   1.00
C1039  C     0.77190   0.10521   0.70798   0.00000  Uiso   1.00
H1040  H     0.74884   0.11049   0.73523   0.00000  Uiso   1.00
O1041  O     0.77349   0.06968   0.69401   0.00000  Uiso   1.00
C1042  C     0.89476   0.22812   0.95869   0.00000  Uiso   1.00
H1043  H     0.91782   0.22284   0.93144   0.00000  Uiso   1.00
O1044  O     0.89318   0.26365   0.97266   0.00000  Uiso   1.00
C1045  C     0.75680   0.11691   0.94183   0.00000  Uiso   1.00
H1046  H     0.76285   0.10037   0.91105   0.00000  Uiso   1.00
O1047  O     0.71300   0.11562   0.95219   0.00000  Uiso   1.00
C1048  C     0.90987   0.21642   0.72483   0.00000  Uiso   1.00
H1049  H     0.90381   0.23297   0.75562   0.00000  Uiso   1.00
O1050  O     0.95367   0.21771   0.71448   0.00000  Uiso   1.00
C1051  C     0.16770   0.42098   0.83346   0.00000  Uiso   1.00
C1052  C     0.16563   0.57902   0.83320   0.00000  Uiso   1.00
C1053  C     0.06807   0.49972   0.82135   0.00000  Uiso   1.00
C1054  C     0.26527   0.50028   0.84532   0.00000  Uiso   1.00
C1055  C     0.01267   0.49902   0.81488   0.00000  Uiso   1.00
C1056  C     0.32067   0.50098   0.85179   0.00000  Uiso   1.00
C1057  C     0.13016   0.35428   0.80373   0.00000  Uiso   1.00
C1058  C     0.20317   0.64572   0.86294   0.00000  Uiso   1.00
C1059  C     0.12741   0.64442   0.80317   0.00000  Uiso   1.00
C1060  C     0.20592   0.35558   0.86349   0.00000  Uiso   1.00
C1061  C     0.16474   0.62367   0.83308   0.00000  Uiso   1.00
C1062  C     0.16860   0.37633   0.83359   0.00000  Uiso   1.00
C1063  C     0.13451   0.47279   0.68744   0.00000  Uiso   1.00
C1064  C     0.19882   0.52721   0.97922   0.00000  Uiso   1.00
C1065  C     0.13266   0.47422   0.97111   0.00000  Uiso   1.00
C1066  C     0.20068   0.52578   0.69555   0.00000  Uiso   1.00
Cu1067 Cu    0.16667   0.50001   0.88022   0.00000  Uiso   1.00
Cu1068 Cu    0.16667   0.49999   0.78645   0.00000  Uiso   1.00
H1069  H     0.32598   0.49656   0.77950   0.00000  Uiso   1.00
H1070  H     0.00735   0.50344   0.88717   0.00000  Uiso   1.00
H1071  H     0.10132   0.37104   0.78187   0.00000  Uiso   1.00
H1072  H     0.23201   0.62896   0.88479   0.00000  Uiso   1.00
N1073  N     0.16668   0.50001   0.95069   0.00000  Uiso   1.00
N1074  N     0.16665   0.49999   0.71597   0.00000  Uiso   1.00
O1075  O     0.16666   0.43989   0.87291   0.00000  Uiso   1.00
O1076  O     0.16667   0.56011   0.79375   0.00000  Uiso   1.00
O1077  O     0.16666   0.43988   0.79372   0.00000  Uiso   1.00
O1078  O     0.16667   0.56012   0.87294   0.00000  Uiso   1.00
O1079  O     0.09161   0.50000   0.86379   0.00000  Uiso   1.00
O1080  O     0.24172   0.50000   0.80288   0.00000  Uiso   1.00
O1081  O     0.09161   0.49999   0.78460   0.00000  Uiso   1.00
O1082  O     0.24172   0.50001   0.88207   0.00000  Uiso   1.00
C1083  C     0.08435   0.62172   0.77301   0.00000  Uiso   1.00
H1084  H     0.07758   0.58853   0.77627   0.00000  Uiso   1.00
O1085  O     0.05536   0.63999   0.74423   0.00000  Uiso   1.00
C1086  C     0.24899   0.37828   0.89365   0.00000  Uiso   1.00
H1087  H     0.25576   0.41147   0.89040   0.00000  Uiso   1.00
O1088  O     0.27797   0.36001   0.92244   0.00000  Uiso   1.00
C1089  C     0.10524   0.43855   0.70798   0.00000  Uiso   1.00
H1090  H     0.08218   0.44382   0.73523   0.00000  Uiso   1.00
O1091  O     0.10682   0.40301   0.69401   0.00000  Uiso   1.00
C1092  C     0.22810   0.56145   0.95869   0.00000  Uiso   1.00
H1093  H     0.25116   0.55618   0.93144   0.00000  Uiso   1.00
O1094  O     0.22651   0.59699   0.97266   0.00000  Uiso   1.00
C1095  C     0.09013   0.45024   0.94183   0.00000  Uiso   1.00
H1096  H     0.09619   0.43370   0.91105   0.00000  Uiso   1.00
O1097  O     0.04633   0.44896   0.95219   0.00000  Uiso   1.00
C1098  C     0.24320   0.54976   0.72483   0.00000  Uiso   1.00
H1099  H     0.23715   0.56630   0.75562   0.00000  Uiso   1.00
O1100  O     0.28700   0.55104   0.71448   0.00000  Uiso   1.00
C1101  C     0.50103   0.42098   0.83346   0.00000  Uiso   1.00
C1102  C     0.49897   0.57902   0.83320   0.00000  Uiso   1.00
C1103  C     0.40140   0.49972   0.82135   0.00000  Uiso   1.00
C1104  C     0.59860   0.50028   0.84532   0.00000  Uiso   1.00
C1105  C     0.34600   0.49902   0.81488   0.00000  Uiso   1.00
C1106  C     0.65400   0.50098   0.85179   0.00000  Uiso   1.00
C1107  C     0.46349   0.35428   0.80373   0.00000  Uiso   1.00
C1108  C     0.53651   0.64572   0.86294   0.00000  Uiso   1.00
C1109  C     0.46075   0.64442   0.80317   0.00000  Uiso   1.00
C1110  C     0.53925   0.35558   0.86349   0.00000  Uiso   1.00
C1111  C     0.49807   0.62367   0.83308   0.00000  Uiso   1.00
C1112  C     0.50193   0.37633   0.83359   0.00000  Uiso   1.00
C1113  C     0.46784   0.47279   0.68744   0.00000  Uiso   1.00
C1114  C     0.53216   0.52721   0.97922   0.00000  Uiso   1.00
C1115  C     0.46599   0.47422   0.97111   0.00000  Uiso   1.00
C1116  C     0.53401   0.52578   0.69555   0.00000  Uiso   1.00
Cu1117 Cu    0.50000   0.50001   0.88022   0.00000  Uiso   1.00
Cu1118 Cu    0.50000   0.49999   0.78645   0.00000  Uiso   1.00
H1119  H     0.65931   0.49656   0.77950   0.00000  Uiso   1.00
H1120  H     0.34069   0.50344   0.88717   0.00000  Uiso   1.00
H1121  H     0.43465   0.37104   0.78187   0.00000  Uiso   1.00
H1122  H     0.56535   0.62896   0.88479   0.00000  Uiso   1.00
N1123  N     0.50001   0.50001   0.95069   0.00000  Uiso   1.00
N1124  N     0.49999   0.49999   0.71597   0.00000  Uiso   1.00
O1125  O     0.50000   0.43989   0.87291   0.00000  Uiso   1.00
O1126  O     0.50000   0.56011   0.79375   0.00000  Uiso   1.00
O1127  O     0.50000   0.43988   0.79372   0.00000  Uiso   1.00
O1128  O     0.50000   0.56012   0.87294   0.00000  Uiso   1.00
O1129  O     0.42495   0.50000   0.86379   0.00000  Uiso   1.00
O1130  O     0.57505   0.50000   0.80288   0.00000  Uiso   1.00
O1131  O     0.42494   0.49999   0.78460   0.00000  Uiso   1.00
O1132  O     0.57506   0.50001   0.88207   0.00000  Uiso   1.00
C1133  C     0.41768   0.62172   0.77301   0.00000  Uiso   1.00
H1134  H     0.41091   0.58853   0.77627   0.00000  Uiso   1.00
O1135  O     0.38869   0.63999   0.74423   0.00000  Uiso   1.00
C1136  C     0.58232   0.37828   0.89365   0.00000  Uiso   1.00
H1137  H     0.58909   0.41147   0.89040   0.00000  Uiso   1.00
O1138  O     0.61131   0.36001   0.92244   0.00000  Uiso   1.00
C1139  C     0.43857   0.43855   0.70798   0.00000  Uiso   1.00
H1140  H     0.41551   0.44382   0.73523   0.00000  Uiso   1.00
O1141  O     0.44015   0.40301   0.69401   0.00000  Uiso   1.00
C1142  C     0.56143   0.56145   0.95869   0.00000  Uiso   1.00
H1143  H     0.58449   0.55618   0.93144   0.00000  Uiso   1.00
O1144  O     0.55985   0.59699   0.97266   0.00000  Uiso   1.00
C1145  C     0.42346   0.45024   0.94183   0.00000  Uiso   1.00
H1146  H     0.42952   0.43370   0.91105   0.00000  Uiso   1.00
O1147  O     0.37966   0.44896   0.95219   0.00000  Uiso   1.00
C1148  C     0.57654   0.54976   0.72483   0.00000  Uiso   1.00
H1149  H     0.57048   0.56630   0.75562   0.00000  Uiso   1.00
O1150  O     0.62034   0.55104   0.71448   0.00000  Uiso   1.00
C1151  C     0.83437   0.42098   0.83346   0.00000  Uiso   1.00
C1152  C     0.83230   0.57902   0.83320   0.00000  Uiso   1.00
C1153  C     0.73473   0.49972   0.82135   0.00000  Uiso   1.00
C1154  C     0.93193   0.50028   0.84532   0.00000  Uiso   1.00
C1155  C     0.67933   0.49902   0.81488   0.00000  Uiso   1.00
C1156  C     0.98733   0.50098   0.85179   0.00000  Uiso   1.00
C1157  C     0.79683   0.35428   0.80373   0.00000  Uiso   1.00
C1158  C     0.86984   0.64572   0.86294   0.00000  Uiso   1.00
C1159  C     0.79408   0.64442   0.80317   0.00000  Uiso   1.00
C1160  C     0.87259   0.35558   0.86349   0.00000  Uiso   1.00
C1161  C     0.83140   0.62367   0.83308   0.00000  Uiso   1.00
C1162  C     0.83526   0.37633   0.83359   0.00000  Uiso   1.00
C1163  C     0.80118   0.47279   0.68744   0.00000  Uiso   1.00
C1164  C     0.86549   0.52721   0.97922   0.00000  Uiso   1.00
C1165  C     0.79932   0.47422   0.97111   0.00000  Uiso   1.00
C1166  C     0.86734   0.52578   0.69555   0.00000  Uiso   1.00
Cu1167 Cu    0.83333   0.50001   0.88022   0.00000  Uiso   1.00
Cu1168 Cu    0.83333   0.49999   0.78645   0.00000  Uiso   1.00
H1169  H     0.99265   0.49656   0.77950   0.00000  Uiso   1.00
H1170  H     0.67402   0.50344   0.88717   0.00000  Uiso   1.00
H1171  H     0.76799   0.37104   0.78187   0.00000  Uiso   1.00
H1172  H     0.89868   0.62896   0.88479   0.00000  Uiso   1.00
N1173  N     0.83335   0.50001   0.95069   0.00000  Uiso   1.00
N1174  N     0.83332   0.49999   0.71597   0.00000  Uiso   1.00
O1175  O     0.83333   0.43989   0.87291   0.00000  Uiso   1.00
O1176  O     0.83334   0.56011   0.79375   0.00000  Uiso   1.00
O1177  O     0.83333   0.43988   0.79372   0.00000  Uiso   1.00
O1178  O     0.83334   0.56012   0.87294   0.00000  Uiso   1.00
O1179  O     0.75828   0.50000   0.86379   0.00000  Uiso   1.00
O1180  O     0.90839   0.50000   0.80288   0.00000  Uiso   1.00
O1181  O     0.75828   0.49999   0.78460   0.00000  Uiso   1.00
O1182  O     0.90839   0.50001   0.88207   0.00000  Uiso   1.00
C1183  C     0.75101   0.62172   0.77301   0.00000  Uiso   1.00
H1184  H     0.74424   0.58853   0.77627   0.00000  Uiso   1.00
O1185  O     0.72202   0.63999   0.74423   0.00000  Uiso   1.00
C1186  C     0.91565   0.37828   0.89365   0.00000  Uiso   1.00
H1187  H     0.92242   0.41147   0.89040   0.00000  Uiso   1.00
O1188  O     0.94464   0.36001   0.92244   0.00000  Uiso   1.00
C1189  C     0.77190   0.43855   0.70798   0.00000  Uiso   1.00
H1190  H     0.74884   0.44382   0.73523   0.00000  Uiso   1.00
O1191  O     0.77349   0.40301   0.69401   0.00000  Uiso   1.00
C1192  C     0.89476   0.56145   0.95869   0.00000  Uiso   1.00
H1193  H     0.91782   0.55618   0.93144   0.00000  Uiso   1.00
O1194  O     0.89318   0.59699   0.97266   0.00000  Uiso   1.00
C1195  C     0.75680   0.45024   0.94183   0.00000  Uiso   1.00
H1196  H     0.76285   0.43370   0.91105   0.00000  Uiso   1.00
O1197  O     0.71300   0.44896   0.95219   0.00000  Uiso   1.00
C1198  C     0.90987   0.54976   0.72483   0.00000  Uiso   1.00
H1199  H     0.90381   0.56630   0.75562   0.00000  Uiso   1.00
O1200  O     0.95367   0.55104   0.71448   0.00000  Uiso   1.00
C1201  C     0.16770   0.75431   0.83346   0.00000  Uiso   1.00
C1202  C     0.16563   0.91236   0.83320   0.00000  Uiso   1.00
C1203  C     0.06807   0.83305   0.82135   0.00000  Uiso   1.00
C1204  C     0.26527   0.83362   0.84532   0.00000  Uiso   1.00
C1205  C     0.01267   0.83235   0.81488   0.00000  Uiso   1.00
C1206  C     0.32067   0.83432   0.85179   0.00000  Uiso   1.00
C1207  C     0.13016   0.68761   0.80373   0.00000  Uiso   1.00
C1208  C     0.20317   0.97906   0.86294   0.00000  Uiso   1.00
C1209  C     0.12741   0.97775   0.80317   0.00000  Uiso   1.00
C1210  C     0.20592   0.68892   0.86349   0.00000  Uiso   1.00
C1211  C     0.16474   0.95701   0.83308   0.00000  Uiso   1.00
C1212  C     0.16860   0.70966   0.83359   0.00000  Uiso   1.00
C1213  C     0.13451   0.80612   0.68744   0.00000  Uiso   1.00
C1214  C     0.19882   0.86055   0.97922   0.00000  Uiso   1.00
C1215  C     0.13266   0.80756   0.97111   0.00000  Uiso   1.00
C1216  C     0.20068   0.85911   0.69555   0.00000  Uiso   1.00
Cu1217 Cu    0.16667   0.83334   0.88022   0.00000  Uiso   1.00
Cu1218 Cu    0.16667   0.83333   0.78645   0.00000  Uiso   1.00
H1219  H     0.32598   0.82989   0.77950   0.00000  Uiso   1.00
H1220  H     0.00735   0.83678   0.88717   0.00000  Uiso   1.00
H1221  H     0.10132   0.70437   0.78187   0.00000  Uiso   1.00
H1222  H     0.23201   0.96230   0.88479   0.00000  Uiso   1.00
N1223  N     0.16668   0.83334   0.95069   0.00000  Uiso   1.00
N1224  N     0.16665   0.83332   0.71597   0.00000  Uiso   1.00
O1225  O     0.16666   0.77322   0.87291   0.00000  Uiso   1.00
O1226  O     0.16667   0.89345   0.79375   0.00000  Uiso   1.00
O1227  O     0.16666   0.77321   0.79372   0.00000  Uiso   1.00
O1228  O     0.16667   0.89346   0.87294   0.00000  Uiso   1.00
O1229  O     0.09161   0.83334   0.86379   0.00000  Uiso   1.00
O1230  O     0.24172   0.83333   0.80288   0.00000  Uiso   1.00
O1231  O     0.09161   0.83333   0.78460   0.00000  Uiso   1.00
O1232  O     0.24172   0.83334   0.88207   0.00000  Uiso   1.00
C1233  C     0.08435   0.95505   0.77301   0.00000  Uiso   1.00
H1234  H     0.07758   0.92186   0.77627   0.00000  Uiso   1.00
O1235  O     0.05536   0.97332   0.74423   0.00000  Uiso   1.00
C1236  C     0.24899   0.71162   0.89365   0.00000  Uiso   1.00
H1237  H     0.25576   0.74481   0.89040   0.00000  Uiso   1.00
O1238  O     0.27797   0.69335   0.92244   0.00000  Uiso   1.00
C1239  C     0.10524   0.77188   0.70798   0.00000  Uiso   1.00
H1240  H     0.08218   0.77716   0.73523   0.00000  Uiso   1.00
O1241  O     0.10682   0.73635   0.69401   0.00000  Uiso   1.00
C1242  C     0.22810   0.89479   0.95869   0.00000  Uiso   1.00
H1243  H     0.25116   0.88951   0.93144   0.00000  Uiso   1.00
O1244  O     0.22651   0.93032   0.97266   0.00000  Uiso   1.00
C1245  C     0.09013   0.78358   0.94183   0.00000  Uiso   1.00
H1246  H     0.09619   0.76703   0.91105   0.00000  Uiso   1.00
O1247  O     0.04633   0.78229   0.95219   0.00000  Uiso   1.00
C1248  C     0.24320   0.88309   0.72483   0.00000  Uiso   1.00
H1249  H     0.23715   0.89963   0.75562   0.00000  Uiso   1.00
O1250  O     0.28700   0.88438   0.71448   0.00000  Uiso   1.00
C1251  C     0.50103   0.75431   0.83346   0.00000  Uiso   1.00
C1252  C     0.49897   0.91236   0.83320   0.00000  Uiso   1.00
C1253  C     0.40140   0.83305   0.82135   0.00000  Uiso   1.00
C1254  C     0.59860   0.83362   0.84532   0.00000  Uiso   1.00
C1255  C     0.34600   0.83235   0.81488   0.00000  Uiso   1.00
C1256  C     0.65400   0.83432   0.85179   0.00000  Uiso   1.00
C1257  C     0.46349   0.68761   0.80373   0.00000  Uiso   1.00
C1258  C     0.53651   0.97906   0.86294   0.00000  Uiso   1.00
C1259  C     0.46075   0.97775   0.80317   0.00000  Uiso   1.00
C1260  C     0.53925   0.68892   0.86349   0.00000  Uiso   1.00
C1261  C     0.49807   0.95701   0.83308   0.00000  Uiso   1.00
C1262  C     0.50193   0.70966   0.83359   0.00000  Uiso   1.00
C1263  C     0.46784   0.80612   0.68744   0.00000  Uiso   1.00
C1264  C     0.53216   0.86055   0.97922   0.00000  Uiso   1.00
C1265  C     0.46599   0.80756   0.97111   0.00000  Uiso   1.00
C1266  C     0.53401   0.85911   0.69555   0.00000  Uiso   1.00
Cu1267 Cu    0.50000   0.83334   0.88022   0.00000  Uiso   1.00
Cu1268 Cu    0.50000   0.83333   0.78645   0.00000  Uiso   1.00
H1269  H     0.65931   0.82989   0.77950   0.00000  Uiso   1.00
H1270  H     0.34069   0.83678   0.88717   0.00000  Uiso   1.00
H1271  H     0.43465   0.70437   0.78187   0.00000  Uiso   1.00
H1272  H     0.56535   0.96230   0.88479   0.00000  Uiso   1.00
N1273  N     0.50001   0.83334   0.95069   0.00000  Uiso   1.00
N1274  N     0.49999   0.83332   0.71597   0.00000  Uiso   1.00
O1275  O     0.50000   0.77322   0.87291   0.00000  Uiso   1.00
O1276  O     0.50000   0.89345   0.79375   0.00000  Uiso   1.00
O1277  O     0.50000   0.77321   0.79372   0.00000  Uiso   1.00
O1278  O     0.50000   0.89346   0.87294   0.00000  Uiso   1.00
O1279  O     0.42495   0.83334   0.86379   0.00000  Uiso   1.00
O1280  O     0.57505   0.83333   0.80288   0.00000  Uiso   1.00
O1281  O     0.42494   0.83333   0.78460   0.00000  Uiso   1.00
O1282  O     0.57506   0.83334   0.88207   0.00000  Uiso   1.00
C1283  C     0.41768   0.95505   0.77301   0.00000  Uiso   1.00
H1284  H     0.41091   0.92186   0.77627   0.00000  Uiso   1.00
O1285  O     0.38869   0.97332   0.74423   0.00000  Uiso   1.00
C1286  C     0.58232   0.71162   0.89365   0.00000  Uiso   1.00
H1287  H     0.58909   0.74481   0.89040   0.00000  Uiso   1.00
O1288  O     0.61131   0.69335   0.92244   0.00000  Uiso   1.00
C1289  C     0.43857   0.77188   0.70798   0.00000  Uiso   1.00
H1290  H     0.41551   0.77716   0.73523   0.00000  Uiso   1.00
O1291  O     0.44015   0.73635   0.69401   0.00000  Uiso   1.00
C1292  C     0.56143   0.89479   0.95869   0.00000  Uiso   1.00
H1293  H     0.58449   0.88951   0.93144   0.00000  Uiso   1.00
O1294  O     0.55985   0.93032   0.97266   0.00000  Uiso   1.00
C1295  C     0.42346   0.78358   0.94183   0.00000  Uiso   1.00
H1296  H     0.42952   0.76703   0.91105   0.00000  Uiso   1.00
O1297  O     0.37966   0.78229   0.95219   0.00000  Uiso   1.00
C1298  C     0.57654   0.88309   0.72483   0.00000  Uiso   1.00
H1299  H     0.57048   0.89963   0.75562   0.00000  Uiso   1.00
O1300  O     0.62034   0.88438   0.71448   0.00000  Uiso   1.00
C1301  C     0.83437   0.75431   0.83346   0.00000  Uiso   1.00
C1302  C     0.83230   0.91236   0.83320   0.00000  Uiso   1.00
C1303  C     0.73473   0.83305   0.82135   0.00000  Uiso   1.00
C1304  C     0.93193   0.83362   0.84532   0.00000  Uiso   1.00
C1305  C     0.67933   0.83235   0.81488   0.00000  Uiso   1.00
C1306  C     0.98733   0.83432   0.85179   0.00000  Uiso   1.00
C1307  C     0.79683   0.68761   0.80373   0.00000  Uiso   1.00
C1308  C     0.86984   0.97906   0.86294   0.00000  Uiso   1.00
C1309  C     0.79408   0.97775   0.80317   0.00000  Uiso   1.00
C1310  C     0.87259   0.68892   0.86349   0.00000  Uiso   1.00
C1311  C     0.83140   0.95701   0.83308   0.00000  Uiso   1.00
C1312  C     0.83526   0.70966   0.83359   0.00000  Uiso   1.00
C1313  C     0.80118   0.80612   0.68744   0.00000  Uiso   1.00
C1314  C     0.86549   0.86055   0.97922   0.00000  Uiso   1.00
C1315  C     0.79932   0.80756   0.97111   0.00000  Uiso   1.00
C1316  C     0.86734   0.85911   0.69555   0.00000  Uiso   1.00
Cu1317 Cu    0.83333   0.83334   0.88022   0.00000  Uiso   1.00
Cu1318 Cu    0.83333   0.83333   0.78645   0.00000  Uiso   1.00
H1319  H     0.99265   0.82989   0.77950   0.00000  Uiso   1.00
H1320  H     0.67402   0.83678   0.88717   0.00000  Uiso   1.00
H1321  H     0.76799   0.70437   0.78187   0.00000  Uiso   1.00
H1322  H     0.89868   0.96230   0.88479   0.00000  Uiso   1.00
N1323  N     0.83335   0.83334   0.95069   0.00000  Uiso   1.00
N1324  N     0.83332   0.83332   0.71597   0.00000  Uiso   1.00
O1325  O     0.83333   0.77322   0.87291   0.00000  Uiso   1.00
O1326  O     0.83334   0.89345   0.79375   0.00000  Uiso   1.00
O1327  O     0.83333   0.77321   0.79372   0.00000  Uiso   1.00
O1328  O     0.83334   0.89346   0.87294   0.00000  Uiso   1.00
O1329  O     0.75828   0.83334   0.86379   0.00000  Uiso   1.00
O1330  O     0.90839   0.83333   0.80288   0.00000  Uiso   1.00
O1331  O     0.75828   0.83333   0.78460   0.00000  Uiso   1.00
O1332  O     0.90839   0.83334   0.88207   0.00000  Uiso   1.00
C1333  C     0.75101   0.95505   0.77301   0.00000  Uiso   1.00
H1334  H     0.74424   0.92186   0.77627   0.00000  Uiso   1.00
O1335  O     0.72202   0.97332   0.74423   0.00000  Uiso   1.00
C1336  C     0.91565   0.71162   0.89365   0.00000  Uiso   1.00
H1337  H     0.92242   0.74481   0.89040   0.00000  Uiso   1.00
O1338  O     0.94464   0.69335   0.92244   0.00000  Uiso   1.00
C1339  C     0.77190   0.77188   0.70798   0.00000  Uiso   1.00
H1340  H     0.74884   0.77716   0.73523   0.00000  Uiso   1.00
O1341  O     0.77349   0.73635   0.69401   0.00000  Uiso   1.00
C1342  C     0.89476   0.89479   0.95869   0.00000  Uiso   1.00
H1343  H     0.91782   0.88951   0.93144   0.00000  Uiso   1.00
O1344  O     0.89318   0.93032   0.97266   0.00000  Uiso   1.00
C1345  C     0.75680   0.78358   0.94183   0.00000  Uiso   1.00
H1346  H     0.76285   0.76703   0.91105   0.00000  Uiso   1.00
O1347  O     0.71300   0.78229   0.95219   0.00000  Uiso   1.00
C1348  C     0.90987   0.88309   0.72483   0.00000  Uiso   1.00
H1349  H     0.90381   0.89963   0.75562   0.00000  Uiso   1.00
O1350  O     0.95367   0.88438   0.71448   0.00000  Uiso   1.00
loop_
_geom_bond_atom_site_label_1
_geom_bond_atom_site_label_2
_geom_bond_distance
_geom_bond_site_symmetry_2
_ccdc_geom_bond_type
C1     O25     1.300   .     A
C1     O27     1.300   .     A
C1     C12     1.444   .     S
C2     C11     1.444   .     S
C2     O28     1.300   .     A
C2     O26     1.300   .     A
C3     O31     1.300   .     A
C3     O29     1.297   .     A
C3     C5      1.434   .     S
C4     O32     1.300   .     A
C4     C6      1.434   .     S
C4     O30     1.297   .     A
C5     C106    1.335   1_455 S
C5     H119    1.086   1_455 S
C6     C55     1.335   .     S
C6     H70     1.086   .     S
C7     C12     1.398   .     A
C7     H21     1.084   .     S
C7     C309    1.393   1_545 S
C8     H22     1.084   .     S
C8     C11     1.398   .     A
C8     C160    1.393   .     S
C9     C11     1.410   .     A
C9     C33     1.488   .     S
C9     C157    1.393   .     S
C10    C12     1.410   .     A
C10    C36     1.488   .     S
C10    C308    1.393   1_545 S
C13    C39     1.483   .     S
C13    N24     1.377   .     A
C13    C915    1.433   1_554 S
C14    N23     1.377   .     A
C14    C42     1.483   .     S
C14    C466    1.433   .     S
C15    N23     1.379   .     A
C15    C45     1.486   .     S
C15    C463    1.433   .     S
C16    C48     1.486   .     S
C16    N24     1.379   .     A
C16    C914    1.433   1_554 S
Cu17   O29     1.955   .     S
Cu17   O25     1.953   .     S
Cu17   N23     2.041   .     S
Cu17   Cu18    2.716   .     S
Cu17   O32     1.956   .     S
Cu17   O28     1.953   .     S
Cu18   O26     1.953   .     S
Cu18   N24     2.041   .     S
Cu18   O30     1.955   .     S
Cu18   O31     1.956   .     S
Cu18   O27     1.953   .     S
H19    C55     1.086   .     S
H20    C106    1.086   1_455 S
C33    H34     1.084   .     S
C33    O35     1.221   .     D
C36    O38     1.221   .     D
C36    H37     1.084   .     S
C39    O41     1.221   .     D
C39    H40     1.075   .     S
C42    O44     1.221   .     D
C42    H43     1.075   .     S
C45    H46     1.074   .     S
C45    O47     1.222   .     D
C48    O50     1.222   .     D
C48    H49     1.074   .     S
C51    O75     1.300   .     A
C51    O77     1.300   .     A
C51    C62     1.444   .     S
C52    C61     1.444   .     S
C52    O78     1.300   .     A
C52    O76     1.300   .     A
C53    O81     1.300   .     A
C53    O79     1.297   .     A
C53    C55     1.434   .     S
C54    O82     1.300   .     A
C54    C56     1.434   .     S
C54    O80     1.297   .     A
C56    C105    1.335   .     S
C56    H120    1.086   .     S
C57    C62     1.398   .     A
C57    H71     1.084   .     S
C57    C359    1.393   1_545 S
C58    H72     1.084   .     S
C58    C61     1.398   .     A
C58    C210    1.393   .     S
C59    C61     1.410   .     A
C59    C83     1.488   .     S
C59    C207    1.393   .     S
C60    C62     1.410   .     A
C60    C86     1.488   .     S
C60    C358    1.393   1_545 S
C63    C89     1.483   .     S
C63    N74     1.377   .     A
C63    C965    1.433   1_554 S
C64    N73     1.377   .     A
C64    C92     1.483   .     S
C64    C516    1.433   .     S
C65    N73     1.379   .     A
C65    C95     1.486   .     S
C65    C513    1.433   .     S
C66    C98     1.486   .     S
C66    N74     1.379   .     A
C66    C964    1.433   1_554 S
Cu67   O79     1.955   .     S
Cu67   O75     1.953   .     S
Cu67   N73     2.041   .     S
Cu67   Cu68    2.716   .     S
Cu67   O82     1.956   .     S
Cu67   O78     1.953   .     S
Cu68   O76     1.953   .     S
Cu68   N74     2.041   .     S
Cu68   O80     1.955   .     S
Cu68   O81     1.956   .     S
Cu68   O77     1.953   .     S
H69    C105    1.086   .     S
C83    H84     1.084   .     S
C83    O85     1.221   .     D
C86    O88     1.221   .     D
C86    H87     1.084   .     S
C89    O91     1.221   .     D
C89    H90     1.075   .     S
C92    O94     1.221   .     D
C92    H93     1.075   .     S
C95    H96     1.074   .     S
C95    O97     1.222   .     D
C98    O100    1.222   .     D
C98    H99     1.074   .     S
C101   O125    1.300   .     A
C101   O127    1.300   .     A
C101   C112    1.444   .     S
C102   C111    1.444   .     S
C102   O128    1.300   .     A
C102   O126    1.300   .     A
C103   O131    1.300   .     A
C103   O129    1.297   .     A
C103   C105    1.434   .     S
C104   O132    1.300   .     A
C104   C106    1.434   .     S
C104   O130    1.297   .     A
C106   C5      1.335   1_655 S
C106   H20     1.086   1_655 S
C107   C112    1.398   .     A
C107   H121    1.084   .     S
C107   C409    1.393   1_545 S
C108   H122    1.084   .     S
C108   C111    1.398   .     A
C108   C260    1.393   .     S
C109   C111    1.410   .     A
C109   C133    1.488   .     S
C109   C257    1.393   .     S
C110   C112    1.410   .     A
C110   C136    1.488   .     S
C110   C408    1.393   1_545 S
C113   C139    1.483   .     S
C113   N124    1.377   .     A
C113   C1015   1.433   1_554 S
C114   N123    1.377   .     A
C114   C142    1.483   .     S
C114   C566    1.433   .     S
C115   N123    1.379   .     A
C115   C145    1.486   .     S
C115   C563    1.433   .     S
C116   C148    1.486   .     S
C116   N124    1.379   .     A
C116   C1014   1.433   1_554 S
Cu117  O129    1.955   .     S
Cu117  O125    1.953   .     S
Cu117  N123    2.041   .     S
Cu117  Cu118   2.716   .     S
Cu117  O132    1.956   .     S
Cu117  O128    1.953   .     S
Cu118  O126    1.953   .     S
Cu118  N124    2.041   .     S
Cu118  O130    1.955   .     S
Cu118  O131    1.956   .     S
Cu118  O127    1.953   .     S
H119   C5      1.086   1_655 S
C133   H134    1.084   .     S
C133   O135    1.221   .     D
C136   O138    1.221   .     D
C136   H137    1.084   .     S
C139   O141    1.221   .     D
C139   H140    1.075   .     S
C142   O144    1.221   .     D
C142   H143    1.075   .     S
C145   H146    1.074   .     S
C145   O147    1.222   .     D
C148   O150    1.222   .     D
C148   H149    1.074   .     S
C151   O175    1.300   .     A
C151   O177    1.300   .     A
C151   C162    1.444   .     S
C152   C161    1.444   .     S
C152   O178    1.300   .     A
C152   O176    1.300   .     A
C153   O181    1.300   .     A
C153   O179    1.297   .     A
C153   C155    1.434   .     S
C154   O182    1.300   .     A
C154   C156    1.434   .     S
C154   O180    1.297   .     A
C155   C256    1.335   1_455 S
C155   H269    1.086   1_455 S
C156   C205    1.335   .     S
C156   H220    1.086   .     S
C157   C162    1.398   .     A
C157   H171    1.084   .     S
C158   H172    1.084   .     S
C158   C161    1.398   .     A
C158   C310    1.393   .     S
C159   C161    1.410   .     A
C159   C183    1.488   .     S
C159   C307    1.393   .     S
C160   C162    1.410   .     A
C160   C186    1.488   .     S
C163   C189    1.483   .     S
C163   N174    1.377   .     A
C163   C1065   1.433   1_554 S
C164   N173    1.377   .     A
C164   C192    1.483   .     S
C164   C616    1.433   .     S
C165   N173    1.379   .     A
C165   C195    1.486   .     S
C165   C613    1.433   .     S
C166   C198    1.486   .     S
C166   N174    1.379   .     A
C166   C1064   1.433   1_554 S
Cu167  O179    1.955   .     S
Cu167  O175    1.953   .     S
Cu167  N173    2.041   .     S
Cu167  Cu168   2.716   .     S
Cu167  O182    1.956   .     S
Cu167  O178    1.953   .     S
Cu168  O176    1.953   .     S
Cu168  N174    2.041   .     S
Cu168  O180    1.955   .     S
Cu168  O181    1.956   .     S
Cu168  O177    1.953   .     S
H169   C205    1.086   .     S
H170   C256    1.086   1_455 S
C183   H184    1.084   .     S
C183   O185    1.221   .     D
C186   O188    1.221   .     D
C186   H187    1.084   .     S
C189   O191    1.221   .     D
C189   H190    1.075   .     S
C192   O194    1.221   .     D
C192   H193    1.075   .     S
C195   H196    1.074   .     S
C195   O197    1.222   .     D
C198   O200    1.222   .     D
C198   H199    1.074   .     S
C201   O225    1.300   .     A
C201   O227    1.300   .     A
C201   C212    1.444   .     S
C202   C211    1.444   .     S
C202   O228    1.300   .     A
C202   O226    1.300   .     A
C203   O231    1.300   .     A
C203   O229    1.297   .     A
C203   C205    1.434   .     S
C204   O232    1.300   .     A
C204   C206    1.434   .     S
C204   O230    1.297   .     A
C206   C255    1.335   .     S
C206   H270    1.086   .     S
C207   C212    1.398   .     A
C207   H221    1.084   .     S
C208   H222    1.084   .     S
C208   C211    1.398   .     A
C208   C360    1.393   .     S
C209   C211    1.410   .     A
C209   C233    1.488   .     S
C209   C357    1.393   .     S
C210   C212    1.410   .     A
C210   C236    1.488   .     S
C213   C239    1.483   .     S
C213   N224    1.377   .     A
C213   C1115   1.433   1_554 S
C214   N223    1.377   .     A
C214   C242    1.483   .     S
C214   C666    1.433   .     S
C215   N223    1.379   .     A
C215   C245    1.486   .     S
C215   C663    1.433   .     S
C216   C248    1.486   .     S
C216   N224    1.379   .     A
C216   C1114   1.433   1_554 S
Cu217  O229    1.955   .     S
Cu217  O225    1.953   .     S
Cu217  N223    2.041   .     S
Cu217  Cu218   2.716   .     S
Cu217  O232    1.956   .     S
Cu217  O228    1.953   .     S
Cu218  O226    1.953   .     S
Cu218  N224    2.041   .     S
Cu218  O230    1.955   .     S
Cu218  O231    1.956   .     S
Cu218  O227    1.953   .     S
H219   C255    1.086   .     S
C233   H234    1.084   .     S
C233   O235    1.221   .     D
C236   O238    1.221   .     D
C236   H237    1.084   .     S
C239   O241    1.221   .     D
C239   H240    1.075   .     S
C242   O244    1.221   .     D
C242   H243    1.075   .     S
C245   H246    1.074   .     S
C245   O247    1.222   .     D
C248   O250    1.222   .     D
C248   H249    1.074   .     S
C251   O275    1.300   .     A
C251   O277    1.300   .     A
C251   C262    1.444   .     S
C252   C261    1.444   .     S
C252   O278    1.300   .     A
C252   O276    1.300   .     A
C253   O281    1.300   .     A
C253   O279    1.297   .     A
C253   C255    1.434   .     S
C254   O282    1.300   .     A
C254   C256    1.434   .     S
C254   O280    1.297   .     A
C256   C155    1.335   1_655 S
C256   H170    1.086   1_655 S
C257   C262    1.398   .     A
C257   H271    1.084   .     S
C258   H272    1.084   .     S
C258   C261    1.398   .     A
C258   C410    1.393   .     S
C259   C261    1.410   .     A
C259   C283    1.488   .     S
C259   C407    1.393   .     S
C260   C262    1.410   .     A
C260   C286    1.488   .     S
C263   C289    1.483   .     S
C263   N274    1.377   .     A
C263   C1165   1.433   1_554 S
C264   N273    1.377   .     A
C264   C292    1.483   .     S
C264   C716    1.433   .     S
C265   N273    1.379   .     A
C265   C295    1.486   .     S
C265   C713    1.433   .     S
C266   C298    1.486   .     S
C266   N274    1.379   .     A
C266   C1164   1.433   1_554 S
Cu267  O279    1.955   .     S
Cu267  O275    1.953   .     S
Cu267  N273    2.041   .     S
Cu267  Cu268   2.716   .     S
Cu267  O282    1.956   .     S
Cu267  O278    1.953   .     S
Cu268  O276    1.953   .     S
Cu268  N274    2.041   .     S
Cu268  O280    1.955   .     S
Cu268  O281    1.956   .     S
Cu268  O277    1.953   .     S
H269   C155    1.086   1_655 S
C283   H284    1.084   .     S
C283   O285    1.221   .     D
C286   O288    1.221   .     D
C286   H287    1.084   .     S
C289   O291    1.221   .     D
C289   H290    1.075   .     S
C292   O294    1.221   .     D
C292   H293    1.075   .     S
C295   H296    1.074   .     S
C295   O297    1.222   .     D
C298   O300    1.222   .     D
C298   H299    1.074   .     S
C301   O325    1.300   .     A
C301   O327    1.300   .     A
C301   C312    1.444   .     S
C302   C311    1.444   .     S
C302   O328    1.300   .     A
C302   O326    1.300   .     A
C303   O331    1.300   .     A
C303   O329    1.297   .     A
C303   C305    1.434   .     S
C304   O332    1.300   .     A
C304   C306    1.434   .     S
C304   O330    1.297   .     A
C305   C406    1.335   1_455 S
C305   H419    1.086   1_455 S
C306   C355    1.335   .     S
C306   H370    1.086   .     S
C307   C312    1.398   .     A
C307   H321    1.084   .     S
C308   H322    1.084   .     S
C308   C311    1.398   .     A
C308   C10     1.393   1_565 S
C309   C311    1.410   .     A
C309   C333    1.488   .     S
C309   C7      1.393   1_565 S
C310   C312    1.410   .     A
C310   C336    1.488   .     S
C313   C339    1.483   .     S
C313   N324    1.377   .     A
C313   C1215   1.433   1_554 S
C314   N323    1.377   .     A
C314   C342    1.483   .     S
C314   C766    1.433   .     S
C315   N323    1.379   .     A
C315   C345    1.486   .     S
C315   C763    1.433   .     S
C316   C348    1.486   .     S
C316   N324    1.379   .     A
C316   C1214   1.433   1_554 S
Cu317  O329    1.955   .     S
Cu317  O325    1.953   .     S
Cu317  N323    2.041   .     S
Cu317  Cu318   2.716   .     S
Cu317  O332    1.956   .     S
Cu317  O328    1.953   .     S
Cu318  O326    1.953   .     S
Cu318  N324    2.041   .     S
Cu318  O330    1.955   .     S
Cu318  O331    1.956   .     S
Cu318  O327    1.953   .     S
H319   C355    1.086   .     S
H320   C406    1.086   1_455 S
C333   H334    1.084   .     S
C333   O335    1.221   .     D
C336   O338    1.221   .     D
C336   H337    1.084   .     S
C339   O341    1.221   .     D
C339   H340    1.075   .     S
C342   O344    1.221   .     D
C342   H343    1.075   .     S
C345   H346    1.074   .     S
C345   O347    1.222   .     D
C348   O350    1.222   .     D
C348   H349    1.074   .     S
C351   O375    1.300   .     A
C351   O377    1.300   .     A
C351   C362    1.444   .     S
C352   C361    1.444   .     S
C352   O378    1.300   .     A
C352   O376    1.300   .     A
C353   O381    1.300   .     A
C353   O379    1.297   .     A
C353   C355    1.434   .     S
C354   O382    1.300   .     A
C354   C356    1.434   .     S
C354   O380    1.297   .     A
C356   C405    1.335   .     S
C356   H420    1.086   .     S
C357   C362    1.398   .     A
C357   H371    1.084   .     S
C358   H372    1.084   .     S
C358   C361    1.398   .     A
C358   C60     1.393   1_565 S
C359   C361    1.410   .     A
C359   C383    1.488   .     S
C359   C57     1.393   1_565 S
C360   C362    1.410   .     A
C360   C386    1.488   .     S
C363   C389    1.483   .     S
C363   N374    1.377   .     A
C363   C1265   1.433   1_554 S
C364   N373    1.377   .     A
C364   C392    1.483   .     S
C364   C816    1.433   .     S
C365   N373    1.379   .     A
C365   C395    1.486   .     S
C365   C813    1.433   .     S
C366   C398    1.486   .     S
C366   N374    1.379   .     A
C366   C1264   1.433   1_554 S
Cu367  O379    1.955   .     S
Cu367  O375    1.953   .     S
Cu367  N373    2.041   .     S
Cu367  Cu368   2.716   .     S
Cu367  O382    1.956   .     S
Cu367  O378    1.953   .     S
Cu368  O376    1.953   .     S
Cu368  N374    2.041   .     S
Cu368  O380    1.955   .     S
Cu368  O381    1.956   .     S
Cu368  O377    1.953   .     S
H369   C405    1.086   .     S
C383   H384    1.084   .     S
C383   O385    1.221   .     D
C386   O388    1.221   .     D
C386   H387    1.084   .     S
C389   O391    1.221   .     D
C389   H390    1.075   .     S
C392   O394    1.221   .     D
C392   H393    1.075   .     S
C395   H396    1.074   .     S
C395   O397    1.222   .     D
C398   O400    1.222   .     D
C398   H399    1.074   .     S
C401   O425    1.300   .     A
C401   O427    1.300   .     A
C401   C412    1.444   .     S
C402   C411    1.444   .     S
C402   O428    1.300   .     A
C402   O426    1.300   .     A
C403   O431    1.300   .     A
C403   O429    1.297   .     A
C403   C405    1.434   .     S
C404   O432    1.300   .     A
C404   C406    1.434   .     S
C404   O430    1.297   .     A
C406   C305    1.335   1_655 S
C406   H320    1.086   1_655 S
C407   C412    1.398   .     A
C407   H421    1.084   .     S
C408   H422    1.084   .     S
C408   C411    1.398   .     A
C408   C110    1.393   1_565 S
C409   C411    1.410   .     A
C409   C433    1.488   .     S
C409   C107    1.393   1_565 S
C410   C412    1.410   .     A
C410   C436    1.488   .     S
C413   C439    1.483   .     S
C413   N424    1.377   .     A
C413   C1315   1.433   1_554 S
C414   N423    1.377   .     A
C414   C442    1.483   .     S
C414   C866    1.433   .     S
C415   N423    1.379   .     A
C415   C445    1.486   .     S
C415   C863    1.433   .     S
C416   C448    1.486   .     S
C416   N424    1.379   .     A
C416   C1314   1.433   1_554 S
Cu417  O429    1.955   .     S
Cu417  O425    1.953   .     S
Cu417  N423    2.041   .     S
Cu417  Cu418   2.716   .     S
Cu417  O432    1.956   .     S
Cu417  O428    1.953   .     S
Cu418  O426    1.953   .     S
Cu418  N424    2.041   .     S
Cu418  O430    1.955   .     S
Cu418  O431    1.956   .     S
Cu418  O427    1.953   .     S
H419   C305    1.086   1_655 S
C433   H434    1.084   .     S
C433   O435    1.221   .     D
C436   O438    1.221   .     D
C436   H437    1.084   .     S
C439   O441    1.221   .     D
C439   H440    1.075   .     S
C442   O444    1.221   .     D
C442   H443    1.075   .     S
C445   H446    1.074   .     S
C445   O447    1.222   .     D
C448   O450    1.222   .     D
C448   H449    1.074   .     S
C451   O475    1.300   .     A
C451   O477    1.300   .     A
C451   C462    1.444   .     S
C452   C461    1.444   .     S
C452   O478    1.300   .     A
C452   O476    1.300   .     A
C453   O481    1.300   .     A
C453   O479    1.297   .     A
C453   C455    1.434   .     S
C454   O482    1.300   .     A
C454   C456    1.434   .     S
C454   O480    1.297   .     A
C455   C556    1.335   1_455 S
C455   H569    1.086   1_455 S
C456   C505    1.335   .     S
C456   H520    1.086   .     S
C457   C462    1.398   .     A
C457   H471    1.084   .     S
C457   C759    1.393   1_545 S
C458   H472    1.084   .     S
C458   C461    1.398   .     A
C458   C610    1.393   .     S
C459   C461    1.410   .     A
C459   C483    1.488   .     S
C459   C607    1.393   .     S
C460   C462    1.410   .     A
C460   C486    1.488   .     S
C460   C758    1.393   1_545 S
C463   C489    1.483   .     S
C463   N474    1.377   .     A
C464   N473    1.377   .     A
C464   C492    1.483   .     S
C464   C916    1.433   .     S
C465   N473    1.379   .     A
C465   C495    1.486   .     S
C465   C913    1.433   .     S
C466   C498    1.486   .     S
C466   N474    1.379   .     A
Cu467  O479    1.955   .     S
Cu467  O475    1.953   .     S
Cu467  N473    2.041   .     S
Cu467  Cu468   2.716   .     S
Cu467  O482    1.956   .     S
Cu467  O478    1.953   .     S
Cu468  O476    1.953   .     S
Cu468  N474    2.041   .     S
Cu468  O480    1.955   .     S
Cu468  O481    1.956   .     S
Cu468  O477    1.953   .     S
H469   C505    1.086   .     S
H470   C556    1.086   1_455 S
C483   H484    1.084   .     S
C483   O485    1.221   .     D
C486   O488    1.221   .     D
C486   H487    1.084   .     S
C489   O491    1.221   .     D
C489   H490    1.075   .     S
C492   O494    1.221   .     D
C492   H493    1.075   .     S
C495   H496    1.074   .     S
C495   O497    1.222   .     D
C498   O500    1.222   .     D
C498   H499    1.074   .     S
C501   O525    1.300   .     A
C501   O527    1.300   .     A
C501   C512    1.444   .     S
C502   C511    1.444   .     S
C502   O528    1.300   .     A
C502   O526    1.300   .     A
C503   O531    1.300   .     A
C503   O529    1.297   .     A
C503   C505    1.434   .     S
C504   O532    1.300   .     A
C504   C506    1.434   .     S
C504   O530    1.297   .     A
C506   C555    1.335   .     S
C506   H570    1.086   .     S
C507   C512    1.398   .     A
C507   H521    1.084   .     S
C507   C809    1.393   1_545 S
C508   H522    1.084   .     S
C508   C511    1.398   .     A
C508   C660    1.393   .     S
C509   C511    1.410   .     A
C509   C533    1.488   .     S
C509   C657    1.393   .     S
C510   C512    1.410   .     A
C510   C536    1.488   .     S
C510   C808    1.393   1_545 S
C513   C539    1.483   .     S
C513   N524    1.377   .     A
C514   N523    1.377   .     A
C514   C542    1.483   .     S
C514   C966    1.433   .     S
C515   N523    1.379   .     A
C515   C545    1.486   .     S
C515   C963    1.433   .     S
C516   C548    1.486   .     S
C516   N524    1.379   .     A
Cu517  O529    1.955   .     S
Cu517  O525    1.953   .     S
Cu517  N523    2.041   .     S
Cu517  Cu518   2.716   .     S
Cu517  O532    1.956   .     S
Cu517  O528    1.953   .     S
Cu518  O526    1.953   .     S
Cu518  N524    2.041   .     S
Cu518  O530    1.955   .     S
Cu518  O531    1.956   .     S
Cu518  O527    1.953   .     S
H519   C555    1.086   .     S
C533   H534    1.084   .     S
C533   O535    1.221   .     D
C536   O538    1.221   .     D
C536   H537    1.084   .     S
C539   O541    1.221   .     D
C539   H540    1.075   .     S
C542   O544    1.221   .     D
C542   H543    1.075   .     S
C545   H546    1.074   .     S
C545   O547    1.222   .     D
C548   O550    1.222   .     D
C548   H549    1.074   .     S
C551   O575    1.300   .     A
C551   O577    1.300   .     A
C551   C562    1.444   .     S
C552   C561    1.444   .     S
C552   O578    1.300   .     A
C552   O576    1.300   .     A
C553   O581    1.300   .     A
C553   O579    1.297   .     A
C553   C555    1.434   .     S
C554   O582    1.300   .     A
C554   C556    1.434   .     S
C554   O580    1.297   .     A
C556   C455    1.335   1_655 S
C556   H470    1.086   1_655 S
C557   C562    1.398   .     A
C557   H571    1.084   .     S
C557   C859    1.393   1_545 S
C558   H572    1.084   .     S
C558   C561    1.398   .     A
C558   C710    1.393   .     S
C559   C561    1.410   .     A
C559   C583    1.488   .     S
C559   C707    1.393   .     S
C560   C562    1.410   .     A
C560   C586    1.488   .     S
C560   C858    1.393   1_545 S
C563   C589    1.483   .     S
C563   N574    1.377   .     A
C564   N573    1.377   .     A
C564   C592    1.483   .     S
C564   C1016   1.433   .     S
C565   N573    1.379   .     A
C565   C595    1.486   .     S
C565   C1013   1.433   .     S
C566   C598    1.486   .     S
C566   N574    1.379   .     A
Cu567  O579    1.955   .     S
Cu567  O575    1.953   .     S
Cu567  N573    2.041   .     S
Cu567  Cu568   2.716   .     S
Cu567  O582    1.956   .     S
Cu567  O578    1.953   .     S
Cu568  O576    1.953   .     S
Cu568  N574    2.041   .     S
Cu568  O580    1.955   .     S
Cu568  O581    1.956   .     S
Cu568  O577    1.953   .     S
H569   C455    1.086   1_655 S
C583   H584    1.084   .     S
C583   O585    1.221   .     D
C586   O588    1.221   .     D
C586   H587    1.084   .     S
C589   O591    1.221   .     D
C589   H590    1.075   .     S
C592   O594    1.221   .     D
C592   H593    1.075   .     S
C595   H596    1.074   .     S
C595   O597    1.222   .     D
C598   O600    1.222   .     D
C598   H599    1.074   .     S
C601   O625    1.300   .     A
C601   O627    1.300   .     A
C601   C612    1.444   .     S
C602   C611    1.444   .     S
C602   O628    1.300   .     A
C602   O626    1.300   .     A
C603   O631    1.300   .     A
C603   O629    1.297   .     A
C603   C605    1.434   .     S
C604   O632    1.300   .     A
C604   C606    1.434   .     S
C604   O630    1.297   .     A
C605   C706    1.335   1_455 S
C605   H719    1.086   1_455 S
C606   C655    1.335   .     S
C606   H670    1.086   .     S
C607   C612    1.398   .     A
C607   H621    1.084   .     S
C608   H622    1.084   .     S
C608   C611    1.398   .     A
C608   C760    1.393   .     S
C609   C611    1.410   .     A
C609   C633    1.488   .     S
C609   C757    1.393   .     S
C610   C612    1.410   .     A
C610   C636    1.488   .     S
C613   C639    1.483   .     S
C613   N624    1.377   .     A
C614   N623    1.377   .     A
C614   C642    1.483   .     S
C614   C1066   1.433   .     S
C615   N623    1.379   .     A
C615   C645    1.486   .     S
C615   C1063   1.433   .     S
C616   C648    1.486   .     S
C616   N624    1.379   .     A
Cu617  O629    1.955   .     S
Cu617  O625    1.953   .     S
Cu617  N623    2.041   .     S
Cu617  Cu618   2.716   .     S
Cu617  O632    1.956   .     S
Cu617  O628    1.953   .     S
Cu618  O626    1.953   .     S
Cu618  N624    2.041   .     S
Cu618  O630    1.955   .     S
Cu618  O631    1.956   .     S
Cu618  O627    1.953   .     S
H619   C655    1.086   .     S
H620   C706    1.086   1_455 S
C633   H634    1.084   .     S
C633   O635    1.221   .     D
C636   O638    1.221   .     D
C636   H637    1.084   .     S
C639   O641    1.221   .     D
C639   H640    1.075   .     S
C642   O644    1.221   .     D
C642   H643    1.075   .     S
C645   H646    1.074   .     S
C645   O647    1.222   .     D
C648   O650    1.222   .     D
C648   H649    1.074   .     S
C651   O675    1.300   .     A
C651   O677    1.300   .     A
C651   C662    1.444   .     S
C652   C661    1.444   .     S
C652   O678    1.300   .     A
C652   O676    1.300   .     A
C653   O681    1.300   .     A
C653   O679    1.297   .     A
C653   C655    1.434   .     S
C654   O682    1.300   .     A
C654   C656    1.434   .     S
C654   O680    1.297   .     A
C656   C705    1.335   .     S
C656   H720    1.086   .     S
C657   C662    1.398   .     A
C657   H671    1.084   .     S
C658   H672    1.084   .     S
C658   C661    1.398   .     A
C658   C810    1.393   .     S
C659   C661    1.410   .     A
C659   C683    1.488   .     S
C659   C807    1.393   .     S
C660   C662    1.410   .     A
C660   C686    1.488   .     S
C663   C689    1.483   .     S
C663   N674    1.377   .     A
C664   N673    1.377   .     A
C664   C692    1.483   .     S
C664   C1116   1.433   .     S
C665   N673    1.379   .     A
C665   C695    1.486   .     S
C665   C1113   1.433   .     S
C666   C698    1.486   .     S
C666   N674    1.379   .     A
Cu667  O679    1.955   .     S
Cu667  O675    1.953   .     S
Cu667  N673    2.041   .     S
Cu667  Cu668   2.716   .     S
Cu667  O682    1.956   .     S
Cu667  O678    1.953   .     S
Cu668  O676    1.953   .     S
Cu668  N674    2.041   .     S
Cu668  O680    1.955   .     S
Cu668  O681    1.956   .     S
Cu668  O677    1.953   .     S
H669   C705    1.086   .     S
C683   H684    1.084   .     S
C683   O685    1.221   .     D
C686   O688    1.221   .     D
C686   H687    1.084   .     S
C689   O691    1.221   .     D
C689   H690    1.075   .     S
C692   O694    1.221   .     D
C692   H693    1.075   .     S
C695   H696    1.074   .     S
C695   O697    1.222   .     D
C698   O700    1.222   .     D
C698   H699    1.074   .     S
C701   O725    1.300   .     A
C701   O727    1.300   .     A
C701   C712    1.444   .     S
C702   C711    1.444   .     S
C702   O728    1.300   .     A
C702   O726    1.300   .     A
C703   O731    1.300   .     A
C703   O729    1.297   .     A
C703   C705    1.434   .     S
C704   O732    1.300   .     A
C704   C706    1.434   .     S
C704   O730    1.297   .     A
C706   C605    1.335   1_655 S
C706   H620    1.086   1_655 S
C707   C712    1.398   .     A
C707   H721    1.084   .     S
C708   H722    1.084   .     S
C708   C711    1.398   .     A
C708   C860    1.393   .     S
C709   C711    1.410   .     A
C709   C733    1.488   .     S
C709   C857    1.393   .     S
C710   C712    1.410   .     A
C710   C736    1.488   .     S
C713   C739    1.483   .     S
C713   N724    1.377   .     A
C714   N723    1.377   .     A
C714   C742    1.483   .     S
C714   C1166   1.433   .     S
C715   N723    1.379   .     A
C715   C745    1.486   .     S
C715   C1163   1.433   .     S
C716   C748    1.486   .     S
C716   N724    1.379   .     A
Cu717  O729    1.955   .     S
Cu717  O725    1.953   .     S
Cu717  N723    2.041   .     S
Cu717  Cu718   2.716   .     S
Cu717  O732    1.956   .     S
Cu717  O728    1.953   .     S
Cu718  O726    1.953   .     S
Cu718  N724    2.041   .     S
Cu718  O730    1.955   .     S
Cu718  O731    1.956   .     S
Cu718  O727    1.953   .     S
H719   C605    1.086   1_655 S
C733   H734    1.084   .     S
C733   O735    1.221   .     D
C736   O738    1.221   .     D
C736   H737    1.084   .     S
C739   O741    1.221   .     D
C739   H740    1.075   .     S
C742   O744    1.221   .     D
C742   H743    1.075   .     S
C745   H746    1.074   .     S
C745   O747    1.222   .     D
C748   O750    1.222   .     D
C748   H749    1.074   .     S
C751   O775    1.300   .     A
C751   O777    1.300   .     A
C751   C762    1.444   .     S
C752   C761    1.444   .     S
C752   O778    1.300   .     A
C752   O776    1.300   .     A
C753   O781    1.300   .     A
C753   O779    1.297   .     A
C753   C755    1.434   .     S
C754   O782    1.300   .     A
C754   C756    1.434   .     S
C754   O780    1.297   .     A
C755   C856    1.335   1_455 S
C755   H869    1.086   1_455 S
C756   C805    1.335   .     S
C756   H820    1.086   .     S
C757   C762    1.398   .     A
C757   H771    1.084   .     S
C758   H772    1.084   .     S
C758   C761    1.398   .     A
C758   C460    1.393   1_565 S
C759   C761    1.410   .     A
C759   C783    1.488   .     S
C759   C457    1.393   1_565 S
C760   C762    1.410   .     A
C760   C786    1.488   .     S
C763   C789    1.483   .     S
C763   N774    1.377   .     A
C764   N773    1.377   .     A
C764   C792    1.483   .     S
C764   C1216   1.433   .     S
C765   N773    1.379   .     A
C765   C795    1.486   .     S
C765   C1213   1.433   .     S
C766   C798    1.486   .     S
C766   N774    1.379   .     A
Cu767  O779    1.955   .     S
Cu767  O775    1.953   .     S
Cu767  N773    2.041   .     S
Cu767  Cu768   2.716   .     S
Cu767  O782    1.956   .     S
Cu767  O778    1.953   .     S
Cu768  O776    1.953   .     S
Cu768  N774    2.041   .     S
Cu768  O780    1.955   .     S
Cu768  O781    1.956   .     S
Cu768  O777    1.953   .     S
H769   C805    1.086   .     S
H770   C856    1.086   1_455 S
C783   H784    1.084   .     S
C783   O785    1.221   .     D
C786   O788    1.221   .     D
C786   H787    1.084   .     S
C789   O791    1.221   .     D
C789   H790    1.075   .     S
C792   O794    1.221   .     D
C792   H793    1.075   .     S
C795   H796    1.074   .     S
C795   O797    1.222   .     D
C798   O800    1.222   .     D
C798   H799    1.074   .     S
C801   O825    1.300   .     A
C801   O827    1.300   .     A
C801   C812    1.444   .     S
C802   C811    1.444   .     S
C802   O828    1.300   .     A
C802   O826    1.300   .     A
C803   O831    1.300   .     A
C803   O829    1.297   .     A
C803   C805    1.434   .     S
C804   O832    1.300   .     A
C804   C806    1.434   .     S
C804   O830    1.297   .     A
C806   C855    1.335   .     S
C806   H870    1.086   .     S
C807   C812    1.398   .     A
C807   H821    1.084   .     S
C808   H822    1.084   .     S
C808   C811    1.398   .     A
C808   C510    1.393   1_565 S
C809   C811    1.410   .     A
C809   C833    1.488   .     S
C809   C507    1.393   1_565 S
C810   C812    1.410   .     A
C810   C836    1.488   .     S
C813   C839    1.483   .     S
C813   N824    1.377   .     A
C814   N823    1.377   .     A
C814   C842    1.483   .     S
C814   C1266   1.433   .     S
C815   N823    1.379   .     A
C815   C845    1.486   .     S
C815   C1263   1.433   .     S
C816   C848    1.486   .     S
C816   N824    1.379   .     A
Cu817  O829    1.955   .     S
Cu817  O825    1.953   .     S
Cu817  N823    2.041   .     S
Cu817  Cu818   2.716   .     S
Cu817  O832    1.956   .     S
Cu817  O828    1.953   .     S
Cu818  O826    1.953   .     S
Cu818  N824    2.041   .     S
Cu818  O830    1.955   .     S
Cu818  O831    1.956   .     S
Cu818  O827    1.953   .     S
H819   C855    1.086   .     S
C833   H834    1.084   .     S
C833   O835    1.221   .     D
C836   O838    1.221   .     D
C836   H837    1.084   .     S
C839   O841    1.221   .     D
C839   H840    1.075   .     S
C842   O844    1.221   .     D
C842   H843    1.075   .     S
C845   H846    1.074   .     S
C845   O847    1.222   .     D
C848   O850    1.222   .     D
C848   H849    1.074   .     S
C851   O875    1.300   .     A
C851   O877    1.300   .     A
C851   C862    1.444   .     S
C852   C861    1.444   .     S
C852   O878    1.300   .     A
C852   O876    1.300   .     A
C853   O881    1.300   .     A
C853   O879    1.297   .     A
C853   C855    1.434   .     S
C854   O882    1.300   .     A
C854   C856    1.434   .     S
C854   O880    1.297   .     A
C856   C755    1.335   1_655 S
C856   H770    1.086   1_655 S
C857   C862    1.398   .     A
C857   H871    1.084   .     S
C858   H872    1.084   .     S
C858   C861    1.398   .     A
C858   C560    1.393   1_565 S
C859   C861    1.410   .     A
C859   C883    1.488   .     S
C859   C557    1.393   1_565 S
C860   C862    1.410   .     A
C860   C886    1.488   .     S
C863   C889    1.483   .     S
C863   N874    1.377   .     A
C864   N873    1.377   .     A
C864   C892    1.483   .     S
C864   C1316   1.433   .     S
C865   N873    1.379   .     A
C865   C895    1.486   .     S
C865   C1313   1.433   .     S
C866   C898    1.486   .     S
C866   N874    1.379   .     A
Cu867  O879    1.955   .     S
Cu867  O875    1.953   .     S
Cu867  N873    2.041   .     S
Cu867  Cu868   2.716   .     S
Cu867  O882    1.956   .     S
Cu867  O878    1.953   .     S
Cu868  O876    1.953   .     S
Cu868  N874    2.041   .     S
Cu868  O880    1.955   .     S
Cu868  O881    1.956   .     S
Cu868  O877    1.953   .     S
H869   C755    1.086   1_655 S
C883   H884    1.084   .     S
C883   O885    1.221   .     D
C886   O888    1.221   .     D
C886   H887    1.084   .     S
C889   O891    1.221   .     D
C889   H890    1.075   .     S
C892   O894    1.221   .     D
C892   H893    1.075   .     S
C895   H896    1.074   .     S
C895   O897    1.222   .     D
C898   O900    1.222   .     D
C898   H899    1.074   .     S
C901   O925    1.300   .     A
C901   O927    1.300   .     A
C901   C912    1.444   .     S
C902   C911    1.444   .     S
C902   O928    1.300   .     A
C902   O926    1.300   .     A
C903   O931    1.300   .     A
C903   O929    1.297   .     A
C903   C905    1.434   .     S
C904   O932    1.300   .     A
C904   C906    1.434   .     S
C904   O930    1.297   .     A
C905   C1006   1.335   1_455 S
C905   H1019   1.086   1_455 S
C906   C955    1.335   .     S
C906   H970    1.086   .     S
C907   C912    1.398   .     A
C907   H921    1.084   .     S
C907   C1209   1.393   1_545 S
C908   H922    1.084   .     S
C908   C911    1.398   .     A
C908   C1060   1.393   .     S
C909   C911    1.410   .     A
C909   C933    1.488   .     S
C909   C1057   1.393   .     S
C910   C912    1.410   .     A
C910   C936    1.488   .     S
C910   C1208   1.393   1_545 S
C913   C939    1.483   .     S
C913   N924    1.377   .     A
C914   N923    1.377   .     A
C914   C942    1.483   .     S
C914   C16     1.433   1_556 S
C915   N923    1.379   .     A
C915   C945    1.486   .     S
C915   C13     1.433   1_556 S
C916   C948    1.486   .     S
C916   N924    1.379   .     A
Cu917  O929    1.955   .     S
Cu917  O925    1.953   .     S
Cu917  N923    2.041   .     S
Cu917  Cu918   2.716   .     S
Cu917  O932    1.956   .     S
Cu917  O928    1.953   .     S
Cu918  O926    1.953   .     S
Cu918  N924    2.041   .     S
Cu918  O930    1.955   .     S
Cu918  O931    1.956   .     S
Cu918  O927    1.953   .     S
H919   C955    1.086   .     S
H920   C1006   1.086   1_455 S
C933   H934    1.084   .     S
C933   O935    1.221   .     D
C936   O938    1.221   .     D
C936   H937    1.084   .     S
C939   O941    1.221   .     D
C939   H940    1.075   .     S
C942   O944    1.221   .     D
C942   H943    1.075   .     S
C945   H946    1.074   .     S
C945   O947    1.222   .     D
C948   O950    1.222   .     D
C948   H949    1.074   .     S
C951   O975    1.300   .     A
C951   O977    1.300   .     A
C951   C962    1.444   .     S
C952   C961    1.444   .     S
C952   O978    1.300   .     A
C952   O976    1.300   .     A
C953   O981    1.300   .     A
C953   O979    1.297   .     A
C953   C955    1.434   .     S
C954   O982    1.300   .     A
C954   C956    1.434   .     S
C954   O980    1.297   .     A
C956   C1005   1.335   .     S
C956   H1020   1.086   .     S
C957   C962    1.398   .     A
C957   H971    1.084   .     S
C957   C1259   1.393   1_545 S
C958   H972    1.084   .     S
C958   C961    1.398   .     A
C958   C1110   1.393   .     S
C959   C961    1.410   .     A
C959   C983    1.488   .     S
C959   C1107   1.393   .     S
C960   C962    1.410   .     A
C960   C986    1.488   .     S
C960   C1258   1.393   1_545 S
C963   C989    1.483   .     S
C963   N974    1.377   .     A
C964   N973    1.377   .     A
C964   C992    1.483   .     S
C964   C66     1.433   1_556 S
C965   N973    1.379   .     A
C965   C995    1.486   .     S
C965   C63     1.433   1_556 S
C966   C998    1.486   .     S
C966   N974    1.379   .     A
Cu967  O979    1.955   .     S
Cu967  O975    1.953   .     S
Cu967  N973    2.041   .     S
Cu967  Cu968   2.716   .     S
Cu967  O982    1.956   .     S
Cu967  O978    1.953   .     S
Cu968  O976    1.953   .     S
Cu968  N974    2.041   .     S
Cu968  O980    1.955   .     S
Cu968  O981    1.956   .     S
Cu968  O977    1.953   .     S
H969   C1005   1.086   .     S
C983   H984    1.084   .     S
C983   O985    1.221   .     D
C986   O988    1.221   .     D
C986   H987    1.084   .     S
C989   O991    1.221   .     D
C989   H990    1.075   .     S
C992   O994    1.221   .     D
C992   H993    1.075   .     S
C995   H996    1.074   .     S
C995   O997    1.222   .     D
C998   O1000   1.222   .     D
C998   H999    1.074   .     S
C1001  O1025   1.300   .     A
C1001  O1027   1.300   .     A
C1001  C1012   1.444   .     S
C1002  C1011   1.444   .     S
C1002  O1028   1.300   .     A
C1002  O1026   1.300   .     A
C1003  O1031   1.300   .     A
C1003  O1029   1.297   .     A
C1003  C1005   1.434   .     S
C1004  O1032   1.300   .     A
C1004  C1006   1.434   .     S
C1004  O1030   1.297   .     A
C1006  C905    1.335   1_655 S
C1006  H920    1.086   1_655 S
C1007  C1012   1.398   .     A
C1007  H1021   1.084   .     S
C1007  C1309   1.393   1_545 S
C1008  H1022   1.084   .     S
C1008  C1011   1.398   .     A
C1008  C1160   1.393   .     S
C1009  C1011   1.410   .     A
C1009  C1033   1.488   .     S
C1009  C1157   1.393   .     S
C1010  C1012   1.410   .     A
C1010  C1036   1.488   .     S
C1010  C1308   1.393   1_545 S
C1013  C1039   1.483   .     S
C1013  N1024   1.377   .     A
C1014  N1023   1.377   .     A
C1014  C1042   1.483   .     S
C1014  C116    1.433   1_556 S
C1015  N1023   1.379   .     A
C1015  C1045   1.486   .     S
C1015  C113    1.433   1_556 S
C1016  C1048   1.486   .     S
C1016  N1024   1.379   .     A
Cu1017 O1029   1.955   .     S
Cu1017 O1025   1.953   .     S
Cu1017 N1023   2.041   .     S
Cu1017 Cu1018  2.716   .     S
Cu1017 O1032   1.956   .     S
Cu1017 O1028   1.953   .     S
Cu1018 O1026   1.953   .     S
Cu1018 N1024   2.041   .     S
Cu1018 O1030   1.955   .     S
Cu1018 O1031   1.956   .     S
Cu1018 O1027   1.953   .     S
H1019  C905    1.086   1_655 S
C1033  H1034   1.084   .     S
C1033  O1035   1.221   .     D
C1036  O1038   1.221   .     D
C1036  H1037   1.084   .     S
C1039  O1041   1.221   .     D
C1039  H1040   1.075   .     S
C1042  O1044   1.221   .     D
C1042  H1043   1.075   .     S
C1045  H1046   1.074   .     S
C1045  O1047   1.222   .     D
C1048  O1050   1.222   .     D
C1048  H1049   1.074   .     S
C1051  O1075   1.300   .     A
C1051  O1077   1.300   .     A
C1051  C1062   1.444   .     S
C1052  C1061   1.444   .     S
C1052  O1078   1.300   .     A
C1052  O1076   1.300   .     A
C1053  O1081   1.300   .     A
C1053  O1079   1.297   .     A
C1053  C1055   1.434   .     S
C1054  O1082   1.300   .     A
C1054  C1056   1.434   .     S
C1054  O1080   1.297   .     A
C1055  C1156   1.335   1_455 S
C1055  H1169   1.086   1_455 S
C1056  C1105   1.335   .     S
C1056  H1120   1.086   .     S
C1057  C1062   1.398   .     A
C1057  H1071   1.084   .     S
C1058  H1072   1.084   .     S
C1058  C1061   1.398   .     A
C1058  C1210   1.393   .     S
C1059  C1061   1.410   .     A
C1059  C1083   1.488   .     S
C1059  C1207   1.393   .     S
C1060  C1062   1.410   .     A
C1060  C1086   1.488   .     S
C1063  C1089   1.483   .     S
C1063  N1074   1.377   .     A
C1064  N1073   1.377   .     A
C1064  C1092   1.483   .     S
C1064  C166    1.433   1_556 S
C1065  N1073   1.379   .     A
C1065  C1095   1.486   .     S
C1065  C163    1.433   1_556 S
C1066  C1098   1.486   .     S
C1066  N1074   1.379   .     A
Cu1067 O1079   1.955   .     S
Cu1067 O1075   1.953   .     S
Cu1067 N1073   2.041   .     S
Cu1067 Cu1068  2.716   .     S
Cu1067 O1082   1.956   .     S
Cu1067 O1078   1.953   .     S
Cu1068 O1076   1.953   .     S
Cu1068 N1074   2.041   .     S
Cu1068 O1080   1.955   .     S
Cu1068 O1081   1.956   .     S
Cu1068 O1077   1.953   .     S
H1069  C1105   1.086   .     S
H1070  C1156   1.086   1_455 S
C1083  H1084   1.084   .     S
C1083  O1085   1.221   .     D
C1086  O1088   1.221   .     D
C1086  H1087   1.084   .     S
C1089  O1091   1.221   .     D
C1089  H1090   1.075   .     S
C1092  O1094   1.221   .     D
C1092  H1093   1.075   .     S
C1095  H1096   1.074   .     S
C1095  O1097   1.222   .     D
C1098  O1100   1.222   .     D
C1098  H1099   1.074   .     S
C1101  O1125   1.300   .     A
C1101  O1127   1.300   .     A
C1101  C1112   1.444   .     S
C1102  C1111   1.444   .     S
C1102  O1128   1.300   .     A
C1102  O1126   1.300   .     A
C1103  O1131   1.300   .     A
C1103  O1129   1.297   .     A
C1103  C1105   1.434   .     S
C1104  O1132   1.300   .     A
C1104  C1106   1.434   .     S
C1104  O1130   1.297   .     A
C1106  C1155   1.335   .     S
C1106  H1170   1.086   .     S
C1107  C1112   1.398   .     A
C1107  H1121   1.084   .     S
C1108  H1122   1.084   .     S
C1108  C1111   1.398   .     A
C1108  C1260   1.393   .     S
C1109  C1111   1.410   .     A
C1109  C1133   1.488   .     S
C1109  C1257   1.393   .     S
C1110  C1112   1.410   .     A
C1110  C1136   1.488   .     S
C1113  C1139   1.483   .     S
C1113  N1124   1.377   .     A
C1114  N1123   1.377   .     A
C1114  C1142   1.483   .     S
C1114  C216    1.433   1_556 S
C1115  N1123   1.379   .     A
C1115  C1145   1.486   .     S
C1115  C213    1.433   1_556 S
C1116  C1148   1.486   .     S
C1116  N1124   1.379   .     A
Cu1117 O1129   1.955   .     S
Cu1117 O1125   1.953   .     S
Cu1117 N1123   2.041   .     S
Cu1117 Cu1118  2.716   .     S
Cu1117 O1132   1.956   .     S
Cu1117 O1128   1.953   .     S
Cu1118 O1126   1.953   .     S
Cu1118 N1124   2.041   .     S
Cu1118 O1130   1.955   .     S
Cu1118 O1131   1.956   .     S
Cu1118 O1127   1.953   .     S
H1119  C1155   1.086   .     S
C1133  H1134   1.084   .     S
C1133  O1135   1.221   .     D
C1136  O1138   1.221   .     D
C1136  H1137   1.084   .     S
C1139  O1141   1.221   .     D
C1139  H1140   1.075   .     S
C1142  O1144   1.221   .     D
C1142  H1143   1.075   .     S
C1145  H1146   1.074   .     S
C1145  O1147   1.222   .     D
C1148  O1150   1.222   .     D
C1148  H1149   1.074   .     S
C1151  O1175   1.300   .     A
C1151  O1177   1.300   .     A
C1151  C1162   1.444   .     S
C1152  C1161   1.444   .     S
C1152  O1178   1.300   .     A
C1152  O1176   1.300   .     A
C1153  O1181   1.300   .     A
C1153  O1179   1.297   .     A
C1153  C1155   1.434   .     S
C1154  O1182   1.300   .     A
C1154  C1156   1.434   .     S
C1154  O1180   1.297   .     A
C1156  C1055   1.335   1_655 S
C1156  H1070   1.086   1_655 S
C1157  C1162   1.398   .     A
C1157  H1171   1.084   .     S
C1158  H1172   1.084   .     S
C1158  C1161   1.398   .     A
C1158  C1310   1.393   .     S
C1159  C1161   1.410   .     A
C1159  C1183   1.488   .     S
C1159  C1307   1.393   .     S
C1160  C1162   1.410   .     A
C1160  C1186   1.488   .     S
C1163  C1189   1.483   .     S
C1163  N1174   1.377   .     A
C1164  N1173   1.377   .     A
C1164  C1192   1.483   .     S
C1164  C266    1.433   1_556 S
C1165  N1173   1.379   .     A
C1165  C1195   1.486   .     S
C1165  C263    1.433   1_556 S
C1166  C1198   1.486   .     S
C1166  N1174   1.379   .     A
Cu1167 O1179   1.955   .     S
Cu1167 O1175   1.953   .     S
Cu1167 N1173   2.041   .     S
Cu1167 Cu1168  2.716   .     S
Cu1167 O1182   1.956   .     S
Cu1167 O1178   1.953   .     S
Cu1168 O1176   1.953   .     S
Cu1168 N1174   2.041   .     S
Cu1168 O1180   1.955   .     S
Cu1168 O1181   1.956   .     S
Cu1168 O1177   1.953   .     S
H1169  C1055   1.086   1_655 S
C1183  H1184   1.084   .     S
C1183  O1185   1.221   .     D
C1186  O1188   1.221   .     D
C1186  H1187   1.084   .     S
C1189  O1191   1.221   .     D
C1189  H1190   1.075   .     S
C1192  O1194   1.221   .     D
C1192  H1193   1.075   .     S
C1195  H1196   1.074   .     S
C1195  O1197   1.222   .     D
C1198  O1200   1.222   .     D
C1198  H1199   1.074   .     S
C1201  O1225   1.300   .     A
C1201  O1227   1.300   .     A
C1201  C1212   1.444   .     S
C1202  C1211   1.444   .     S
C1202  O1228   1.300   .     A
C1202  O1226   1.300   .     A
C1203  O1231   1.300   .     A
C1203  O1229   1.297   .     A
C1203  C1205   1.434   .     S
C1204  O1232   1.300   .     A
C1204  C1206   1.434   .     S
C1204  O1230   1.297   .     A
C1205  C1306   1.335   1_455 S
C1205  H1319   1.086   1_455 S
C1206  C1255   1.335   .     S
C1206  H1270   1.086   .     S
C1207  C1212   1.398   .     A
C1207  H1221   1.084   .     S
C1208  H1222   1.084   .     S
C1208  C1211   1.398   .     A
C1208  C910    1.393   1_565 S
C1209  C1211   1.410   .     A
C1209  C1233   1.488   .     S
C1209  C907    1.393   1_565 S
C1210  C1212   1.410   .     A
C1210  C1236   1.488   .     S
C1213  C1239   1.483   .     S
C1213  N1224   1.377   .     A
C1214  N1223   1.377   .     A
C1214  C1242   1.483   .     S
C1214  C316    1.433   1_556 S
C1215  N1223   1.379   .     A
C1215  C1245   1.486   .     S
C1215  C313    1.433   1_556 S
C1216  C1248   1.486   .     S
C1216  N1224   1.379   .     A
Cu1217 O1229   1.955   .     S
Cu1217 O1225   1.953   .     S
Cu1217 N1223   2.041   .     S
Cu1217 Cu1218  2.716   .     S
Cu1217 O1232   1.956   .     S
Cu1217 O1228   1.953   .     S
Cu1218 O1226   1.953   .     S
Cu1218 N1224   2.041   .     S
Cu1218 O1230   1.955   .     S
Cu1218 O1231   1.956   .     S
Cu1218 O1227   1.953   .     S
H1219  C1255   1.086   .     S
H1220  C1306   1.086   1_455 S
C1233  H1234   1.084   .     S
C1233  O1235   1.221   .     D
C1236  O1238   1.221   .     D
C1236  H1237   1.084   .     S
C1239  O1241   1.221   .     D
C1239  H1240   1.075   .     S
C1242  O1244   1.221   .     D
C1242  H1243   1.075   .     S
C1245  H1246   1.074   .     S
C1245  O1247   1.222   .     D
C1248  O1250   1.222   .     D
C1248  H1249   1.074   .     S
C1251  O1275   1.300   .     A
C1251  O1277   1.300   .     A
C1251  C1262   1.444   .     S
C1252  C1261   1.444   .     S
C1252  O1278   1.300   .     A
C1252  O1276   1.300   .     A
C1253  O1281   1.300   .     A
C1253  O1279   1.297   .     A
C1253  C1255   1.434   .     S
C1254  O1282   1.300   .     A
C1254  C1256   1.434   .     S
C1254  O1280   1.297   .     A
C1256  C1305   1.335   .     S
C1256  H1320   1.086   .     S
C1257  C1262   1.398   .     A
C1257  H1271   1.084   .     S
C1258  H1272   1.084   .     S
C1258  C1261   1.398   .     A
C1258  C960    1.393   1_565 S
C1259  C1261   1.410   .     A
C1259  C1283   1.488   .     S
C1259  C957    1.393   1_565 S
C1260  C1262   1.410   .     A
C1260  C1286   1.488   .     S
C1263  C1289   1.483   .     S
C1263  N1274   1.377   .     A
C1264  N1273   1.377   .     A
C1264  C1292   1.483   .     S
C1264  C366    1.433   1_556 S
C1265  N1273   1.379   .     A
C1265  C1295   1.486   .     S
C1265  C363    1.433   1_556 S
C1266  C1298   1.486   .     S
C1266  N1274   1.379   .     A
Cu1267 O1279   1.955   .     S
Cu1267 O1275   1.953   .     S
Cu1267 N1273   2.041   .     S
Cu1267 Cu1268  2.716   .     S
Cu1267 O1282   1.956   .     S
Cu1267 O1278   1.953   .     S
Cu1268 O1276   1.953   .     S
Cu1268 N1274   2.041   .     S
Cu1268 O1280   1.955   .     S
Cu1268 O1281   1.956   .     S
Cu1268 O1277   1.953   .     S
H1269  C1305   1.086   .     S
C1283  H1284   1.084   .     S
C1283  O1285   1.221   .     D
C1286  O1288   1.221   .     D
C1286  H1287   1.084   .     S
C1289  O1291   1.221   .     D
C1289  H1290   1.075   .     S
C1292  O1294   1.221   .     D
C1292  H1293   1.075   .     S
C1295  H1296   1.074   .     S
C1295  O1297   1.222   .     D
C1298  O1300   1.222   .     D
C1298  H1299   1.074   .     S
C1301  O1325   1.300   .     A
C1301  O1327   1.300   .     A
C1301  C1312   1.444   .     S
C1302  C1311   1.444   .     S
C1302  O1328   1.300   .     A
C1302  O1326   1.300   .     A
C1303  O1331   1.300   .     A
C1303  O1329   1.297   .     A
C1303  C1305   1.434   .     S
C1304  O1332   1.300   .     A
C1304  C1306   1.434   .     S
C1304  O1330   1.297   .     A
C1306  C1205   1.335   1_655 S
C1306  H1220   1.086   1_655 S
C1307  C1312   1.398   .     A
C1307  H1321   1.084   .     S
C1308  H1322   1.084   .     S
C1308  C1311   1.398   .     A
C1308  C1010   1.393   1_565 S
C1309  C1311   1.410   .     A
C1309  C1333   1.488   .     S
C1309  C1007   1.393   1_565 S
C1310  C1312   1.410   .     A
C1310  C1336   1.488   .     S
C1313  C1339   1.483   .     S
C1313  N1324   1.377   .     A
C1314  N1323   1.377   .     A
C1314  C1342   1.483   .     S
C1314  C416    1.433   1_556 S
C1315  N1323   1.379   .     A
C1315  C1345   1.486   .     S
C1315  C413    1.433   1_556 S
C1316  C1348   1.486   .     S
C1316  N1324   1.379   .     A
Cu1317 O1329   1.955   .     S
Cu1317 O1325   1.953   .     S
Cu1317 N1323   2.041   .     S
Cu1317 Cu1318  2.716   .     S
Cu1317 O1332   1.956   .     S
Cu1317 O1328   1.953   .     S
Cu1318 O1326   1.953   .     S
Cu1318 N1324   2.041   .     S
Cu1318 O1330   1.955   .     S
Cu1318 O1331   1.956   .     S
Cu1318 O1327   1.953   .     S
H1319  C1205   1.086   1_655 S
C1333  H1334   1.084   .     S
C1333  O1335   1.221   .     D
C1336  O1338   1.221   .     D
C1336  H1337   1.084   .     S
C1339  O1341   1.221   .     D
C1339  H1340   1.075   .     S
C1342  O1344   1.221   .     D
C1342  H1343   1.075   .     S
C1345  H1346   1.074   .     S
C1345  O1347   1.222   .     D
C1348  O1350   1.222   .     D
C1348  H1349   1.074   .     S
