data_str_m2_o1_o10_pcu_sym.213
_audit_creation_date              2020-01-03
_audit_creation_method            'Materials Studio'
_symmetry_space_group_name_H-M    'P1'
_symmetry_Int_Tables_number       1
_symmetry_cell_setting            triclinic
loop_
_symmetry_equiv_pos_as_xyz
  x,y,z
_cell_length_a                    26.1334
_cell_length_b                    32.3481
_cell_length_c                    28.7344
_cell_angle_alpha                 90.6711
_cell_angle_beta                  98.5460
_cell_angle_gamma                 90.9445
loop_
_atom_site_label
_atom_site_type_symbol
_atom_site_fract_x
_atom_site_fract_y
_atom_site_fract_z
_atom_site_U_iso_or_equiv
_atom_site_adp_type
_atom_site_occupancy
C1     C     0.16661   0.08744   0.16648   0.00000  Uiso   1.00
C2     C     0.16672   0.24589   0.16685   0.00000  Uiso   1.00
C3     C     0.06791   0.16674   0.15448   0.00000  Uiso   1.00
C4     C     0.26542   0.16660   0.17885   0.00000  Uiso   1.00
C5     C     0.01245   0.16726   0.14794   0.00000  Uiso   1.00
C6     C     0.32089   0.16607   0.18540   0.00000  Uiso   1.00
C7     C     0.18874   0.02126   0.13220   0.00000  Uiso   1.00
C8     C     0.14459   0.31207   0.20114   0.00000  Uiso   1.00
C9     C     0.18865   0.31181   0.13231   0.00000  Uiso   1.00
C10    C     0.14468   0.02152   0.20102   0.00000  Uiso   1.00
C11    C     0.16678   0.29053   0.16692   0.00000  Uiso   1.00
C12    C     0.16655   0.04281   0.16641   0.00000  Uiso   1.00
C13    C     0.13321   0.14133   0.01909   0.00000  Uiso   1.00
C14    C     0.20012   0.19201   0.31425   0.00000  Uiso   1.00
C15    C     0.13354   0.14161   0.30315   0.00000  Uiso   1.00
C16    C     0.19980   0.19172   0.03018   0.00000  Uiso   1.00
Cu17   Cu    0.16667   0.16667   0.21355   0.00000  Uiso   1.00
Cu18   Cu    0.16667   0.16666   0.11978   0.00000  Uiso   1.00
H19    H     0.32537   0.16888   0.11220   0.00000  Uiso   1.00
H20    H     0.00796   0.16445   0.22113   0.00000  Uiso   1.00
H21    H     0.20674   0.03746   0.10592   0.00000  Uiso   1.00
H22    H     0.12660   0.29587   0.22742   0.00000  Uiso   1.00
H23    H     0.20622   0.29541   0.10582   0.00000  Uiso   1.00
H24    H     0.12711   0.03792   0.22751   0.00000  Uiso   1.00
H25    H     0.10714   0.12158   0.28012   0.00000  Uiso   1.00
H26    H     0.22620   0.21176   0.05321   0.00000  Uiso   1.00
N27    N     0.16668   0.16668   0.28403   0.00000  Uiso   1.00
N28    N     0.16665   0.16666   0.04931   0.00000  Uiso   1.00
O29    O     0.16666   0.10655   0.20625   0.00000  Uiso   1.00
O30    O     0.16667   0.22678   0.12709   0.00000  Uiso   1.00
O31    O     0.16666   0.10654   0.12706   0.00000  Uiso   1.00
O32    O     0.16667   0.22679   0.20628   0.00000  Uiso   1.00
O33    O     0.09161   0.16667   0.19712   0.00000  Uiso   1.00
O34    O     0.24172   0.16666   0.13621   0.00000  Uiso   1.00
O35    O     0.09161   0.16666   0.11793   0.00000  Uiso   1.00
O36    O     0.24172   0.16667   0.21540   0.00000  Uiso   1.00
C37    C     0.09581   0.11258   0.03574   0.00000  Uiso   1.00
C38    C     0.04473   0.12490   0.03677   0.00000  Uiso   1.00
C39    C     0.00764   0.09653   0.04800   0.00000  Uiso   1.00
C40    C     0.02097   0.05541   0.05695   0.00000  Uiso   1.00
C41    C     0.07117   0.04250   0.05390   0.00000  Uiso   1.00
C42    C     0.10822   0.07082   0.04250   0.00000  Uiso   1.00
H43    H     0.03398   0.15659   0.02946   0.00000  Uiso   1.00
H44    H     0.30186   0.10639   0.04954   0.00000  Uiso   1.00
H45    H     0.32558   0.03345   0.06559   0.00000  Uiso   1.00
H46    H     0.08122   0.01046   0.05987   0.00000  Uiso   1.00
H47    H     0.14650   0.06027   0.03870   0.00000  Uiso   1.00
C48    C     0.23753   0.22075   0.29760   0.00000  Uiso   1.00
C49    C     0.28860   0.20844   0.29657   0.00000  Uiso   1.00
C50    C     0.32570   0.23680   0.28533   0.00000  Uiso   1.00
C51    C     0.31236   0.27792   0.27639   0.00000  Uiso   1.00
C52    C     0.26217   0.29084   0.27943   0.00000  Uiso   1.00
C53    C     0.22511   0.26251   0.29083   0.00000  Uiso   1.00
H54    H     0.29935   0.17675   0.30388   0.00000  Uiso   1.00
H55    H     0.03147   0.22694   0.28379   0.00000  Uiso   1.00
H56    H     0.00775   0.29988   0.26774   0.00000  Uiso   1.00
H57    H     0.25212   0.32287   0.27346   0.00000  Uiso   1.00
H58    H     0.18684   0.27306   0.29463   0.00000  Uiso   1.00
C59    C     0.49994   0.08744   0.16648   0.00000  Uiso   1.00
C60    C     0.50006   0.24589   0.16685   0.00000  Uiso   1.00
C61    C     0.40125   0.16674   0.15448   0.00000  Uiso   1.00
C62    C     0.59875   0.16660   0.17885   0.00000  Uiso   1.00
C63    C     0.34578   0.16726   0.14794   0.00000  Uiso   1.00
C64    C     0.65422   0.16607   0.18540   0.00000  Uiso   1.00
C65    C     0.52207   0.02126   0.13220   0.00000  Uiso   1.00
C66    C     0.47793   0.31207   0.20114   0.00000  Uiso   1.00
C67    C     0.52199   0.31181   0.13231   0.00000  Uiso   1.00
C68    C     0.47802   0.02152   0.20102   0.00000  Uiso   1.00
C69    C     0.50011   0.29053   0.16692   0.00000  Uiso   1.00
C70    C     0.49989   0.04281   0.16641   0.00000  Uiso   1.00
C71    C     0.46655   0.14133   0.01909   0.00000  Uiso   1.00
C72    C     0.53345   0.19201   0.31425   0.00000  Uiso   1.00
C73    C     0.46687   0.14161   0.30315   0.00000  Uiso   1.00
C74    C     0.53313   0.19172   0.03018   0.00000  Uiso   1.00
Cu75   Cu    0.50000   0.16667   0.21355   0.00000  Uiso   1.00
Cu76   Cu    0.50000   0.16666   0.11978   0.00000  Uiso   1.00
H77    H     0.65870   0.16888   0.11220   0.00000  Uiso   1.00
H78    H     0.34130   0.16445   0.22113   0.00000  Uiso   1.00
H79    H     0.54007   0.03746   0.10592   0.00000  Uiso   1.00
H80    H     0.45993   0.29587   0.22742   0.00000  Uiso   1.00
H81    H     0.53955   0.29541   0.10582   0.00000  Uiso   1.00
H82    H     0.46045   0.03792   0.22751   0.00000  Uiso   1.00
H83    H     0.44047   0.12158   0.28012   0.00000  Uiso   1.00
H84    H     0.55953   0.21176   0.05321   0.00000  Uiso   1.00
N85    N     0.50001   0.16668   0.28403   0.00000  Uiso   1.00
N86    N     0.49999   0.16666   0.04931   0.00000  Uiso   1.00
O87    O     0.50000   0.10655   0.20625   0.00000  Uiso   1.00
O88    O     0.50000   0.22678   0.12709   0.00000  Uiso   1.00
O89    O     0.50000   0.10654   0.12706   0.00000  Uiso   1.00
O90    O     0.50000   0.22679   0.20628   0.00000  Uiso   1.00
O91    O     0.42495   0.16667   0.19712   0.00000  Uiso   1.00
O92    O     0.57505   0.16666   0.13621   0.00000  Uiso   1.00
O93    O     0.42494   0.16666   0.11793   0.00000  Uiso   1.00
O94    O     0.57506   0.16667   0.21540   0.00000  Uiso   1.00
C95    C     0.42914   0.11258   0.03574   0.00000  Uiso   1.00
C96    C     0.37806   0.12490   0.03677   0.00000  Uiso   1.00
C97    C     0.34097   0.09653   0.04800   0.00000  Uiso   1.00
C98    C     0.35431   0.05541   0.05695   0.00000  Uiso   1.00
C99    C     0.40450   0.04250   0.05390   0.00000  Uiso   1.00
C100   C     0.44156   0.07082   0.04250   0.00000  Uiso   1.00
H101   H     0.36732   0.15659   0.02946   0.00000  Uiso   1.00
H102   H     0.63519   0.10639   0.04954   0.00000  Uiso   1.00
H103   H     0.65892   0.03345   0.06559   0.00000  Uiso   1.00
H104   H     0.41455   0.01046   0.05987   0.00000  Uiso   1.00
H105   H     0.47983   0.06027   0.03870   0.00000  Uiso   1.00
C106   C     0.57086   0.22075   0.29760   0.00000  Uiso   1.00
C107   C     0.62194   0.20844   0.29657   0.00000  Uiso   1.00
C108   C     0.65903   0.23680   0.28533   0.00000  Uiso   1.00
C109   C     0.64569   0.27792   0.27639   0.00000  Uiso   1.00
C110   C     0.59550   0.29084   0.27943   0.00000  Uiso   1.00
C111   C     0.55844   0.26251   0.29083   0.00000  Uiso   1.00
H112   H     0.63268   0.17675   0.30388   0.00000  Uiso   1.00
H113   H     0.36481   0.22694   0.28379   0.00000  Uiso   1.00
H114   H     0.34109   0.29988   0.26774   0.00000  Uiso   1.00
H115   H     0.58545   0.32287   0.27346   0.00000  Uiso   1.00
H116   H     0.52017   0.27306   0.29463   0.00000  Uiso   1.00
C117   C     0.83328   0.08744   0.16648   0.00000  Uiso   1.00
C118   C     0.83339   0.24589   0.16685   0.00000  Uiso   1.00
C119   C     0.73458   0.16674   0.15448   0.00000  Uiso   1.00
C120   C     0.93209   0.16660   0.17885   0.00000  Uiso   1.00
C121   C     0.67911   0.16726   0.14794   0.00000  Uiso   1.00
C122   C     0.98756   0.16607   0.18540   0.00000  Uiso   1.00
C123   C     0.85541   0.02126   0.13220   0.00000  Uiso   1.00
C124   C     0.81126   0.31207   0.20114   0.00000  Uiso   1.00
C125   C     0.85532   0.31181   0.13231   0.00000  Uiso   1.00
C126   C     0.81135   0.02152   0.20102   0.00000  Uiso   1.00
C127   C     0.83345   0.29053   0.16692   0.00000  Uiso   1.00
C128   C     0.83322   0.04281   0.16641   0.00000  Uiso   1.00
C129   C     0.79988   0.14133   0.01909   0.00000  Uiso   1.00
C130   C     0.86679   0.19201   0.31425   0.00000  Uiso   1.00
C131   C     0.80020   0.14161   0.30315   0.00000  Uiso   1.00
C132   C     0.86646   0.19172   0.03018   0.00000  Uiso   1.00
Cu133  Cu    0.83333   0.16667   0.21355   0.00000  Uiso   1.00
Cu134  Cu    0.83333   0.16666   0.11978   0.00000  Uiso   1.00
H135   H     0.99204   0.16888   0.11220   0.00000  Uiso   1.00
H136   H     0.67463   0.16445   0.22113   0.00000  Uiso   1.00
H137   H     0.87340   0.03746   0.10592   0.00000  Uiso   1.00
H138   H     0.79326   0.29587   0.22742   0.00000  Uiso   1.00
H139   H     0.87289   0.29541   0.10582   0.00000  Uiso   1.00
H140   H     0.79378   0.03792   0.22751   0.00000  Uiso   1.00
H141   H     0.77380   0.12158   0.28012   0.00000  Uiso   1.00
H142   H     0.89286   0.21176   0.05321   0.00000  Uiso   1.00
N143   N     0.83335   0.16668   0.28403   0.00000  Uiso   1.00
N144   N     0.83332   0.16666   0.04931   0.00000  Uiso   1.00
O145   O     0.83333   0.10655   0.20625   0.00000  Uiso   1.00
O146   O     0.83334   0.22678   0.12709   0.00000  Uiso   1.00
O147   O     0.83333   0.10654   0.12706   0.00000  Uiso   1.00
O148   O     0.83334   0.22679   0.20628   0.00000  Uiso   1.00
O149   O     0.75828   0.16667   0.19712   0.00000  Uiso   1.00
O150   O     0.90839   0.16666   0.13621   0.00000  Uiso   1.00
O151   O     0.75828   0.16666   0.11793   0.00000  Uiso   1.00
O152   O     0.90839   0.16667   0.21540   0.00000  Uiso   1.00
C153   C     0.76247   0.11258   0.03574   0.00000  Uiso   1.00
C154   C     0.71140   0.12490   0.03677   0.00000  Uiso   1.00
C155   C     0.67430   0.09653   0.04800   0.00000  Uiso   1.00
C156   C     0.68764   0.05541   0.05695   0.00000  Uiso   1.00
C157   C     0.73783   0.04250   0.05390   0.00000  Uiso   1.00
C158   C     0.77489   0.07082   0.04250   0.00000  Uiso   1.00
H159   H     0.70065   0.15659   0.02946   0.00000  Uiso   1.00
H160   H     0.96853   0.10639   0.04954   0.00000  Uiso   1.00
H161   H     0.99225   0.03345   0.06559   0.00000  Uiso   1.00
H162   H     0.74788   0.01046   0.05987   0.00000  Uiso   1.00
H163   H     0.81317   0.06027   0.03870   0.00000  Uiso   1.00
C164   C     0.90419   0.22075   0.29760   0.00000  Uiso   1.00
C165   C     0.95527   0.20844   0.29657   0.00000  Uiso   1.00
C166   C     0.99236   0.23680   0.28533   0.00000  Uiso   1.00
C167   C     0.97903   0.27792   0.27639   0.00000  Uiso   1.00
C168   C     0.92883   0.29084   0.27943   0.00000  Uiso   1.00
C169   C     0.89178   0.26251   0.29083   0.00000  Uiso   1.00
H170   H     0.96602   0.17675   0.30388   0.00000  Uiso   1.00
H171   H     0.69814   0.22694   0.28379   0.00000  Uiso   1.00
H172   H     0.67442   0.29988   0.26774   0.00000  Uiso   1.00
H173   H     0.91878   0.32287   0.27346   0.00000  Uiso   1.00
H174   H     0.85350   0.27306   0.29463   0.00000  Uiso   1.00
C175   C     0.16661   0.42077   0.16648   0.00000  Uiso   1.00
C176   C     0.16672   0.57923   0.16685   0.00000  Uiso   1.00
C177   C     0.06791   0.50007   0.15448   0.00000  Uiso   1.00
C178   C     0.26542   0.49993   0.17885   0.00000  Uiso   1.00
C179   C     0.01245   0.50060   0.14794   0.00000  Uiso   1.00
C180   C     0.32089   0.49940   0.18540   0.00000  Uiso   1.00
C181   C     0.18874   0.35459   0.13220   0.00000  Uiso   1.00
C182   C     0.14459   0.64541   0.20114   0.00000  Uiso   1.00
C183   C     0.18865   0.64515   0.13231   0.00000  Uiso   1.00
C184   C     0.14468   0.35485   0.20102   0.00000  Uiso   1.00
C185   C     0.16678   0.62386   0.16692   0.00000  Uiso   1.00
C186   C     0.16655   0.37614   0.16641   0.00000  Uiso   1.00
C187   C     0.13321   0.47466   0.01909   0.00000  Uiso   1.00
C188   C     0.20012   0.52534   0.31425   0.00000  Uiso   1.00
C189   C     0.13354   0.47495   0.30315   0.00000  Uiso   1.00
C190   C     0.19980   0.52505   0.03018   0.00000  Uiso   1.00
Cu191  Cu    0.16667   0.50001   0.21355   0.00000  Uiso   1.00
Cu192  Cu    0.16667   0.49999   0.11978   0.00000  Uiso   1.00
H193   H     0.32537   0.50222   0.11220   0.00000  Uiso   1.00
H194   H     0.00796   0.49778   0.22113   0.00000  Uiso   1.00
H195   H     0.20674   0.37080   0.10592   0.00000  Uiso   1.00
H196   H     0.12660   0.62920   0.22742   0.00000  Uiso   1.00
H197   H     0.20622   0.62875   0.10582   0.00000  Uiso   1.00
H198   H     0.12711   0.37125   0.22751   0.00000  Uiso   1.00
H199   H     0.10714   0.45491   0.28012   0.00000  Uiso   1.00
H200   H     0.22620   0.54509   0.05321   0.00000  Uiso   1.00
N201   N     0.16668   0.50001   0.28403   0.00000  Uiso   1.00
N202   N     0.16665   0.49999   0.04931   0.00000  Uiso   1.00
O203   O     0.16666   0.43989   0.20625   0.00000  Uiso   1.00
O204   O     0.16667   0.56011   0.12709   0.00000  Uiso   1.00
O205   O     0.16666   0.43988   0.12706   0.00000  Uiso   1.00
O206   O     0.16667   0.56012   0.20628   0.00000  Uiso   1.00
O207   O     0.09161   0.50000   0.19712   0.00000  Uiso   1.00
O208   O     0.24172   0.50000   0.13621   0.00000  Uiso   1.00
O209   O     0.09161   0.49999   0.11793   0.00000  Uiso   1.00
O210   O     0.24172   0.50001   0.21540   0.00000  Uiso   1.00
C211   C     0.09581   0.44592   0.03574   0.00000  Uiso   1.00
C212   C     0.04473   0.45823   0.03677   0.00000  Uiso   1.00
C213   C     0.00764   0.42986   0.04800   0.00000  Uiso   1.00
C214   C     0.02097   0.38874   0.05695   0.00000  Uiso   1.00
C215   C     0.07117   0.37583   0.05390   0.00000  Uiso   1.00
C216   C     0.10822   0.40416   0.04250   0.00000  Uiso   1.00
H217   H     0.03398   0.48992   0.02946   0.00000  Uiso   1.00
H218   H     0.30186   0.43972   0.04954   0.00000  Uiso   1.00
H219   H     0.32558   0.36678   0.06559   0.00000  Uiso   1.00
H220   H     0.08122   0.34380   0.05987   0.00000  Uiso   1.00
H221   H     0.14650   0.39360   0.03870   0.00000  Uiso   1.00
C222   C     0.23753   0.55408   0.29760   0.00000  Uiso   1.00
C223   C     0.28860   0.54177   0.29657   0.00000  Uiso   1.00
C224   C     0.32570   0.57014   0.28533   0.00000  Uiso   1.00
C225   C     0.31236   0.61126   0.27639   0.00000  Uiso   1.00
C226   C     0.26217   0.62417   0.27943   0.00000  Uiso   1.00
C227   C     0.22511   0.59585   0.29083   0.00000  Uiso   1.00
H228   H     0.29935   0.51008   0.30388   0.00000  Uiso   1.00
H229   H     0.03147   0.56027   0.28379   0.00000  Uiso   1.00
H230   H     0.00775   0.63322   0.26774   0.00000  Uiso   1.00
H231   H     0.25212   0.65620   0.27346   0.00000  Uiso   1.00
H232   H     0.18684   0.60640   0.29463   0.00000  Uiso   1.00
C233   C     0.49994   0.42077   0.16648   0.00000  Uiso   1.00
C234   C     0.50006   0.57923   0.16685   0.00000  Uiso   1.00
C235   C     0.40125   0.50007   0.15448   0.00000  Uiso   1.00
C236   C     0.59875   0.49993   0.17885   0.00000  Uiso   1.00
C237   C     0.34578   0.50060   0.14794   0.00000  Uiso   1.00
C238   C     0.65422   0.49940   0.18540   0.00000  Uiso   1.00
C239   C     0.52207   0.35459   0.13220   0.00000  Uiso   1.00
C240   C     0.47793   0.64541   0.20114   0.00000  Uiso   1.00
C241   C     0.52199   0.64515   0.13231   0.00000  Uiso   1.00
C242   C     0.47802   0.35485   0.20102   0.00000  Uiso   1.00
C243   C     0.50011   0.62386   0.16692   0.00000  Uiso   1.00
C244   C     0.49989   0.37614   0.16641   0.00000  Uiso   1.00
C245   C     0.46655   0.47466   0.01909   0.00000  Uiso   1.00
C246   C     0.53345   0.52534   0.31425   0.00000  Uiso   1.00
C247   C     0.46687   0.47495   0.30315   0.00000  Uiso   1.00
C248   C     0.53313   0.52505   0.03018   0.00000  Uiso   1.00
Cu249  Cu    0.50000   0.50001   0.21355   0.00000  Uiso   1.00
Cu250  Cu    0.50000   0.49999   0.11978   0.00000  Uiso   1.00
H251   H     0.65870   0.50222   0.11220   0.00000  Uiso   1.00
H252   H     0.34130   0.49778   0.22113   0.00000  Uiso   1.00
H253   H     0.54007   0.37080   0.10592   0.00000  Uiso   1.00
H254   H     0.45993   0.62920   0.22742   0.00000  Uiso   1.00
H255   H     0.53955   0.62875   0.10582   0.00000  Uiso   1.00
H256   H     0.46045   0.37125   0.22751   0.00000  Uiso   1.00
H257   H     0.44047   0.45491   0.28012   0.00000  Uiso   1.00
H258   H     0.55953   0.54509   0.05321   0.00000  Uiso   1.00
N259   N     0.50001   0.50001   0.28403   0.00000  Uiso   1.00
N260   N     0.49999   0.49999   0.04931   0.00000  Uiso   1.00
O261   O     0.50000   0.43989   0.20625   0.00000  Uiso   1.00
O262   O     0.50000   0.56011   0.12709   0.00000  Uiso   1.00
O263   O     0.50000   0.43988   0.12706   0.00000  Uiso   1.00
O264   O     0.50000   0.56012   0.20628   0.00000  Uiso   1.00
O265   O     0.42495   0.50000   0.19712   0.00000  Uiso   1.00
O266   O     0.57505   0.50000   0.13621   0.00000  Uiso   1.00
O267   O     0.42494   0.49999   0.11793   0.00000  Uiso   1.00
O268   O     0.57506   0.50001   0.21540   0.00000  Uiso   1.00
C269   C     0.42914   0.44592   0.03574   0.00000  Uiso   1.00
C270   C     0.37806   0.45823   0.03677   0.00000  Uiso   1.00
C271   C     0.34097   0.42986   0.04800   0.00000  Uiso   1.00
C272   C     0.35431   0.38874   0.05695   0.00000  Uiso   1.00
C273   C     0.40450   0.37583   0.05390   0.00000  Uiso   1.00
C274   C     0.44156   0.40416   0.04250   0.00000  Uiso   1.00
H275   H     0.36732   0.48992   0.02946   0.00000  Uiso   1.00
H276   H     0.63519   0.43972   0.04954   0.00000  Uiso   1.00
H277   H     0.65892   0.36678   0.06559   0.00000  Uiso   1.00
H278   H     0.41455   0.34380   0.05987   0.00000  Uiso   1.00
H279   H     0.47983   0.39360   0.03870   0.00000  Uiso   1.00
C280   C     0.57086   0.55408   0.29760   0.00000  Uiso   1.00
C281   C     0.62194   0.54177   0.29657   0.00000  Uiso   1.00
C282   C     0.65903   0.57014   0.28533   0.00000  Uiso   1.00
C283   C     0.64569   0.61126   0.27639   0.00000  Uiso   1.00
C284   C     0.59550   0.62417   0.27943   0.00000  Uiso   1.00
C285   C     0.55844   0.59585   0.29083   0.00000  Uiso   1.00
H286   H     0.63268   0.51008   0.30388   0.00000  Uiso   1.00
H287   H     0.36481   0.56027   0.28379   0.00000  Uiso   1.00
H288   H     0.34109   0.63322   0.26774   0.00000  Uiso   1.00
H289   H     0.58545   0.65620   0.27346   0.00000  Uiso   1.00
H290   H     0.52017   0.60640   0.29463   0.00000  Uiso   1.00
C291   C     0.83328   0.42077   0.16648   0.00000  Uiso   1.00
C292   C     0.83339   0.57923   0.16685   0.00000  Uiso   1.00
C293   C     0.73458   0.50007   0.15448   0.00000  Uiso   1.00
C294   C     0.93209   0.49993   0.17885   0.00000  Uiso   1.00
C295   C     0.67911   0.50060   0.14794   0.00000  Uiso   1.00
C296   C     0.98756   0.49940   0.18540   0.00000  Uiso   1.00
C297   C     0.85541   0.35459   0.13220   0.00000  Uiso   1.00
C298   C     0.81126   0.64541   0.20114   0.00000  Uiso   1.00
C299   C     0.85532   0.64515   0.13231   0.00000  Uiso   1.00
C300   C     0.81135   0.35485   0.20102   0.00000  Uiso   1.00
C301   C     0.83345   0.62386   0.16692   0.00000  Uiso   1.00
C302   C     0.83322   0.37614   0.16641   0.00000  Uiso   1.00
C303   C     0.79988   0.47466   0.01909   0.00000  Uiso   1.00
C304   C     0.86679   0.52534   0.31425   0.00000  Uiso   1.00
C305   C     0.80020   0.47495   0.30315   0.00000  Uiso   1.00
C306   C     0.86646   0.52505   0.03018   0.00000  Uiso   1.00
Cu307  Cu    0.83333   0.50001   0.21355   0.00000  Uiso   1.00
Cu308  Cu    0.83333   0.49999   0.11978   0.00000  Uiso   1.00
H309   H     0.99204   0.50222   0.11220   0.00000  Uiso   1.00
H310   H     0.67463   0.49778   0.22113   0.00000  Uiso   1.00
H311   H     0.87340   0.37080   0.10592   0.00000  Uiso   1.00
H312   H     0.79326   0.62920   0.22742   0.00000  Uiso   1.00
H313   H     0.87289   0.62875   0.10582   0.00000  Uiso   1.00
H314   H     0.79378   0.37125   0.22751   0.00000  Uiso   1.00
H315   H     0.77380   0.45491   0.28012   0.00000  Uiso   1.00
H316   H     0.89286   0.54509   0.05321   0.00000  Uiso   1.00
N317   N     0.83335   0.50001   0.28403   0.00000  Uiso   1.00
N318   N     0.83332   0.49999   0.04931   0.00000  Uiso   1.00
O319   O     0.83333   0.43989   0.20625   0.00000  Uiso   1.00
O320   O     0.83334   0.56011   0.12709   0.00000  Uiso   1.00
O321   O     0.83333   0.43988   0.12706   0.00000  Uiso   1.00
O322   O     0.83334   0.56012   0.20628   0.00000  Uiso   1.00
O323   O     0.75828   0.50000   0.19712   0.00000  Uiso   1.00
O324   O     0.90839   0.50000   0.13621   0.00000  Uiso   1.00
O325   O     0.75828   0.49999   0.11793   0.00000  Uiso   1.00
O326   O     0.90839   0.50001   0.21540   0.00000  Uiso   1.00
C327   C     0.76247   0.44592   0.03574   0.00000  Uiso   1.00
C328   C     0.71140   0.45823   0.03677   0.00000  Uiso   1.00
C329   C     0.67430   0.42986   0.04800   0.00000  Uiso   1.00
C330   C     0.68764   0.38874   0.05695   0.00000  Uiso   1.00
C331   C     0.73783   0.37583   0.05390   0.00000  Uiso   1.00
C332   C     0.77489   0.40416   0.04250   0.00000  Uiso   1.00
H333   H     0.70065   0.48992   0.02946   0.00000  Uiso   1.00
H334   H     0.96853   0.43972   0.04954   0.00000  Uiso   1.00
H335   H     0.99225   0.36678   0.06559   0.00000  Uiso   1.00
H336   H     0.74788   0.34380   0.05987   0.00000  Uiso   1.00
H337   H     0.81317   0.39360   0.03870   0.00000  Uiso   1.00
C338   C     0.90419   0.55408   0.29760   0.00000  Uiso   1.00
C339   C     0.95527   0.54177   0.29657   0.00000  Uiso   1.00
C340   C     0.99236   0.57014   0.28533   0.00000  Uiso   1.00
C341   C     0.97903   0.61126   0.27639   0.00000  Uiso   1.00
C342   C     0.92883   0.62417   0.27943   0.00000  Uiso   1.00
C343   C     0.89178   0.59585   0.29083   0.00000  Uiso   1.00
H344   H     0.96602   0.51008   0.30388   0.00000  Uiso   1.00
H345   H     0.69814   0.56027   0.28379   0.00000  Uiso   1.00
H346   H     0.67442   0.63322   0.26774   0.00000  Uiso   1.00
H347   H     0.91878   0.65620   0.27346   0.00000  Uiso   1.00
H348   H     0.85350   0.60640   0.29463   0.00000  Uiso   1.00
C349   C     0.16661   0.75411   0.16648   0.00000  Uiso   1.00
C350   C     0.16672   0.91256   0.16685   0.00000  Uiso   1.00
C351   C     0.06791   0.83340   0.15448   0.00000  Uiso   1.00
C352   C     0.26542   0.83327   0.17885   0.00000  Uiso   1.00
C353   C     0.01245   0.83393   0.14794   0.00000  Uiso   1.00
C354   C     0.32089   0.83274   0.18540   0.00000  Uiso   1.00
C355   C     0.18874   0.68793   0.13220   0.00000  Uiso   1.00
C356   C     0.14459   0.97874   0.20114   0.00000  Uiso   1.00
C357   C     0.18865   0.97848   0.13231   0.00000  Uiso   1.00
C358   C     0.14468   0.68819   0.20102   0.00000  Uiso   1.00
C359   C     0.16678   0.95719   0.16692   0.00000  Uiso   1.00
C360   C     0.16655   0.70947   0.16641   0.00000  Uiso   1.00
C361   C     0.13321   0.80799   0.01909   0.00000  Uiso   1.00
C362   C     0.20012   0.85867   0.31425   0.00000  Uiso   1.00
C363   C     0.13354   0.80828   0.30315   0.00000  Uiso   1.00
C364   C     0.19980   0.85839   0.03018   0.00000  Uiso   1.00
Cu365  Cu    0.16667   0.83334   0.21355   0.00000  Uiso   1.00
Cu366  Cu    0.16667   0.83333   0.11978   0.00000  Uiso   1.00
H367   H     0.32537   0.83555   0.11220   0.00000  Uiso   1.00
H368   H     0.00796   0.83112   0.22113   0.00000  Uiso   1.00
H369   H     0.20674   0.70413   0.10592   0.00000  Uiso   1.00
H370   H     0.12660   0.96254   0.22742   0.00000  Uiso   1.00
H371   H     0.20622   0.96208   0.10582   0.00000  Uiso   1.00
H372   H     0.12711   0.70459   0.22751   0.00000  Uiso   1.00
H373   H     0.10714   0.78824   0.28012   0.00000  Uiso   1.00
H374   H     0.22620   0.87842   0.05321   0.00000  Uiso   1.00
N375   N     0.16668   0.83334   0.28403   0.00000  Uiso   1.00
N376   N     0.16665   0.83332   0.04931   0.00000  Uiso   1.00
O377   O     0.16666   0.77322   0.20625   0.00000  Uiso   1.00
O378   O     0.16667   0.89345   0.12709   0.00000  Uiso   1.00
O379   O     0.16666   0.77321   0.12706   0.00000  Uiso   1.00
O380   O     0.16667   0.89346   0.20628   0.00000  Uiso   1.00
O381   O     0.09161   0.83334   0.19712   0.00000  Uiso   1.00
O382   O     0.24172   0.83333   0.13621   0.00000  Uiso   1.00
O383   O     0.09161   0.83333   0.11793   0.00000  Uiso   1.00
O384   O     0.24172   0.83334   0.21540   0.00000  Uiso   1.00
C385   C     0.09581   0.77925   0.03574   0.00000  Uiso   1.00
C386   C     0.04473   0.79156   0.03677   0.00000  Uiso   1.00
C387   C     0.00764   0.76320   0.04800   0.00000  Uiso   1.00
C388   C     0.02097   0.72208   0.05695   0.00000  Uiso   1.00
C389   C     0.07117   0.70916   0.05390   0.00000  Uiso   1.00
C390   C     0.10822   0.73749   0.04250   0.00000  Uiso   1.00
H391   H     0.03398   0.82325   0.02946   0.00000  Uiso   1.00
H392   H     0.30186   0.77306   0.04954   0.00000  Uiso   1.00
H393   H     0.32558   0.70012   0.06559   0.00000  Uiso   1.00
H394   H     0.08122   0.67713   0.05987   0.00000  Uiso   1.00
H395   H     0.14650   0.72694   0.03870   0.00000  Uiso   1.00
C396   C     0.23753   0.88742   0.29760   0.00000  Uiso   1.00
C397   C     0.28860   0.87510   0.29657   0.00000  Uiso   1.00
C398   C     0.32570   0.90347   0.28533   0.00000  Uiso   1.00
C399   C     0.31236   0.94459   0.27639   0.00000  Uiso   1.00
C400   C     0.26217   0.95751   0.27943   0.00000  Uiso   1.00
C401   C     0.22511   0.92918   0.29083   0.00000  Uiso   1.00
H402   H     0.29935   0.84341   0.30388   0.00000  Uiso   1.00
H403   H     0.03147   0.89361   0.28379   0.00000  Uiso   1.00
H404   H     0.00775   0.96655   0.26774   0.00000  Uiso   1.00
H405   H     0.25212   0.98954   0.27346   0.00000  Uiso   1.00
H406   H     0.18684   0.93973   0.29463   0.00000  Uiso   1.00
C407   C     0.49994   0.75411   0.16648   0.00000  Uiso   1.00
C408   C     0.50006   0.91256   0.16685   0.00000  Uiso   1.00
C409   C     0.40125   0.83340   0.15448   0.00000  Uiso   1.00
C410   C     0.59875   0.83327   0.17885   0.00000  Uiso   1.00
C411   C     0.34578   0.83393   0.14794   0.00000  Uiso   1.00
C412   C     0.65422   0.83274   0.18540   0.00000  Uiso   1.00
C413   C     0.52207   0.68793   0.13220   0.00000  Uiso   1.00
C414   C     0.47793   0.97874   0.20114   0.00000  Uiso   1.00
C415   C     0.52199   0.97848   0.13231   0.00000  Uiso   1.00
C416   C     0.47802   0.68819   0.20102   0.00000  Uiso   1.00
C417   C     0.50011   0.95719   0.16692   0.00000  Uiso   1.00
C418   C     0.49989   0.70947   0.16641   0.00000  Uiso   1.00
C419   C     0.46655   0.80799   0.01909   0.00000  Uiso   1.00
C420   C     0.53345   0.85867   0.31425   0.00000  Uiso   1.00
C421   C     0.46687   0.80828   0.30315   0.00000  Uiso   1.00
C422   C     0.53313   0.85839   0.03018   0.00000  Uiso   1.00
Cu423  Cu    0.50000   0.83334   0.21355   0.00000  Uiso   1.00
Cu424  Cu    0.50000   0.83333   0.11978   0.00000  Uiso   1.00
H425   H     0.65870   0.83555   0.11220   0.00000  Uiso   1.00
H426   H     0.34130   0.83112   0.22113   0.00000  Uiso   1.00
H427   H     0.54007   0.70413   0.10592   0.00000  Uiso   1.00
H428   H     0.45993   0.96254   0.22742   0.00000  Uiso   1.00
H429   H     0.53955   0.96208   0.10582   0.00000  Uiso   1.00
H430   H     0.46045   0.70459   0.22751   0.00000  Uiso   1.00
H431   H     0.44047   0.78824   0.28012   0.00000  Uiso   1.00
H432   H     0.55953   0.87842   0.05321   0.00000  Uiso   1.00
N433   N     0.50001   0.83334   0.28403   0.00000  Uiso   1.00
N434   N     0.49999   0.83332   0.04931   0.00000  Uiso   1.00
O435   O     0.50000   0.77322   0.20625   0.00000  Uiso   1.00
O436   O     0.50000   0.89345   0.12709   0.00000  Uiso   1.00
O437   O     0.50000   0.77321   0.12706   0.00000  Uiso   1.00
O438   O     0.50000   0.89346   0.20628   0.00000  Uiso   1.00
O439   O     0.42495   0.83334   0.19712   0.00000  Uiso   1.00
O440   O     0.57505   0.83333   0.13621   0.00000  Uiso   1.00
O441   O     0.42494   0.83333   0.11793   0.00000  Uiso   1.00
O442   O     0.57506   0.83334   0.21540   0.00000  Uiso   1.00
C443   C     0.42914   0.77925   0.03574   0.00000  Uiso   1.00
C444   C     0.37806   0.79156   0.03677   0.00000  Uiso   1.00
C445   C     0.34097   0.76320   0.04800   0.00000  Uiso   1.00
C446   C     0.35431   0.72208   0.05695   0.00000  Uiso   1.00
C447   C     0.40450   0.70916   0.05390   0.00000  Uiso   1.00
C448   C     0.44156   0.73749   0.04250   0.00000  Uiso   1.00
H449   H     0.36732   0.82325   0.02946   0.00000  Uiso   1.00
H450   H     0.63519   0.77306   0.04954   0.00000  Uiso   1.00
H451   H     0.65892   0.70012   0.06559   0.00000  Uiso   1.00
H452   H     0.41455   0.67713   0.05987   0.00000  Uiso   1.00
H453   H     0.47983   0.72694   0.03870   0.00000  Uiso   1.00
C454   C     0.57086   0.88742   0.29760   0.00000  Uiso   1.00
C455   C     0.62194   0.87510   0.29657   0.00000  Uiso   1.00
C456   C     0.65903   0.90347   0.28533   0.00000  Uiso   1.00
C457   C     0.64569   0.94459   0.27639   0.00000  Uiso   1.00
C458   C     0.59550   0.95751   0.27943   0.00000  Uiso   1.00
C459   C     0.55844   0.92918   0.29083   0.00000  Uiso   1.00
H460   H     0.63268   0.84341   0.30388   0.00000  Uiso   1.00
H461   H     0.36481   0.89361   0.28379   0.00000  Uiso   1.00
H462   H     0.34109   0.96655   0.26774   0.00000  Uiso   1.00
H463   H     0.58545   0.98954   0.27346   0.00000  Uiso   1.00
H464   H     0.52017   0.93973   0.29463   0.00000  Uiso   1.00
C465   C     0.83328   0.75411   0.16648   0.00000  Uiso   1.00
C466   C     0.83339   0.91256   0.16685   0.00000  Uiso   1.00
C467   C     0.73458   0.83340   0.15448   0.00000  Uiso   1.00
C468   C     0.93209   0.83327   0.17885   0.00000  Uiso   1.00
C469   C     0.67911   0.83393   0.14794   0.00000  Uiso   1.00
C470   C     0.98756   0.83274   0.18540   0.00000  Uiso   1.00
C471   C     0.85541   0.68793   0.13220   0.00000  Uiso   1.00
C472   C     0.81126   0.97874   0.20114   0.00000  Uiso   1.00
C473   C     0.85532   0.97848   0.13231   0.00000  Uiso   1.00
C474   C     0.81135   0.68819   0.20102   0.00000  Uiso   1.00
C475   C     0.83345   0.95719   0.16692   0.00000  Uiso   1.00
C476   C     0.83322   0.70947   0.16641   0.00000  Uiso   1.00
C477   C     0.79988   0.80799   0.01909   0.00000  Uiso   1.00
C478   C     0.86679   0.85867   0.31425   0.00000  Uiso   1.00
C479   C     0.80020   0.80828   0.30315   0.00000  Uiso   1.00
C480   C     0.86646   0.85839   0.03018   0.00000  Uiso   1.00
Cu481  Cu    0.83333   0.83334   0.21355   0.00000  Uiso   1.00
Cu482  Cu    0.83333   0.83333   0.11978   0.00000  Uiso   1.00
H483   H     0.99204   0.83555   0.11220   0.00000  Uiso   1.00
H484   H     0.67463   0.83112   0.22113   0.00000  Uiso   1.00
H485   H     0.87340   0.70413   0.10592   0.00000  Uiso   1.00
H486   H     0.79326   0.96254   0.22742   0.00000  Uiso   1.00
H487   H     0.87289   0.96208   0.10582   0.00000  Uiso   1.00
H488   H     0.79378   0.70459   0.22751   0.00000  Uiso   1.00
H489   H     0.77380   0.78824   0.28012   0.00000  Uiso   1.00
H490   H     0.89286   0.87842   0.05321   0.00000  Uiso   1.00
N491   N     0.83335   0.83334   0.28403   0.00000  Uiso   1.00
N492   N     0.83332   0.83332   0.04931   0.00000  Uiso   1.00
O493   O     0.83333   0.77322   0.20625   0.00000  Uiso   1.00
O494   O     0.83334   0.89345   0.12709   0.00000  Uiso   1.00
O495   O     0.83333   0.77321   0.12706   0.00000  Uiso   1.00
O496   O     0.83334   0.89346   0.20628   0.00000  Uiso   1.00
O497   O     0.75828   0.83334   0.19712   0.00000  Uiso   1.00
O498   O     0.90839   0.83333   0.13621   0.00000  Uiso   1.00
O499   O     0.75828   0.83333   0.11793   0.00000  Uiso   1.00
O500   O     0.90839   0.83334   0.21540   0.00000  Uiso   1.00
C501   C     0.76247   0.77925   0.03574   0.00000  Uiso   1.00
C502   C     0.71140   0.79156   0.03677   0.00000  Uiso   1.00
C503   C     0.67430   0.76320   0.04800   0.00000  Uiso   1.00
C504   C     0.68764   0.72208   0.05695   0.00000  Uiso   1.00
C505   C     0.73783   0.70916   0.05390   0.00000  Uiso   1.00
C506   C     0.77489   0.73749   0.04250   0.00000  Uiso   1.00
H507   H     0.70065   0.82325   0.02946   0.00000  Uiso   1.00
H508   H     0.96853   0.77306   0.04954   0.00000  Uiso   1.00
H509   H     0.99225   0.70012   0.06559   0.00000  Uiso   1.00
H510   H     0.74788   0.67713   0.05987   0.00000  Uiso   1.00
H511   H     0.81317   0.72694   0.03870   0.00000  Uiso   1.00
C512   C     0.90419   0.88742   0.29760   0.00000  Uiso   1.00
C513   C     0.95527   0.87510   0.29657   0.00000  Uiso   1.00
C514   C     0.99236   0.90347   0.28533   0.00000  Uiso   1.00
C515   C     0.97903   0.94459   0.27639   0.00000  Uiso   1.00
C516   C     0.92883   0.95751   0.27943   0.00000  Uiso   1.00
C517   C     0.89178   0.92918   0.29083   0.00000  Uiso   1.00
H518   H     0.96602   0.84341   0.30388   0.00000  Uiso   1.00
H519   H     0.69814   0.89361   0.28379   0.00000  Uiso   1.00
H520   H     0.67442   0.96655   0.26774   0.00000  Uiso   1.00
H521   H     0.91878   0.98954   0.27346   0.00000  Uiso   1.00
H522   H     0.85350   0.93973   0.29463   0.00000  Uiso   1.00
C523   C     0.16661   0.08744   0.49981   0.00000  Uiso   1.00
C524   C     0.16672   0.24589   0.50019   0.00000  Uiso   1.00
C525   C     0.06791   0.16674   0.48782   0.00000  Uiso   1.00
C526   C     0.26542   0.16660   0.51218   0.00000  Uiso   1.00
C527   C     0.01245   0.16726   0.48127   0.00000  Uiso   1.00
C528   C     0.32089   0.16607   0.51873   0.00000  Uiso   1.00
C529   C     0.18874   0.02126   0.46553   0.00000  Uiso   1.00
C530   C     0.14459   0.31207   0.53447   0.00000  Uiso   1.00
C531   C     0.18865   0.31181   0.46565   0.00000  Uiso   1.00
C532   C     0.14468   0.02152   0.53435   0.00000  Uiso   1.00
C533   C     0.16678   0.29053   0.50026   0.00000  Uiso   1.00
C534   C     0.16655   0.04281   0.49974   0.00000  Uiso   1.00
C535   C     0.13321   0.14133   0.35242   0.00000  Uiso   1.00
C536   C     0.20012   0.19201   0.64758   0.00000  Uiso   1.00
C537   C     0.13354   0.14161   0.63648   0.00000  Uiso   1.00
C538   C     0.19980   0.19172   0.36352   0.00000  Uiso   1.00
Cu539  Cu    0.16667   0.16667   0.54689   0.00000  Uiso   1.00
Cu540  Cu    0.16667   0.16666   0.45311   0.00000  Uiso   1.00
H541   H     0.32537   0.16888   0.44553   0.00000  Uiso   1.00
H542   H     0.00796   0.16445   0.55447   0.00000  Uiso   1.00
H543   H     0.20674   0.03746   0.43925   0.00000  Uiso   1.00
H544   H     0.12660   0.29587   0.56075   0.00000  Uiso   1.00
H545   H     0.20622   0.29541   0.43915   0.00000  Uiso   1.00
H546   H     0.12711   0.03792   0.56085   0.00000  Uiso   1.00
H547   H     0.10714   0.12158   0.61346   0.00000  Uiso   1.00
H548   H     0.22620   0.21176   0.38654   0.00000  Uiso   1.00
N549   N     0.16668   0.16668   0.61736   0.00000  Uiso   1.00
N550   N     0.16665   0.16666   0.38264   0.00000  Uiso   1.00
O551   O     0.16666   0.10655   0.53958   0.00000  Uiso   1.00
O552   O     0.16667   0.22678   0.46042   0.00000  Uiso   1.00
O553   O     0.16666   0.10654   0.46039   0.00000  Uiso   1.00
O554   O     0.16667   0.22679   0.53961   0.00000  Uiso   1.00
O555   O     0.09161   0.16667   0.53046   0.00000  Uiso   1.00
O556   O     0.24172   0.16666   0.46954   0.00000  Uiso   1.00
O557   O     0.09161   0.16666   0.45127   0.00000  Uiso   1.00
O558   O     0.24172   0.16667   0.54873   0.00000  Uiso   1.00
C559   C     0.09581   0.11258   0.36907   0.00000  Uiso   1.00
C560   C     0.04473   0.12490   0.37010   0.00000  Uiso   1.00
C561   C     0.00764   0.09653   0.38134   0.00000  Uiso   1.00
C562   C     0.02097   0.05541   0.39028   0.00000  Uiso   1.00
C563   C     0.07117   0.04250   0.38723   0.00000  Uiso   1.00
C564   C     0.10822   0.07082   0.37584   0.00000  Uiso   1.00
H565   H     0.03398   0.15659   0.36279   0.00000  Uiso   1.00
H566   H     0.30186   0.10639   0.38287   0.00000  Uiso   1.00
H567   H     0.32558   0.03345   0.39892   0.00000  Uiso   1.00
H568   H     0.08122   0.01046   0.39320   0.00000  Uiso   1.00
H569   H     0.14650   0.06027   0.37204   0.00000  Uiso   1.00
C570   C     0.23753   0.22075   0.63093   0.00000  Uiso   1.00
C571   C     0.28860   0.20844   0.62990   0.00000  Uiso   1.00
C572   C     0.32570   0.23680   0.61866   0.00000  Uiso   1.00
C573   C     0.31236   0.27792   0.60972   0.00000  Uiso   1.00
C574   C     0.26217   0.29084   0.61277   0.00000  Uiso   1.00
C575   C     0.22511   0.26251   0.62417   0.00000  Uiso   1.00
H576   H     0.29935   0.17675   0.63721   0.00000  Uiso   1.00
H577   H     0.03147   0.22694   0.61713   0.00000  Uiso   1.00
H578   H     0.00775   0.29988   0.60108   0.00000  Uiso   1.00
H579   H     0.25212   0.32287   0.60680   0.00000  Uiso   1.00
H580   H     0.18684   0.27306   0.62796   0.00000  Uiso   1.00
C581   C     0.49994   0.08744   0.49981   0.00000  Uiso   1.00
C582   C     0.50006   0.24589   0.50019   0.00000  Uiso   1.00
C583   C     0.40125   0.16674   0.48782   0.00000  Uiso   1.00
C584   C     0.59875   0.16660   0.51218   0.00000  Uiso   1.00
C585   C     0.34578   0.16726   0.48127   0.00000  Uiso   1.00
C586   C     0.65422   0.16607   0.51873   0.00000  Uiso   1.00
C587   C     0.52207   0.02126   0.46553   0.00000  Uiso   1.00
C588   C     0.47793   0.31207   0.53447   0.00000  Uiso   1.00
C589   C     0.52199   0.31181   0.46565   0.00000  Uiso   1.00
C590   C     0.47802   0.02152   0.53435   0.00000  Uiso   1.00
C591   C     0.50011   0.29053   0.50026   0.00000  Uiso   1.00
C592   C     0.49989   0.04281   0.49974   0.00000  Uiso   1.00
C593   C     0.46655   0.14133   0.35242   0.00000  Uiso   1.00
C594   C     0.53345   0.19201   0.64758   0.00000  Uiso   1.00
C595   C     0.46687   0.14161   0.63648   0.00000  Uiso   1.00
C596   C     0.53313   0.19172   0.36352   0.00000  Uiso   1.00
Cu597  Cu    0.50000   0.16667   0.54689   0.00000  Uiso   1.00
Cu598  Cu    0.50000   0.16666   0.45311   0.00000  Uiso   1.00
H599   H     0.65870   0.16888   0.44553   0.00000  Uiso   1.00
H600   H     0.34130   0.16445   0.55447   0.00000  Uiso   1.00
H601   H     0.54007   0.03746   0.43925   0.00000  Uiso   1.00
H602   H     0.45993   0.29587   0.56075   0.00000  Uiso   1.00
H603   H     0.53955   0.29541   0.43915   0.00000  Uiso   1.00
H604   H     0.46045   0.03792   0.56085   0.00000  Uiso   1.00
H605   H     0.44047   0.12158   0.61346   0.00000  Uiso   1.00
H606   H     0.55953   0.21176   0.38654   0.00000  Uiso   1.00
N607   N     0.50001   0.16668   0.61736   0.00000  Uiso   1.00
N608   N     0.49999   0.16666   0.38264   0.00000  Uiso   1.00
O609   O     0.50000   0.10655   0.53958   0.00000  Uiso   1.00
O610   O     0.50000   0.22678   0.46042   0.00000  Uiso   1.00
O611   O     0.50000   0.10654   0.46039   0.00000  Uiso   1.00
O612   O     0.50000   0.22679   0.53961   0.00000  Uiso   1.00
O613   O     0.42495   0.16667   0.53046   0.00000  Uiso   1.00
O614   O     0.57505   0.16666   0.46954   0.00000  Uiso   1.00
O615   O     0.42494   0.16666   0.45127   0.00000  Uiso   1.00
O616   O     0.57506   0.16667   0.54873   0.00000  Uiso   1.00
C617   C     0.42914   0.11258   0.36907   0.00000  Uiso   1.00
C618   C     0.37806   0.12490   0.37010   0.00000  Uiso   1.00
C619   C     0.34097   0.09653   0.38134   0.00000  Uiso   1.00
C620   C     0.35431   0.05541   0.39028   0.00000  Uiso   1.00
C621   C     0.40450   0.04250   0.38723   0.00000  Uiso   1.00
C622   C     0.44156   0.07082   0.37584   0.00000  Uiso   1.00
H623   H     0.36732   0.15659   0.36279   0.00000  Uiso   1.00
H624   H     0.63519   0.10639   0.38287   0.00000  Uiso   1.00
H625   H     0.65892   0.03345   0.39892   0.00000  Uiso   1.00
H626   H     0.41455   0.01046   0.39320   0.00000  Uiso   1.00
H627   H     0.47983   0.06027   0.37204   0.00000  Uiso   1.00
C628   C     0.57086   0.22075   0.63093   0.00000  Uiso   1.00
C629   C     0.62194   0.20844   0.62990   0.00000  Uiso   1.00
C630   C     0.65903   0.23680   0.61866   0.00000  Uiso   1.00
C631   C     0.64569   0.27792   0.60972   0.00000  Uiso   1.00
C632   C     0.59550   0.29084   0.61277   0.00000  Uiso   1.00
C633   C     0.55844   0.26251   0.62417   0.00000  Uiso   1.00
H634   H     0.63268   0.17675   0.63721   0.00000  Uiso   1.00
H635   H     0.36481   0.22694   0.61713   0.00000  Uiso   1.00
H636   H     0.34109   0.29988   0.60108   0.00000  Uiso   1.00
H637   H     0.58545   0.32287   0.60680   0.00000  Uiso   1.00
H638   H     0.52017   0.27306   0.62796   0.00000  Uiso   1.00
C639   C     0.83328   0.08744   0.49981   0.00000  Uiso   1.00
C640   C     0.83339   0.24589   0.50019   0.00000  Uiso   1.00
C641   C     0.73458   0.16674   0.48782   0.00000  Uiso   1.00
C642   C     0.93209   0.16660   0.51218   0.00000  Uiso   1.00
C643   C     0.67911   0.16726   0.48127   0.00000  Uiso   1.00
C644   C     0.98756   0.16607   0.51873   0.00000  Uiso   1.00
C645   C     0.85541   0.02126   0.46553   0.00000  Uiso   1.00
C646   C     0.81126   0.31207   0.53447   0.00000  Uiso   1.00
C647   C     0.85532   0.31181   0.46565   0.00000  Uiso   1.00
C648   C     0.81135   0.02152   0.53435   0.00000  Uiso   1.00
C649   C     0.83345   0.29053   0.50026   0.00000  Uiso   1.00
C650   C     0.83322   0.04281   0.49974   0.00000  Uiso   1.00
C651   C     0.79988   0.14133   0.35242   0.00000  Uiso   1.00
C652   C     0.86679   0.19201   0.64758   0.00000  Uiso   1.00
C653   C     0.80020   0.14161   0.63648   0.00000  Uiso   1.00
C654   C     0.86646   0.19172   0.36352   0.00000  Uiso   1.00
Cu655  Cu    0.83333   0.16667   0.54689   0.00000  Uiso   1.00
Cu656  Cu    0.83333   0.16666   0.45311   0.00000  Uiso   1.00
H657   H     0.99204   0.16888   0.44553   0.00000  Uiso   1.00
H658   H     0.67463   0.16445   0.55447   0.00000  Uiso   1.00
H659   H     0.87340   0.03746   0.43925   0.00000  Uiso   1.00
H660   H     0.79326   0.29587   0.56075   0.00000  Uiso   1.00
H661   H     0.87289   0.29541   0.43915   0.00000  Uiso   1.00
H662   H     0.79378   0.03792   0.56085   0.00000  Uiso   1.00
H663   H     0.77380   0.12158   0.61346   0.00000  Uiso   1.00
H664   H     0.89286   0.21176   0.38654   0.00000  Uiso   1.00
N665   N     0.83335   0.16668   0.61736   0.00000  Uiso   1.00
N666   N     0.83332   0.16666   0.38264   0.00000  Uiso   1.00
O667   O     0.83333   0.10655   0.53958   0.00000  Uiso   1.00
O668   O     0.83334   0.22678   0.46042   0.00000  Uiso   1.00
O669   O     0.83333   0.10654   0.46039   0.00000  Uiso   1.00
O670   O     0.83334   0.22679   0.53961   0.00000  Uiso   1.00
O671   O     0.75828   0.16667   0.53046   0.00000  Uiso   1.00
O672   O     0.90839   0.16666   0.46954   0.00000  Uiso   1.00
O673   O     0.75828   0.16666   0.45127   0.00000  Uiso   1.00
O674   O     0.90839   0.16667   0.54873   0.00000  Uiso   1.00
C675   C     0.76247   0.11258   0.36907   0.00000  Uiso   1.00
C676   C     0.71140   0.12490   0.37010   0.00000  Uiso   1.00
C677   C     0.67430   0.09653   0.38134   0.00000  Uiso   1.00
C678   C     0.68764   0.05541   0.39028   0.00000  Uiso   1.00
C679   C     0.73783   0.04250   0.38723   0.00000  Uiso   1.00
C680   C     0.77489   0.07082   0.37584   0.00000  Uiso   1.00
H681   H     0.70065   0.15659   0.36279   0.00000  Uiso   1.00
H682   H     0.96853   0.10639   0.38287   0.00000  Uiso   1.00
H683   H     0.99225   0.03345   0.39892   0.00000  Uiso   1.00
H684   H     0.74788   0.01046   0.39320   0.00000  Uiso   1.00
H685   H     0.81317   0.06027   0.37204   0.00000  Uiso   1.00
C686   C     0.90419   0.22075   0.63093   0.00000  Uiso   1.00
C687   C     0.95527   0.20844   0.62990   0.00000  Uiso   1.00
C688   C     0.99236   0.23680   0.61866   0.00000  Uiso   1.00
C689   C     0.97903   0.27792   0.60972   0.00000  Uiso   1.00
C690   C     0.92883   0.29084   0.61277   0.00000  Uiso   1.00
C691   C     0.89178   0.26251   0.62417   0.00000  Uiso   1.00
H692   H     0.96602   0.17675   0.63721   0.00000  Uiso   1.00
H693   H     0.69814   0.22694   0.61713   0.00000  Uiso   1.00
H694   H     0.67442   0.29988   0.60108   0.00000  Uiso   1.00
H695   H     0.91878   0.32287   0.60680   0.00000  Uiso   1.00
H696   H     0.85350   0.27306   0.62796   0.00000  Uiso   1.00
C697   C     0.16661   0.42077   0.49981   0.00000  Uiso   1.00
C698   C     0.16672   0.57923   0.50019   0.00000  Uiso   1.00
C699   C     0.06791   0.50007   0.48782   0.00000  Uiso   1.00
C700   C     0.26542   0.49993   0.51218   0.00000  Uiso   1.00
C701   C     0.01245   0.50060   0.48127   0.00000  Uiso   1.00
C702   C     0.32089   0.49940   0.51873   0.00000  Uiso   1.00
C703   C     0.18874   0.35459   0.46553   0.00000  Uiso   1.00
C704   C     0.14459   0.64541   0.53447   0.00000  Uiso   1.00
C705   C     0.18865   0.64515   0.46565   0.00000  Uiso   1.00
C706   C     0.14468   0.35485   0.53435   0.00000  Uiso   1.00
C707   C     0.16678   0.62386   0.50026   0.00000  Uiso   1.00
C708   C     0.16655   0.37614   0.49974   0.00000  Uiso   1.00
C709   C     0.13321   0.47466   0.35242   0.00000  Uiso   1.00
C710   C     0.20012   0.52534   0.64758   0.00000  Uiso   1.00
C711   C     0.13354   0.47495   0.63648   0.00000  Uiso   1.00
C712   C     0.19980   0.52505   0.36352   0.00000  Uiso   1.00
Cu713  Cu    0.16667   0.50001   0.54689   0.00000  Uiso   1.00
Cu714  Cu    0.16667   0.49999   0.45311   0.00000  Uiso   1.00
H715   H     0.32537   0.50222   0.44553   0.00000  Uiso   1.00
H716   H     0.00796   0.49778   0.55447   0.00000  Uiso   1.00
H717   H     0.20674   0.37080   0.43925   0.00000  Uiso   1.00
H718   H     0.12660   0.62920   0.56075   0.00000  Uiso   1.00
H719   H     0.20622   0.62875   0.43915   0.00000  Uiso   1.00
H720   H     0.12711   0.37125   0.56085   0.00000  Uiso   1.00
H721   H     0.10714   0.45491   0.61346   0.00000  Uiso   1.00
H722   H     0.22620   0.54509   0.38654   0.00000  Uiso   1.00
N723   N     0.16668   0.50001   0.61736   0.00000  Uiso   1.00
N724   N     0.16665   0.49999   0.38264   0.00000  Uiso   1.00
O725   O     0.16666   0.43989   0.53958   0.00000  Uiso   1.00
O726   O     0.16667   0.56011   0.46042   0.00000  Uiso   1.00
O727   O     0.16666   0.43988   0.46039   0.00000  Uiso   1.00
O728   O     0.16667   0.56012   0.53961   0.00000  Uiso   1.00
O729   O     0.09161   0.50000   0.53046   0.00000  Uiso   1.00
O730   O     0.24172   0.50000   0.46954   0.00000  Uiso   1.00
O731   O     0.09161   0.49999   0.45127   0.00000  Uiso   1.00
O732   O     0.24172   0.50001   0.54873   0.00000  Uiso   1.00
C733   C     0.09581   0.44592   0.36907   0.00000  Uiso   1.00
C734   C     0.04473   0.45823   0.37010   0.00000  Uiso   1.00
C735   C     0.00764   0.42986   0.38134   0.00000  Uiso   1.00
C736   C     0.02097   0.38874   0.39028   0.00000  Uiso   1.00
C737   C     0.07117   0.37583   0.38723   0.00000  Uiso   1.00
C738   C     0.10822   0.40416   0.37584   0.00000  Uiso   1.00
H739   H     0.03398   0.48992   0.36279   0.00000  Uiso   1.00
H740   H     0.30186   0.43972   0.38287   0.00000  Uiso   1.00
H741   H     0.32558   0.36678   0.39892   0.00000  Uiso   1.00
H742   H     0.08122   0.34380   0.39320   0.00000  Uiso   1.00
H743   H     0.14650   0.39360   0.37204   0.00000  Uiso   1.00
C744   C     0.23753   0.55408   0.63093   0.00000  Uiso   1.00
C745   C     0.28860   0.54177   0.62990   0.00000  Uiso   1.00
C746   C     0.32570   0.57014   0.61866   0.00000  Uiso   1.00
C747   C     0.31236   0.61126   0.60972   0.00000  Uiso   1.00
C748   C     0.26217   0.62417   0.61277   0.00000  Uiso   1.00
C749   C     0.22511   0.59585   0.62417   0.00000  Uiso   1.00
H750   H     0.29935   0.51008   0.63721   0.00000  Uiso   1.00
H751   H     0.03147   0.56027   0.61713   0.00000  Uiso   1.00
H752   H     0.00775   0.63322   0.60108   0.00000  Uiso   1.00
H753   H     0.25212   0.65620   0.60680   0.00000  Uiso   1.00
H754   H     0.18684   0.60640   0.62796   0.00000  Uiso   1.00
C755   C     0.49994   0.42077   0.49981   0.00000  Uiso   1.00
C756   C     0.50006   0.57923   0.50019   0.00000  Uiso   1.00
C757   C     0.40125   0.50007   0.48782   0.00000  Uiso   1.00
C758   C     0.59875   0.49993   0.51218   0.00000  Uiso   1.00
C759   C     0.34578   0.50060   0.48127   0.00000  Uiso   1.00
C760   C     0.65422   0.49940   0.51873   0.00000  Uiso   1.00
C761   C     0.52207   0.35459   0.46553   0.00000  Uiso   1.00
C762   C     0.47793   0.64541   0.53447   0.00000  Uiso   1.00
C763   C     0.52199   0.64515   0.46565   0.00000  Uiso   1.00
C764   C     0.47802   0.35485   0.53435   0.00000  Uiso   1.00
C765   C     0.50011   0.62386   0.50026   0.00000  Uiso   1.00
C766   C     0.49989   0.37614   0.49974   0.00000  Uiso   1.00
C767   C     0.46655   0.47466   0.35242   0.00000  Uiso   1.00
C768   C     0.53345   0.52534   0.64758   0.00000  Uiso   1.00
C769   C     0.46687   0.47495   0.63648   0.00000  Uiso   1.00
C770   C     0.53313   0.52505   0.36352   0.00000  Uiso   1.00
Cu771  Cu    0.50000   0.50001   0.54689   0.00000  Uiso   1.00
Cu772  Cu    0.50000   0.49999   0.45311   0.00000  Uiso   1.00
H773   H     0.65870   0.50222   0.44553   0.00000  Uiso   1.00
H774   H     0.34130   0.49778   0.55447   0.00000  Uiso   1.00
H775   H     0.54007   0.37080   0.43925   0.00000  Uiso   1.00
H776   H     0.45993   0.62920   0.56075   0.00000  Uiso   1.00
H777   H     0.53955   0.62875   0.43915   0.00000  Uiso   1.00
H778   H     0.46045   0.37125   0.56085   0.00000  Uiso   1.00
H779   H     0.44047   0.45491   0.61346   0.00000  Uiso   1.00
H780   H     0.55953   0.54509   0.38654   0.00000  Uiso   1.00
N781   N     0.50001   0.50001   0.61736   0.00000  Uiso   1.00
N782   N     0.49999   0.49999   0.38264   0.00000  Uiso   1.00
O783   O     0.50000   0.43989   0.53958   0.00000  Uiso   1.00
O784   O     0.50000   0.56011   0.46042   0.00000  Uiso   1.00
O785   O     0.50000   0.43988   0.46039   0.00000  Uiso   1.00
O786   O     0.50000   0.56012   0.53961   0.00000  Uiso   1.00
O787   O     0.42495   0.50000   0.53046   0.00000  Uiso   1.00
O788   O     0.57505   0.50000   0.46954   0.00000  Uiso   1.00
O789   O     0.42494   0.49999   0.45127   0.00000  Uiso   1.00
O790   O     0.57506   0.50001   0.54873   0.00000  Uiso   1.00
C791   C     0.42914   0.44592   0.36907   0.00000  Uiso   1.00
C792   C     0.37806   0.45823   0.37010   0.00000  Uiso   1.00
C793   C     0.34097   0.42986   0.38134   0.00000  Uiso   1.00
C794   C     0.35431   0.38874   0.39028   0.00000  Uiso   1.00
C795   C     0.40450   0.37583   0.38723   0.00000  Uiso   1.00
C796   C     0.44156   0.40416   0.37584   0.00000  Uiso   1.00
H797   H     0.36732   0.48992   0.36279   0.00000  Uiso   1.00
H798   H     0.63519   0.43972   0.38287   0.00000  Uiso   1.00
H799   H     0.65892   0.36678   0.39892   0.00000  Uiso   1.00
H800   H     0.41455   0.34380   0.39320   0.00000  Uiso   1.00
H801   H     0.47983   0.39360   0.37204   0.00000  Uiso   1.00
C802   C     0.57086   0.55408   0.63093   0.00000  Uiso   1.00
C803   C     0.62194   0.54177   0.62990   0.00000  Uiso   1.00
C804   C     0.65903   0.57014   0.61866   0.00000  Uiso   1.00
C805   C     0.64569   0.61126   0.60972   0.00000  Uiso   1.00
C806   C     0.59550   0.62417   0.61277   0.00000  Uiso   1.00
C807   C     0.55844   0.59585   0.62417   0.00000  Uiso   1.00
H808   H     0.63268   0.51008   0.63721   0.00000  Uiso   1.00
H809   H     0.36481   0.56027   0.61713   0.00000  Uiso   1.00
H810   H     0.34109   0.63322   0.60108   0.00000  Uiso   1.00
H811   H     0.58545   0.65620   0.60680   0.00000  Uiso   1.00
H812   H     0.52017   0.60640   0.62796   0.00000  Uiso   1.00
C813   C     0.83328   0.42077   0.49981   0.00000  Uiso   1.00
C814   C     0.83339   0.57923   0.50019   0.00000  Uiso   1.00
C815   C     0.73458   0.50007   0.48782   0.00000  Uiso   1.00
C816   C     0.93209   0.49993   0.51218   0.00000  Uiso   1.00
C817   C     0.67911   0.50060   0.48127   0.00000  Uiso   1.00
C818   C     0.98756   0.49940   0.51873   0.00000  Uiso   1.00
C819   C     0.85541   0.35459   0.46553   0.00000  Uiso   1.00
C820   C     0.81126   0.64541   0.53447   0.00000  Uiso   1.00
C821   C     0.85532   0.64515   0.46565   0.00000  Uiso   1.00
C822   C     0.81135   0.35485   0.53435   0.00000  Uiso   1.00
C823   C     0.83345   0.62386   0.50026   0.00000  Uiso   1.00
C824   C     0.83322   0.37614   0.49974   0.00000  Uiso   1.00
C825   C     0.79988   0.47466   0.35242   0.00000  Uiso   1.00
C826   C     0.86679   0.52534   0.64758   0.00000  Uiso   1.00
C827   C     0.80020   0.47495   0.63648   0.00000  Uiso   1.00
C828   C     0.86646   0.52505   0.36352   0.00000  Uiso   1.00
Cu829  Cu    0.83333   0.50001   0.54689   0.00000  Uiso   1.00
Cu830  Cu    0.83333   0.49999   0.45311   0.00000  Uiso   1.00
H831   H     0.99204   0.50222   0.44553   0.00000  Uiso   1.00
H832   H     0.67463   0.49778   0.55447   0.00000  Uiso   1.00
H833   H     0.87340   0.37080   0.43925   0.00000  Uiso   1.00
H834   H     0.79326   0.62920   0.56075   0.00000  Uiso   1.00
H835   H     0.87289   0.62875   0.43915   0.00000  Uiso   1.00
H836   H     0.79378   0.37125   0.56085   0.00000  Uiso   1.00
H837   H     0.77380   0.45491   0.61346   0.00000  Uiso   1.00
H838   H     0.89286   0.54509   0.38654   0.00000  Uiso   1.00
N839   N     0.83335   0.50001   0.61736   0.00000  Uiso   1.00
N840   N     0.83332   0.49999   0.38264   0.00000  Uiso   1.00
O841   O     0.83333   0.43989   0.53958   0.00000  Uiso   1.00
O842   O     0.83334   0.56011   0.46042   0.00000  Uiso   1.00
O843   O     0.83333   0.43988   0.46039   0.00000  Uiso   1.00
O844   O     0.83334   0.56012   0.53961   0.00000  Uiso   1.00
O845   O     0.75828   0.50000   0.53046   0.00000  Uiso   1.00
O846   O     0.90839   0.50000   0.46954   0.00000  Uiso   1.00
O847   O     0.75828   0.49999   0.45127   0.00000  Uiso   1.00
O848   O     0.90839   0.50001   0.54873   0.00000  Uiso   1.00
C849   C     0.76247   0.44592   0.36907   0.00000  Uiso   1.00
C850   C     0.71140   0.45823   0.37010   0.00000  Uiso   1.00
C851   C     0.67430   0.42986   0.38134   0.00000  Uiso   1.00
C852   C     0.68764   0.38874   0.39028   0.00000  Uiso   1.00
C853   C     0.73783   0.37583   0.38723   0.00000  Uiso   1.00
C854   C     0.77489   0.40416   0.37584   0.00000  Uiso   1.00
H855   H     0.70065   0.48992   0.36279   0.00000  Uiso   1.00
H856   H     0.96853   0.43972   0.38287   0.00000  Uiso   1.00
H857   H     0.99225   0.36678   0.39892   0.00000  Uiso   1.00
H858   H     0.74788   0.34380   0.39320   0.00000  Uiso   1.00
H859   H     0.81317   0.39360   0.37204   0.00000  Uiso   1.00
C860   C     0.90419   0.55408   0.63093   0.00000  Uiso   1.00
C861   C     0.95527   0.54177   0.62990   0.00000  Uiso   1.00
C862   C     0.99236   0.57014   0.61866   0.00000  Uiso   1.00
C863   C     0.97903   0.61126   0.60972   0.00000  Uiso   1.00
C864   C     0.92883   0.62417   0.61277   0.00000  Uiso   1.00
C865   C     0.89178   0.59585   0.62417   0.00000  Uiso   1.00
H866   H     0.96602   0.51008   0.63721   0.00000  Uiso   1.00
H867   H     0.69814   0.56027   0.61713   0.00000  Uiso   1.00
H868   H     0.67442   0.63322   0.60108   0.00000  Uiso   1.00
H869   H     0.91878   0.65620   0.60680   0.00000  Uiso   1.00
H870   H     0.85350   0.60640   0.62796   0.00000  Uiso   1.00
C871   C     0.16661   0.75411   0.49981   0.00000  Uiso   1.00
C872   C     0.16672   0.91256   0.50019   0.00000  Uiso   1.00
C873   C     0.06791   0.83340   0.48782   0.00000  Uiso   1.00
C874   C     0.26542   0.83327   0.51218   0.00000  Uiso   1.00
C875   C     0.01245   0.83393   0.48127   0.00000  Uiso   1.00
C876   C     0.32089   0.83274   0.51873   0.00000  Uiso   1.00
C877   C     0.18874   0.68793   0.46553   0.00000  Uiso   1.00
C878   C     0.14459   0.97874   0.53447   0.00000  Uiso   1.00
C879   C     0.18865   0.97848   0.46565   0.00000  Uiso   1.00
C880   C     0.14468   0.68819   0.53435   0.00000  Uiso   1.00
C881   C     0.16678   0.95719   0.50026   0.00000  Uiso   1.00
C882   C     0.16655   0.70947   0.49974   0.00000  Uiso   1.00
C883   C     0.13321   0.80799   0.35242   0.00000  Uiso   1.00
C884   C     0.20012   0.85867   0.64758   0.00000  Uiso   1.00
C885   C     0.13354   0.80828   0.63648   0.00000  Uiso   1.00
C886   C     0.19980   0.85839   0.36352   0.00000  Uiso   1.00
Cu887  Cu    0.16667   0.83334   0.54689   0.00000  Uiso   1.00
Cu888  Cu    0.16667   0.83333   0.45311   0.00000  Uiso   1.00
H889   H     0.32537   0.83555   0.44553   0.00000  Uiso   1.00
H890   H     0.00796   0.83112   0.55447   0.00000  Uiso   1.00
H891   H     0.20674   0.70413   0.43925   0.00000  Uiso   1.00
H892   H     0.12660   0.96254   0.56075   0.00000  Uiso   1.00
H893   H     0.20622   0.96208   0.43915   0.00000  Uiso   1.00
H894   H     0.12711   0.70459   0.56085   0.00000  Uiso   1.00
H895   H     0.10714   0.78824   0.61346   0.00000  Uiso   1.00
H896   H     0.22620   0.87842   0.38654   0.00000  Uiso   1.00
N897   N     0.16668   0.83334   0.61736   0.00000  Uiso   1.00
N898   N     0.16665   0.83332   0.38264   0.00000  Uiso   1.00
O899   O     0.16666   0.77322   0.53958   0.00000  Uiso   1.00
O900   O     0.16667   0.89345   0.46042   0.00000  Uiso   1.00
O901   O     0.16666   0.77321   0.46039   0.00000  Uiso   1.00
O902   O     0.16667   0.89346   0.53961   0.00000  Uiso   1.00
O903   O     0.09161   0.83334   0.53046   0.00000  Uiso   1.00
O904   O     0.24172   0.83333   0.46954   0.00000  Uiso   1.00
O905   O     0.09161   0.83333   0.45127   0.00000  Uiso   1.00
O906   O     0.24172   0.83334   0.54873   0.00000  Uiso   1.00
C907   C     0.09581   0.77925   0.36907   0.00000  Uiso   1.00
C908   C     0.04473   0.79156   0.37010   0.00000  Uiso   1.00
C909   C     0.00764   0.76320   0.38134   0.00000  Uiso   1.00
C910   C     0.02097   0.72208   0.39028   0.00000  Uiso   1.00
C911   C     0.07117   0.70916   0.38723   0.00000  Uiso   1.00
C912   C     0.10822   0.73749   0.37584   0.00000  Uiso   1.00
H913   H     0.03398   0.82325   0.36279   0.00000  Uiso   1.00
H914   H     0.30186   0.77306   0.38287   0.00000  Uiso   1.00
H915   H     0.32558   0.70012   0.39892   0.00000  Uiso   1.00
H916   H     0.08122   0.67713   0.39320   0.00000  Uiso   1.00
H917   H     0.14650   0.72694   0.37204   0.00000  Uiso   1.00
C918   C     0.23753   0.88742   0.63093   0.00000  Uiso   1.00
C919   C     0.28860   0.87510   0.62990   0.00000  Uiso   1.00
C920   C     0.32570   0.90347   0.61866   0.00000  Uiso   1.00
C921   C     0.31236   0.94459   0.60972   0.00000  Uiso   1.00
C922   C     0.26217   0.95751   0.61277   0.00000  Uiso   1.00
C923   C     0.22511   0.92918   0.62417   0.00000  Uiso   1.00
H924   H     0.29935   0.84341   0.63721   0.00000  Uiso   1.00
H925   H     0.03147   0.89361   0.61713   0.00000  Uiso   1.00
H926   H     0.00775   0.96655   0.60108   0.00000  Uiso   1.00
H927   H     0.25212   0.98954   0.60680   0.00000  Uiso   1.00
H928   H     0.18684   0.93973   0.62796   0.00000  Uiso   1.00
C929   C     0.49994   0.75411   0.49981   0.00000  Uiso   1.00
C930   C     0.50006   0.91256   0.50019   0.00000  Uiso   1.00
C931   C     0.40125   0.83340   0.48782   0.00000  Uiso   1.00
C932   C     0.59875   0.83327   0.51218   0.00000  Uiso   1.00
C933   C     0.34578   0.83393   0.48127   0.00000  Uiso   1.00
C934   C     0.65422   0.83274   0.51873   0.00000  Uiso   1.00
C935   C     0.52207   0.68793   0.46553   0.00000  Uiso   1.00
C936   C     0.47793   0.97874   0.53447   0.00000  Uiso   1.00
C937   C     0.52199   0.97848   0.46565   0.00000  Uiso   1.00
C938   C     0.47802   0.68819   0.53435   0.00000  Uiso   1.00
C939   C     0.50011   0.95719   0.50026   0.00000  Uiso   1.00
C940   C     0.49989   0.70947   0.49974   0.00000  Uiso   1.00
C941   C     0.46655   0.80799   0.35242   0.00000  Uiso   1.00
C942   C     0.53345   0.85867   0.64758   0.00000  Uiso   1.00
C943   C     0.46687   0.80828   0.63648   0.00000  Uiso   1.00
C944   C     0.53313   0.85839   0.36352   0.00000  Uiso   1.00
Cu945  Cu    0.50000   0.83334   0.54689   0.00000  Uiso   1.00
Cu946  Cu    0.50000   0.83333   0.45311   0.00000  Uiso   1.00
H947   H     0.65870   0.83555   0.44553   0.00000  Uiso   1.00
H948   H     0.34130   0.83112   0.55447   0.00000  Uiso   1.00
H949   H     0.54007   0.70413   0.43925   0.00000  Uiso   1.00
H950   H     0.45993   0.96254   0.56075   0.00000  Uiso   1.00
H951   H     0.53955   0.96208   0.43915   0.00000  Uiso   1.00
H952   H     0.46045   0.70459   0.56085   0.00000  Uiso   1.00
H953   H     0.44047   0.78824   0.61346   0.00000  Uiso   1.00
H954   H     0.55953   0.87842   0.38654   0.00000  Uiso   1.00
N955   N     0.50001   0.83334   0.61736   0.00000  Uiso   1.00
N956   N     0.49999   0.83332   0.38264   0.00000  Uiso   1.00
O957   O     0.50000   0.77322   0.53958   0.00000  Uiso   1.00
O958   O     0.50000   0.89345   0.46042   0.00000  Uiso   1.00
O959   O     0.50000   0.77321   0.46039   0.00000  Uiso   1.00
O960   O     0.50000   0.89346   0.53961   0.00000  Uiso   1.00
O961   O     0.42495   0.83334   0.53046   0.00000  Uiso   1.00
O962   O     0.57505   0.83333   0.46954   0.00000  Uiso   1.00
O963   O     0.42494   0.83333   0.45127   0.00000  Uiso   1.00
O964   O     0.57506   0.83334   0.54873   0.00000  Uiso   1.00
C965   C     0.42914   0.77925   0.36907   0.00000  Uiso   1.00
C966   C     0.37806   0.79156   0.37010   0.00000  Uiso   1.00
C967   C     0.34097   0.76320   0.38134   0.00000  Uiso   1.00
C968   C     0.35431   0.72208   0.39028   0.00000  Uiso   1.00
C969   C     0.40450   0.70916   0.38723   0.00000  Uiso   1.00
C970   C     0.44156   0.73749   0.37584   0.00000  Uiso   1.00
H971   H     0.36732   0.82325   0.36279   0.00000  Uiso   1.00
H972   H     0.63519   0.77306   0.38287   0.00000  Uiso   1.00
H973   H     0.65892   0.70012   0.39892   0.00000  Uiso   1.00
H974   H     0.41455   0.67713   0.39320   0.00000  Uiso   1.00
H975   H     0.47983   0.72694   0.37204   0.00000  Uiso   1.00
C976   C     0.57086   0.88742   0.63093   0.00000  Uiso   1.00
C977   C     0.62194   0.87510   0.62990   0.00000  Uiso   1.00
C978   C     0.65903   0.90347   0.61866   0.00000  Uiso   1.00
C979   C     0.64569   0.94459   0.60972   0.00000  Uiso   1.00
C980   C     0.59550   0.95751   0.61277   0.00000  Uiso   1.00
C981   C     0.55844   0.92918   0.62417   0.00000  Uiso   1.00
H982   H     0.63268   0.84341   0.63721   0.00000  Uiso   1.00
H983   H     0.36481   0.89361   0.61713   0.00000  Uiso   1.00
H984   H     0.34109   0.96655   0.60108   0.00000  Uiso   1.00
H985   H     0.58545   0.98954   0.60680   0.00000  Uiso   1.00
H986   H     0.52017   0.93973   0.62796   0.00000  Uiso   1.00
C987   C     0.83328   0.75411   0.49981   0.00000  Uiso   1.00
C988   C     0.83339   0.91256   0.50019   0.00000  Uiso   1.00
C989   C     0.73458   0.83340   0.48782   0.00000  Uiso   1.00
C990   C     0.93209   0.83327   0.51218   0.00000  Uiso   1.00
C991   C     0.67911   0.83393   0.48127   0.00000  Uiso   1.00
C992   C     0.98756   0.83274   0.51873   0.00000  Uiso   1.00
C993   C     0.85541   0.68793   0.46553   0.00000  Uiso   1.00
C994   C     0.81126   0.97874   0.53447   0.00000  Uiso   1.00
C995   C     0.85532   0.97848   0.46565   0.00000  Uiso   1.00
C996   C     0.81135   0.68819   0.53435   0.00000  Uiso   1.00
C997   C     0.83345   0.95719   0.50026   0.00000  Uiso   1.00
C998   C     0.83322   0.70947   0.49974   0.00000  Uiso   1.00
C999   C     0.79988   0.80799   0.35242   0.00000  Uiso   1.00
C1000  C     0.86679   0.85867   0.64758   0.00000  Uiso   1.00
C1001  C     0.80020   0.80828   0.63648   0.00000  Uiso   1.00
C1002  C     0.86646   0.85839   0.36352   0.00000  Uiso   1.00
Cu1003 Cu    0.83333   0.83334   0.54689   0.00000  Uiso   1.00
Cu1004 Cu    0.83333   0.83333   0.45311   0.00000  Uiso   1.00
H1005  H     0.99204   0.83555   0.44553   0.00000  Uiso   1.00
H1006  H     0.67463   0.83112   0.55447   0.00000  Uiso   1.00
H1007  H     0.87340   0.70413   0.43925   0.00000  Uiso   1.00
H1008  H     0.79326   0.96254   0.56075   0.00000  Uiso   1.00
H1009  H     0.87289   0.96208   0.43915   0.00000  Uiso   1.00
H1010  H     0.79378   0.70459   0.56085   0.00000  Uiso   1.00
H1011  H     0.77380   0.78824   0.61346   0.00000  Uiso   1.00
H1012  H     0.89286   0.87842   0.38654   0.00000  Uiso   1.00
N1013  N     0.83335   0.83334   0.61736   0.00000  Uiso   1.00
N1014  N     0.83332   0.83332   0.38264   0.00000  Uiso   1.00
O1015  O     0.83333   0.77322   0.53958   0.00000  Uiso   1.00
O1016  O     0.83334   0.89345   0.46042   0.00000  Uiso   1.00
O1017  O     0.83333   0.77321   0.46039   0.00000  Uiso   1.00
O1018  O     0.83334   0.89346   0.53961   0.00000  Uiso   1.00
O1019  O     0.75828   0.83334   0.53046   0.00000  Uiso   1.00
O1020  O     0.90839   0.83333   0.46954   0.00000  Uiso   1.00
O1021  O     0.75828   0.83333   0.45127   0.00000  Uiso   1.00
O1022  O     0.90839   0.83334   0.54873   0.00000  Uiso   1.00
C1023  C     0.76247   0.77925   0.36907   0.00000  Uiso   1.00
C1024  C     0.71140   0.79156   0.37010   0.00000  Uiso   1.00
C1025  C     0.67430   0.76320   0.38134   0.00000  Uiso   1.00
C1026  C     0.68764   0.72208   0.39028   0.00000  Uiso   1.00
C1027  C     0.73783   0.70916   0.38723   0.00000  Uiso   1.00
C1028  C     0.77489   0.73749   0.37584   0.00000  Uiso   1.00
H1029  H     0.70065   0.82325   0.36279   0.00000  Uiso   1.00
H1030  H     0.96853   0.77306   0.38287   0.00000  Uiso   1.00
H1031  H     0.99225   0.70012   0.39892   0.00000  Uiso   1.00
H1032  H     0.74788   0.67713   0.39320   0.00000  Uiso   1.00
H1033  H     0.81317   0.72694   0.37204   0.00000  Uiso   1.00
C1034  C     0.90419   0.88742   0.63093   0.00000  Uiso   1.00
C1035  C     0.95527   0.87510   0.62990   0.00000  Uiso   1.00
C1036  C     0.99236   0.90347   0.61866   0.00000  Uiso   1.00
C1037  C     0.97903   0.94459   0.60972   0.00000  Uiso   1.00
C1038  C     0.92883   0.95751   0.61277   0.00000  Uiso   1.00
C1039  C     0.89178   0.92918   0.62417   0.00000  Uiso   1.00
H1040  H     0.96602   0.84341   0.63721   0.00000  Uiso   1.00
H1041  H     0.69814   0.89361   0.61713   0.00000  Uiso   1.00
H1042  H     0.67442   0.96655   0.60108   0.00000  Uiso   1.00
H1043  H     0.91878   0.98954   0.60680   0.00000  Uiso   1.00
H1044  H     0.85350   0.93973   0.62796   0.00000  Uiso   1.00
C1045  C     0.16661   0.08744   0.83315   0.00000  Uiso   1.00
C1046  C     0.16672   0.24589   0.83352   0.00000  Uiso   1.00
C1047  C     0.06791   0.16674   0.82115   0.00000  Uiso   1.00
C1048  C     0.26542   0.16660   0.84552   0.00000  Uiso   1.00
C1049  C     0.01245   0.16726   0.81460   0.00000  Uiso   1.00
C1050  C     0.32089   0.16607   0.85206   0.00000  Uiso   1.00
C1051  C     0.18874   0.02126   0.79886   0.00000  Uiso   1.00
C1052  C     0.14459   0.31207   0.86780   0.00000  Uiso   1.00
C1053  C     0.18865   0.31181   0.79898   0.00000  Uiso   1.00
C1054  C     0.14468   0.02152   0.86769   0.00000  Uiso   1.00
C1055  C     0.16678   0.29053   0.83359   0.00000  Uiso   1.00
C1056  C     0.16655   0.04281   0.83308   0.00000  Uiso   1.00
C1057  C     0.13321   0.14133   0.68575   0.00000  Uiso   1.00
C1058  C     0.20012   0.19201   0.98091   0.00000  Uiso   1.00
C1059  C     0.13354   0.14161   0.96982   0.00000  Uiso   1.00
C1060  C     0.19980   0.19172   0.69685   0.00000  Uiso   1.00
Cu1061 Cu    0.16667   0.16667   0.88022   0.00000  Uiso   1.00
Cu1062 Cu    0.16667   0.16666   0.78645   0.00000  Uiso   1.00
H1063  H     0.32537   0.16888   0.77887   0.00000  Uiso   1.00
H1064  H     0.00796   0.16445   0.88780   0.00000  Uiso   1.00
H1065  H     0.20674   0.03746   0.77258   0.00000  Uiso   1.00
H1066  H     0.12660   0.29587   0.89408   0.00000  Uiso   1.00
H1067  H     0.20622   0.29541   0.77249   0.00000  Uiso   1.00
H1068  H     0.12711   0.03792   0.89418   0.00000  Uiso   1.00
H1069  H     0.10714   0.12158   0.94679   0.00000  Uiso   1.00
H1070  H     0.22620   0.21176   0.71988   0.00000  Uiso   1.00
N1071  N     0.16668   0.16668   0.95069   0.00000  Uiso   1.00
N1072  N     0.16665   0.16666   0.71597   0.00000  Uiso   1.00
O1073  O     0.16666   0.10655   0.87291   0.00000  Uiso   1.00
O1074  O     0.16667   0.22678   0.79375   0.00000  Uiso   1.00
O1075  O     0.16666   0.10654   0.79372   0.00000  Uiso   1.00
O1076  O     0.16667   0.22679   0.87294   0.00000  Uiso   1.00
O1077  O     0.09161   0.16667   0.86379   0.00000  Uiso   1.00
O1078  O     0.24172   0.16666   0.80288   0.00000  Uiso   1.00
O1079  O     0.09161   0.16666   0.78460   0.00000  Uiso   1.00
O1080  O     0.24172   0.16667   0.88207   0.00000  Uiso   1.00
C1081  C     0.09581   0.11258   0.70240   0.00000  Uiso   1.00
C1082  C     0.04473   0.12490   0.70343   0.00000  Uiso   1.00
C1083  C     0.00764   0.09653   0.71467   0.00000  Uiso   1.00
C1084  C     0.02097   0.05541   0.72361   0.00000  Uiso   1.00
C1085  C     0.07117   0.04250   0.72057   0.00000  Uiso   1.00
C1086  C     0.10822   0.07082   0.70917   0.00000  Uiso   1.00
H1087  H     0.03398   0.15659   0.69612   0.00000  Uiso   1.00
H1088  H     0.30186   0.10639   0.71621   0.00000  Uiso   1.00
H1089  H     0.32558   0.03345   0.73226   0.00000  Uiso   1.00
H1090  H     0.08122   0.01046   0.72654   0.00000  Uiso   1.00
H1091  H     0.14650   0.06027   0.70537   0.00000  Uiso   1.00
C1092  C     0.23753   0.22075   0.96426   0.00000  Uiso   1.00
C1093  C     0.28860   0.20844   0.96323   0.00000  Uiso   1.00
C1094  C     0.32570   0.23680   0.95200   0.00000  Uiso   1.00
C1095  C     0.31236   0.27792   0.94305   0.00000  Uiso   1.00
C1096  C     0.26217   0.29084   0.94610   0.00000  Uiso   1.00
C1097  C     0.22511   0.26251   0.95750   0.00000  Uiso   1.00
H1098  H     0.29935   0.17675   0.97054   0.00000  Uiso   1.00
H1099  H     0.03147   0.22694   0.95046   0.00000  Uiso   1.00
H1100  H     0.00775   0.29988   0.93441   0.00000  Uiso   1.00
H1101  H     0.25212   0.32287   0.94013   0.00000  Uiso   1.00
H1102  H     0.18684   0.27306   0.96130   0.00000  Uiso   1.00
C1103  C     0.49994   0.08744   0.83315   0.00000  Uiso   1.00
C1104  C     0.50006   0.24589   0.83352   0.00000  Uiso   1.00
C1105  C     0.40125   0.16674   0.82115   0.00000  Uiso   1.00
C1106  C     0.59875   0.16660   0.84552   0.00000  Uiso   1.00
C1107  C     0.34578   0.16726   0.81460   0.00000  Uiso   1.00
C1108  C     0.65422   0.16607   0.85206   0.00000  Uiso   1.00
C1109  C     0.52207   0.02126   0.79886   0.00000  Uiso   1.00
C1110  C     0.47793   0.31207   0.86780   0.00000  Uiso   1.00
C1111  C     0.52199   0.31181   0.79898   0.00000  Uiso   1.00
C1112  C     0.47802   0.02152   0.86769   0.00000  Uiso   1.00
C1113  C     0.50011   0.29053   0.83359   0.00000  Uiso   1.00
C1114  C     0.49989   0.04281   0.83308   0.00000  Uiso   1.00
C1115  C     0.46655   0.14133   0.68575   0.00000  Uiso   1.00
C1116  C     0.53345   0.19201   0.98091   0.00000  Uiso   1.00
C1117  C     0.46687   0.14161   0.96982   0.00000  Uiso   1.00
C1118  C     0.53313   0.19172   0.69685   0.00000  Uiso   1.00
Cu1119 Cu    0.50000   0.16667   0.88022   0.00000  Uiso   1.00
Cu1120 Cu    0.50000   0.16666   0.78645   0.00000  Uiso   1.00
H1121  H     0.65870   0.16888   0.77887   0.00000  Uiso   1.00
H1122  H     0.34130   0.16445   0.88780   0.00000  Uiso   1.00
H1123  H     0.54007   0.03746   0.77258   0.00000  Uiso   1.00
H1124  H     0.45993   0.29587   0.89408   0.00000  Uiso   1.00
H1125  H     0.53955   0.29541   0.77249   0.00000  Uiso   1.00
H1126  H     0.46045   0.03792   0.89418   0.00000  Uiso   1.00
H1127  H     0.44047   0.12158   0.94679   0.00000  Uiso   1.00
H1128  H     0.55953   0.21176   0.71988   0.00000  Uiso   1.00
N1129  N     0.50001   0.16668   0.95069   0.00000  Uiso   1.00
N1130  N     0.49999   0.16666   0.71597   0.00000  Uiso   1.00
O1131  O     0.50000   0.10655   0.87291   0.00000  Uiso   1.00
O1132  O     0.50000   0.22678   0.79375   0.00000  Uiso   1.00
O1133  O     0.50000   0.10654   0.79372   0.00000  Uiso   1.00
O1134  O     0.50000   0.22679   0.87294   0.00000  Uiso   1.00
O1135  O     0.42495   0.16667   0.86379   0.00000  Uiso   1.00
O1136  O     0.57505   0.16666   0.80288   0.00000  Uiso   1.00
O1137  O     0.42494   0.16666   0.78460   0.00000  Uiso   1.00
O1138  O     0.57506   0.16667   0.88207   0.00000  Uiso   1.00
C1139  C     0.42914   0.11258   0.70240   0.00000  Uiso   1.00
C1140  C     0.37806   0.12490   0.70343   0.00000  Uiso   1.00
C1141  C     0.34097   0.09653   0.71467   0.00000  Uiso   1.00
C1142  C     0.35431   0.05541   0.72361   0.00000  Uiso   1.00
C1143  C     0.40450   0.04250   0.72057   0.00000  Uiso   1.00
C1144  C     0.44156   0.07082   0.70917   0.00000  Uiso   1.00
H1145  H     0.36732   0.15659   0.69612   0.00000  Uiso   1.00
H1146  H     0.63519   0.10639   0.71621   0.00000  Uiso   1.00
H1147  H     0.65892   0.03345   0.73226   0.00000  Uiso   1.00
H1148  H     0.41455   0.01046   0.72654   0.00000  Uiso   1.00
H1149  H     0.47983   0.06027   0.70537   0.00000  Uiso   1.00
C1150  C     0.57086   0.22075   0.96426   0.00000  Uiso   1.00
C1151  C     0.62194   0.20844   0.96323   0.00000  Uiso   1.00
C1152  C     0.65903   0.23680   0.95200   0.00000  Uiso   1.00
C1153  C     0.64569   0.27792   0.94305   0.00000  Uiso   1.00
C1154  C     0.59550   0.29084   0.94610   0.00000  Uiso   1.00
C1155  C     0.55844   0.26251   0.95750   0.00000  Uiso   1.00
H1156  H     0.63268   0.17675   0.97054   0.00000  Uiso   1.00
H1157  H     0.36481   0.22694   0.95046   0.00000  Uiso   1.00
H1158  H     0.34109   0.29988   0.93441   0.00000  Uiso   1.00
H1159  H     0.58545   0.32287   0.94013   0.00000  Uiso   1.00
H1160  H     0.52017   0.27306   0.96130   0.00000  Uiso   1.00
C1161  C     0.83328   0.08744   0.83315   0.00000  Uiso   1.00
C1162  C     0.83339   0.24589   0.83352   0.00000  Uiso   1.00
C1163  C     0.73458   0.16674   0.82115   0.00000  Uiso   1.00
C1164  C     0.93209   0.16660   0.84552   0.00000  Uiso   1.00
C1165  C     0.67911   0.16726   0.81460   0.00000  Uiso   1.00
C1166  C     0.98756   0.16607   0.85206   0.00000  Uiso   1.00
C1167  C     0.85541   0.02126   0.79886   0.00000  Uiso   1.00
C1168  C     0.81126   0.31207   0.86780   0.00000  Uiso   1.00
C1169  C     0.85532   0.31181   0.79898   0.00000  Uiso   1.00
C1170  C     0.81135   0.02152   0.86769   0.00000  Uiso   1.00
C1171  C     0.83345   0.29053   0.83359   0.00000  Uiso   1.00
C1172  C     0.83322   0.04281   0.83308   0.00000  Uiso   1.00
C1173  C     0.79988   0.14133   0.68575   0.00000  Uiso   1.00
C1174  C     0.86679   0.19201   0.98091   0.00000  Uiso   1.00
C1175  C     0.80020   0.14161   0.96982   0.00000  Uiso   1.00
C1176  C     0.86646   0.19172   0.69685   0.00000  Uiso   1.00
Cu1177 Cu    0.83333   0.16667   0.88022   0.00000  Uiso   1.00
Cu1178 Cu    0.83333   0.16666   0.78645   0.00000  Uiso   1.00
H1179  H     0.99204   0.16888   0.77887   0.00000  Uiso   1.00
H1180  H     0.67463   0.16445   0.88780   0.00000  Uiso   1.00
H1181  H     0.87340   0.03746   0.77258   0.00000  Uiso   1.00
H1182  H     0.79326   0.29587   0.89408   0.00000  Uiso   1.00
H1183  H     0.87289   0.29541   0.77249   0.00000  Uiso   1.00
H1184  H     0.79378   0.03792   0.89418   0.00000  Uiso   1.00
H1185  H     0.77380   0.12158   0.94679   0.00000  Uiso   1.00
H1186  H     0.89286   0.21176   0.71988   0.00000  Uiso   1.00
N1187  N     0.83335   0.16668   0.95069   0.00000  Uiso   1.00
N1188  N     0.83332   0.16666   0.71597   0.00000  Uiso   1.00
O1189  O     0.83333   0.10655   0.87291   0.00000  Uiso   1.00
O1190  O     0.83334   0.22678   0.79375   0.00000  Uiso   1.00
O1191  O     0.83333   0.10654   0.79372   0.00000  Uiso   1.00
O1192  O     0.83334   0.22679   0.87294   0.00000  Uiso   1.00
O1193  O     0.75828   0.16667   0.86379   0.00000  Uiso   1.00
O1194  O     0.90839   0.16666   0.80288   0.00000  Uiso   1.00
O1195  O     0.75828   0.16666   0.78460   0.00000  Uiso   1.00
O1196  O     0.90839   0.16667   0.88207   0.00000  Uiso   1.00
C1197  C     0.76247   0.11258   0.70240   0.00000  Uiso   1.00
C1198  C     0.71140   0.12490   0.70343   0.00000  Uiso   1.00
C1199  C     0.67430   0.09653   0.71467   0.00000  Uiso   1.00
C1200  C     0.68764   0.05541   0.72361   0.00000  Uiso   1.00
C1201  C     0.73783   0.04250   0.72057   0.00000  Uiso   1.00
C1202  C     0.77489   0.07082   0.70917   0.00000  Uiso   1.00
H1203  H     0.70065   0.15659   0.69612   0.00000  Uiso   1.00
H1204  H     0.96853   0.10639   0.71621   0.00000  Uiso   1.00
H1205  H     0.99225   0.03345   0.73226   0.00000  Uiso   1.00
H1206  H     0.74788   0.01046   0.72654   0.00000  Uiso   1.00
H1207  H     0.81317   0.06027   0.70537   0.00000  Uiso   1.00
C1208  C     0.90419   0.22075   0.96426   0.00000  Uiso   1.00
C1209  C     0.95527   0.20844   0.96323   0.00000  Uiso   1.00
C1210  C     0.99236   0.23680   0.95200   0.00000  Uiso   1.00
C1211  C     0.97903   0.27792   0.94305   0.00000  Uiso   1.00
C1212  C     0.92883   0.29084   0.94610   0.00000  Uiso   1.00
C1213  C     0.89178   0.26251   0.95750   0.00000  Uiso   1.00
H1214  H     0.96602   0.17675   0.97054   0.00000  Uiso   1.00
H1215  H     0.69814   0.22694   0.95046   0.00000  Uiso   1.00
H1216  H     0.67442   0.29988   0.93441   0.00000  Uiso   1.00
H1217  H     0.91878   0.32287   0.94013   0.00000  Uiso   1.00
H1218  H     0.85350   0.27306   0.96130   0.00000  Uiso   1.00
C1219  C     0.16661   0.42077   0.83315   0.00000  Uiso   1.00
C1220  C     0.16672   0.57923   0.83352   0.00000  Uiso   1.00
C1221  C     0.06791   0.50007   0.82115   0.00000  Uiso   1.00
C1222  C     0.26542   0.49993   0.84552   0.00000  Uiso   1.00
C1223  C     0.01245   0.50060   0.81460   0.00000  Uiso   1.00
C1224  C     0.32089   0.49940   0.85206   0.00000  Uiso   1.00
C1225  C     0.18874   0.35459   0.79886   0.00000  Uiso   1.00
C1226  C     0.14459   0.64541   0.86780   0.00000  Uiso   1.00
C1227  C     0.18865   0.64515   0.79898   0.00000  Uiso   1.00
C1228  C     0.14468   0.35485   0.86769   0.00000  Uiso   1.00
C1229  C     0.16678   0.62386   0.83359   0.00000  Uiso   1.00
C1230  C     0.16655   0.37614   0.83308   0.00000  Uiso   1.00
C1231  C     0.13321   0.47466   0.68575   0.00000  Uiso   1.00
C1232  C     0.20012   0.52534   0.98091   0.00000  Uiso   1.00
C1233  C     0.13354   0.47495   0.96982   0.00000  Uiso   1.00
C1234  C     0.19980   0.52505   0.69685   0.00000  Uiso   1.00
Cu1235 Cu    0.16667   0.50001   0.88022   0.00000  Uiso   1.00
Cu1236 Cu    0.16667   0.49999   0.78645   0.00000  Uiso   1.00
H1237  H     0.32537   0.50222   0.77887   0.00000  Uiso   1.00
H1238  H     0.00796   0.49778   0.88780   0.00000  Uiso   1.00
H1239  H     0.20674   0.37080   0.77258   0.00000  Uiso   1.00
H1240  H     0.12660   0.62920   0.89408   0.00000  Uiso   1.00
H1241  H     0.20622   0.62875   0.77249   0.00000  Uiso   1.00
H1242  H     0.12711   0.37125   0.89418   0.00000  Uiso   1.00
H1243  H     0.10714   0.45491   0.94679   0.00000  Uiso   1.00
H1244  H     0.22620   0.54509   0.71988   0.00000  Uiso   1.00
N1245  N     0.16668   0.50001   0.95069   0.00000  Uiso   1.00
N1246  N     0.16665   0.49999   0.71597   0.00000  Uiso   1.00
O1247  O     0.16666   0.43989   0.87291   0.00000  Uiso   1.00
O1248  O     0.16667   0.56011   0.79375   0.00000  Uiso   1.00
O1249  O     0.16666   0.43988   0.79372   0.00000  Uiso   1.00
O1250  O     0.16667   0.56012   0.87294   0.00000  Uiso   1.00
O1251  O     0.09161   0.50000   0.86379   0.00000  Uiso   1.00
O1252  O     0.24172   0.50000   0.80288   0.00000  Uiso   1.00
O1253  O     0.09161   0.49999   0.78460   0.00000  Uiso   1.00
O1254  O     0.24172   0.50001   0.88207   0.00000  Uiso   1.00
C1255  C     0.09581   0.44592   0.70240   0.00000  Uiso   1.00
C1256  C     0.04473   0.45823   0.70343   0.00000  Uiso   1.00
C1257  C     0.00764   0.42986   0.71467   0.00000  Uiso   1.00
C1258  C     0.02097   0.38874   0.72361   0.00000  Uiso   1.00
C1259  C     0.07117   0.37583   0.72057   0.00000  Uiso   1.00
C1260  C     0.10822   0.40416   0.70917   0.00000  Uiso   1.00
H1261  H     0.03398   0.48992   0.69612   0.00000  Uiso   1.00
H1262  H     0.30186   0.43972   0.71621   0.00000  Uiso   1.00
H1263  H     0.32558   0.36678   0.73226   0.00000  Uiso   1.00
H1264  H     0.08122   0.34380   0.72654   0.00000  Uiso   1.00
H1265  H     0.14650   0.39360   0.70537   0.00000  Uiso   1.00
C1266  C     0.23753   0.55408   0.96426   0.00000  Uiso   1.00
C1267  C     0.28860   0.54177   0.96323   0.00000  Uiso   1.00
C1268  C     0.32570   0.57014   0.95200   0.00000  Uiso   1.00
C1269  C     0.31236   0.61126   0.94305   0.00000  Uiso   1.00
C1270  C     0.26217   0.62417   0.94610   0.00000  Uiso   1.00
C1271  C     0.22511   0.59585   0.95750   0.00000  Uiso   1.00
H1272  H     0.29935   0.51008   0.97054   0.00000  Uiso   1.00
H1273  H     0.03147   0.56027   0.95046   0.00000  Uiso   1.00
H1274  H     0.00775   0.63322   0.93441   0.00000  Uiso   1.00
H1275  H     0.25212   0.65620   0.94013   0.00000  Uiso   1.00
H1276  H     0.18684   0.60640   0.96130   0.00000  Uiso   1.00
C1277  C     0.49994   0.42077   0.83315   0.00000  Uiso   1.00
C1278  C     0.50006   0.57923   0.83352   0.00000  Uiso   1.00
C1279  C     0.40125   0.50007   0.82115   0.00000  Uiso   1.00
C1280  C     0.59875   0.49993   0.84552   0.00000  Uiso   1.00
C1281  C     0.34578   0.50060   0.81460   0.00000  Uiso   1.00
C1282  C     0.65422   0.49940   0.85206   0.00000  Uiso   1.00
C1283  C     0.52207   0.35459   0.79886   0.00000  Uiso   1.00
C1284  C     0.47793   0.64541   0.86780   0.00000  Uiso   1.00
C1285  C     0.52199   0.64515   0.79898   0.00000  Uiso   1.00
C1286  C     0.47802   0.35485   0.86769   0.00000  Uiso   1.00
C1287  C     0.50011   0.62386   0.83359   0.00000  Uiso   1.00
C1288  C     0.49989   0.37614   0.83308   0.00000  Uiso   1.00
C1289  C     0.46655   0.47466   0.68575   0.00000  Uiso   1.00
C1290  C     0.53345   0.52534   0.98091   0.00000  Uiso   1.00
C1291  C     0.46687   0.47495   0.96982   0.00000  Uiso   1.00
C1292  C     0.53313   0.52505   0.69685   0.00000  Uiso   1.00
Cu1293 Cu    0.50000   0.50001   0.88022   0.00000  Uiso   1.00
Cu1294 Cu    0.50000   0.49999   0.78645   0.00000  Uiso   1.00
H1295  H     0.65870   0.50222   0.77887   0.00000  Uiso   1.00
H1296  H     0.34130   0.49778   0.88780   0.00000  Uiso   1.00
H1297  H     0.54007   0.37080   0.77258   0.00000  Uiso   1.00
H1298  H     0.45993   0.62920   0.89408   0.00000  Uiso   1.00
H1299  H     0.53955   0.62875   0.77249   0.00000  Uiso   1.00
H1300  H     0.46045   0.37125   0.89418   0.00000  Uiso   1.00
H1301  H     0.44047   0.45491   0.94679   0.00000  Uiso   1.00
H1302  H     0.55953   0.54509   0.71988   0.00000  Uiso   1.00
N1303  N     0.50001   0.50001   0.95069   0.00000  Uiso   1.00
N1304  N     0.49999   0.49999   0.71597   0.00000  Uiso   1.00
O1305  O     0.50000   0.43989   0.87291   0.00000  Uiso   1.00
O1306  O     0.50000   0.56011   0.79375   0.00000  Uiso   1.00
O1307  O     0.50000   0.43988   0.79372   0.00000  Uiso   1.00
O1308  O     0.50000   0.56012   0.87294   0.00000  Uiso   1.00
O1309  O     0.42495   0.50000   0.86379   0.00000  Uiso   1.00
O1310  O     0.57505   0.50000   0.80288   0.00000  Uiso   1.00
O1311  O     0.42494   0.49999   0.78460   0.00000  Uiso   1.00
O1312  O     0.57506   0.50001   0.88207   0.00000  Uiso   1.00
C1313  C     0.42914   0.44592   0.70240   0.00000  Uiso   1.00
C1314  C     0.37806   0.45823   0.70343   0.00000  Uiso   1.00
C1315  C     0.34097   0.42986   0.71467   0.00000  Uiso   1.00
C1316  C     0.35431   0.38874   0.72361   0.00000  Uiso   1.00
C1317  C     0.40450   0.37583   0.72057   0.00000  Uiso   1.00
C1318  C     0.44156   0.40416   0.70917   0.00000  Uiso   1.00
H1319  H     0.36732   0.48992   0.69612   0.00000  Uiso   1.00
H1320  H     0.63519   0.43972   0.71621   0.00000  Uiso   1.00
H1321  H     0.65892   0.36678   0.73226   0.00000  Uiso   1.00
H1322  H     0.41455   0.34380   0.72654   0.00000  Uiso   1.00
H1323  H     0.47983   0.39360   0.70537   0.00000  Uiso   1.00
C1324  C     0.57086   0.55408   0.96426   0.00000  Uiso   1.00
C1325  C     0.62194   0.54177   0.96323   0.00000  Uiso   1.00
C1326  C     0.65903   0.57014   0.95200   0.00000  Uiso   1.00
C1327  C     0.64569   0.61126   0.94305   0.00000  Uiso   1.00
C1328  C     0.59550   0.62417   0.94610   0.00000  Uiso   1.00
C1329  C     0.55844   0.59585   0.95750   0.00000  Uiso   1.00
H1330  H     0.63268   0.51008   0.97054   0.00000  Uiso   1.00
H1331  H     0.36481   0.56027   0.95046   0.00000  Uiso   1.00
H1332  H     0.34109   0.63322   0.93441   0.00000  Uiso   1.00
H1333  H     0.58545   0.65620   0.94013   0.00000  Uiso   1.00
H1334  H     0.52017   0.60640   0.96130   0.00000  Uiso   1.00
C1335  C     0.83328   0.42077   0.83315   0.00000  Uiso   1.00
C1336  C     0.83339   0.57923   0.83352   0.00000  Uiso   1.00
C1337  C     0.73458   0.50007   0.82115   0.00000  Uiso   1.00
C1338  C     0.93209   0.49993   0.84552   0.00000  Uiso   1.00
C1339  C     0.67911   0.50060   0.81460   0.00000  Uiso   1.00
C1340  C     0.98756   0.49940   0.85206   0.00000  Uiso   1.00
C1341  C     0.85541   0.35459   0.79886   0.00000  Uiso   1.00
C1342  C     0.81126   0.64541   0.86780   0.00000  Uiso   1.00
C1343  C     0.85532   0.64515   0.79898   0.00000  Uiso   1.00
C1344  C     0.81135   0.35485   0.86769   0.00000  Uiso   1.00
C1345  C     0.83345   0.62386   0.83359   0.00000  Uiso   1.00
C1346  C     0.83322   0.37614   0.83308   0.00000  Uiso   1.00
C1347  C     0.79988   0.47466   0.68575   0.00000  Uiso   1.00
C1348  C     0.86679   0.52534   0.98091   0.00000  Uiso   1.00
C1349  C     0.80020   0.47495   0.96982   0.00000  Uiso   1.00
C1350  C     0.86646   0.52505   0.69685   0.00000  Uiso   1.00
Cu1351 Cu    0.83333   0.50001   0.88022   0.00000  Uiso   1.00
Cu1352 Cu    0.83333   0.49999   0.78645   0.00000  Uiso   1.00
H1353  H     0.99204   0.50222   0.77887   0.00000  Uiso   1.00
H1354  H     0.67463   0.49778   0.88780   0.00000  Uiso   1.00
H1355  H     0.87340   0.37080   0.77258   0.00000  Uiso   1.00
H1356  H     0.79326   0.62920   0.89408   0.00000  Uiso   1.00
H1357  H     0.87289   0.62875   0.77249   0.00000  Uiso   1.00
H1358  H     0.79378   0.37125   0.89418   0.00000  Uiso   1.00
H1359  H     0.77380   0.45491   0.94679   0.00000  Uiso   1.00
H1360  H     0.89286   0.54509   0.71988   0.00000  Uiso   1.00
N1361  N     0.83335   0.50001   0.95069   0.00000  Uiso   1.00
N1362  N     0.83332   0.49999   0.71597   0.00000  Uiso   1.00
O1363  O     0.83333   0.43989   0.87291   0.00000  Uiso   1.00
O1364  O     0.83334   0.56011   0.79375   0.00000  Uiso   1.00
O1365  O     0.83333   0.43988   0.79372   0.00000  Uiso   1.00
O1366  O     0.83334   0.56012   0.87294   0.00000  Uiso   1.00
O1367  O     0.75828   0.50000   0.86379   0.00000  Uiso   1.00
O1368  O     0.90839   0.50000   0.80288   0.00000  Uiso   1.00
O1369  O     0.75828   0.49999   0.78460   0.00000  Uiso   1.00
O1370  O     0.90839   0.50001   0.88207   0.00000  Uiso   1.00
C1371  C     0.76247   0.44592   0.70240   0.00000  Uiso   1.00
C1372  C     0.71140   0.45823   0.70343   0.00000  Uiso   1.00
C1373  C     0.67430   0.42986   0.71467   0.00000  Uiso   1.00
C1374  C     0.68764   0.38874   0.72361   0.00000  Uiso   1.00
C1375  C     0.73783   0.37583   0.72057   0.00000  Uiso   1.00
C1376  C     0.77489   0.40416   0.70917   0.00000  Uiso   1.00
H1377  H     0.70065   0.48992   0.69612   0.00000  Uiso   1.00
H1378  H     0.96853   0.43972   0.71621   0.00000  Uiso   1.00
H1379  H     0.99225   0.36678   0.73226   0.00000  Uiso   1.00
H1380  H     0.74788   0.34380   0.72654   0.00000  Uiso   1.00
H1381  H     0.81317   0.39360   0.70537   0.00000  Uiso   1.00
C1382  C     0.90419   0.55408   0.96426   0.00000  Uiso   1.00
C1383  C     0.95527   0.54177   0.96323   0.00000  Uiso   1.00
C1384  C     0.99236   0.57014   0.95200   0.00000  Uiso   1.00
C1385  C     0.97903   0.61126   0.94305   0.00000  Uiso   1.00
C1386  C     0.92883   0.62417   0.94610   0.00000  Uiso   1.00
C1387  C     0.89178   0.59585   0.95750   0.00000  Uiso   1.00
H1388  H     0.96602   0.51008   0.97054   0.00000  Uiso   1.00
H1389  H     0.69814   0.56027   0.95046   0.00000  Uiso   1.00
H1390  H     0.67442   0.63322   0.93441   0.00000  Uiso   1.00
H1391  H     0.91878   0.65620   0.94013   0.00000  Uiso   1.00
H1392  H     0.85350   0.60640   0.96130   0.00000  Uiso   1.00
C1393  C     0.16661   0.75411   0.83315   0.00000  Uiso   1.00
C1394  C     0.16672   0.91256   0.83352   0.00000  Uiso   1.00
C1395  C     0.06791   0.83340   0.82115   0.00000  Uiso   1.00
C1396  C     0.26542   0.83327   0.84552   0.00000  Uiso   1.00
C1397  C     0.01245   0.83393   0.81460   0.00000  Uiso   1.00
C1398  C     0.32089   0.83274   0.85206   0.00000  Uiso   1.00
C1399  C     0.18874   0.68793   0.79886   0.00000  Uiso   1.00
C1400  C     0.14459   0.97874   0.86780   0.00000  Uiso   1.00
C1401  C     0.18865   0.97848   0.79898   0.00000  Uiso   1.00
C1402  C     0.14468   0.68819   0.86769   0.00000  Uiso   1.00
C1403  C     0.16678   0.95719   0.83359   0.00000  Uiso   1.00
C1404  C     0.16655   0.70947   0.83308   0.00000  Uiso   1.00
C1405  C     0.13321   0.80799   0.68575   0.00000  Uiso   1.00
C1406  C     0.20012   0.85867   0.98091   0.00000  Uiso   1.00
C1407  C     0.13354   0.80828   0.96982   0.00000  Uiso   1.00
C1408  C     0.19980   0.85839   0.69685   0.00000  Uiso   1.00
Cu1409 Cu    0.16667   0.83334   0.88022   0.00000  Uiso   1.00
Cu1410 Cu    0.16667   0.83333   0.78645   0.00000  Uiso   1.00
H1411  H     0.32537   0.83555   0.77887   0.00000  Uiso   1.00
H1412  H     0.00796   0.83112   0.88780   0.00000  Uiso   1.00
H1413  H     0.20674   0.70413   0.77258   0.00000  Uiso   1.00
H1414  H     0.12660   0.96254   0.89408   0.00000  Uiso   1.00
H1415  H     0.20622   0.96208   0.77249   0.00000  Uiso   1.00
H1416  H     0.12711   0.70459   0.89418   0.00000  Uiso   1.00
H1417  H     0.10714   0.78824   0.94679   0.00000  Uiso   1.00
H1418  H     0.22620   0.87842   0.71988   0.00000  Uiso   1.00
N1419  N     0.16668   0.83334   0.95069   0.00000  Uiso   1.00
N1420  N     0.16665   0.83332   0.71597   0.00000  Uiso   1.00
O1421  O     0.16666   0.77322   0.87291   0.00000  Uiso   1.00
O1422  O     0.16667   0.89345   0.79375   0.00000  Uiso   1.00
O1423  O     0.16666   0.77321   0.79372   0.00000  Uiso   1.00
O1424  O     0.16667   0.89346   0.87294   0.00000  Uiso   1.00
O1425  O     0.09161   0.83334   0.86379   0.00000  Uiso   1.00
O1426  O     0.24172   0.83333   0.80288   0.00000  Uiso   1.00
O1427  O     0.09161   0.83333   0.78460   0.00000  Uiso   1.00
O1428  O     0.24172   0.83334   0.88207   0.00000  Uiso   1.00
C1429  C     0.09581   0.77925   0.70240   0.00000  Uiso   1.00
C1430  C     0.04473   0.79156   0.70343   0.00000  Uiso   1.00
C1431  C     0.00764   0.76320   0.71467   0.00000  Uiso   1.00
C1432  C     0.02097   0.72208   0.72361   0.00000  Uiso   1.00
C1433  C     0.07117   0.70916   0.72057   0.00000  Uiso   1.00
C1434  C     0.10822   0.73749   0.70917   0.00000  Uiso   1.00
H1435  H     0.03398   0.82325   0.69612   0.00000  Uiso   1.00
H1436  H     0.30186   0.77306   0.71621   0.00000  Uiso   1.00
H1437  H     0.32558   0.70012   0.73226   0.00000  Uiso   1.00
H1438  H     0.08122   0.67713   0.72654   0.00000  Uiso   1.00
H1439  H     0.14650   0.72694   0.70537   0.00000  Uiso   1.00
C1440  C     0.23753   0.88742   0.96426   0.00000  Uiso   1.00
C1441  C     0.28860   0.87510   0.96323   0.00000  Uiso   1.00
C1442  C     0.32570   0.90347   0.95200   0.00000  Uiso   1.00
C1443  C     0.31236   0.94459   0.94305   0.00000  Uiso   1.00
C1444  C     0.26217   0.95751   0.94610   0.00000  Uiso   1.00
C1445  C     0.22511   0.92918   0.95750   0.00000  Uiso   1.00
H1446  H     0.29935   0.84341   0.97054   0.00000  Uiso   1.00
H1447  H     0.03147   0.89361   0.95046   0.00000  Uiso   1.00
H1448  H     0.00775   0.96655   0.93441   0.00000  Uiso   1.00
H1449  H     0.25212   0.98954   0.94013   0.00000  Uiso   1.00
H1450  H     0.18684   0.93973   0.96130   0.00000  Uiso   1.00
C1451  C     0.49994   0.75411   0.83315   0.00000  Uiso   1.00
C1452  C     0.50006   0.91256   0.83352   0.00000  Uiso   1.00
C1453  C     0.40125   0.83340   0.82115   0.00000  Uiso   1.00
C1454  C     0.59875   0.83327   0.84552   0.00000  Uiso   1.00
C1455  C     0.34578   0.83393   0.81460   0.00000  Uiso   1.00
C1456  C     0.65422   0.83274   0.85206   0.00000  Uiso   1.00
C1457  C     0.52207   0.68793   0.79886   0.00000  Uiso   1.00
C1458  C     0.47793   0.97874   0.86780   0.00000  Uiso   1.00
C1459  C     0.52199   0.97848   0.79898   0.00000  Uiso   1.00
C1460  C     0.47802   0.68819   0.86769   0.00000  Uiso   1.00
C1461  C     0.50011   0.95719   0.83359   0.00000  Uiso   1.00
C1462  C     0.49989   0.70947   0.83308   0.00000  Uiso   1.00
C1463  C     0.46655   0.80799   0.68575   0.00000  Uiso   1.00
C1464  C     0.53345   0.85867   0.98091   0.00000  Uiso   1.00
C1465  C     0.46687   0.80828   0.96982   0.00000  Uiso   1.00
C1466  C     0.53313   0.85839   0.69685   0.00000  Uiso   1.00
Cu1467 Cu    0.50000   0.83334   0.88022   0.00000  Uiso   1.00
Cu1468 Cu    0.50000   0.83333   0.78645   0.00000  Uiso   1.00
H1469  H     0.65870   0.83555   0.77887   0.00000  Uiso   1.00
H1470  H     0.34130   0.83112   0.88780   0.00000  Uiso   1.00
H1471  H     0.54007   0.70413   0.77258   0.00000  Uiso   1.00
H1472  H     0.45993   0.96254   0.89408   0.00000  Uiso   1.00
H1473  H     0.53955   0.96208   0.77249   0.00000  Uiso   1.00
H1474  H     0.46045   0.70459   0.89418   0.00000  Uiso   1.00
H1475  H     0.44047   0.78824   0.94679   0.00000  Uiso   1.00
H1476  H     0.55953   0.87842   0.71988   0.00000  Uiso   1.00
N1477  N     0.50001   0.83334   0.95069   0.00000  Uiso   1.00
N1478  N     0.49999   0.83332   0.71597   0.00000  Uiso   1.00
O1479  O     0.50000   0.77322   0.87291   0.00000  Uiso   1.00
O1480  O     0.50000   0.89345   0.79375   0.00000  Uiso   1.00
O1481  O     0.50000   0.77321   0.79372   0.00000  Uiso   1.00
O1482  O     0.50000   0.89346   0.87294   0.00000  Uiso   1.00
O1483  O     0.42495   0.83334   0.86379   0.00000  Uiso   1.00
O1484  O     0.57505   0.83333   0.80288   0.00000  Uiso   1.00
O1485  O     0.42494   0.83333   0.78460   0.00000  Uiso   1.00
O1486  O     0.57506   0.83334   0.88207   0.00000  Uiso   1.00
C1487  C     0.42914   0.77925   0.70240   0.00000  Uiso   1.00
C1488  C     0.37806   0.79156   0.70343   0.00000  Uiso   1.00
C1489  C     0.34097   0.76320   0.71467   0.00000  Uiso   1.00
C1490  C     0.35431   0.72208   0.72361   0.00000  Uiso   1.00
C1491  C     0.40450   0.70916   0.72057   0.00000  Uiso   1.00
C1492  C     0.44156   0.73749   0.70917   0.00000  Uiso   1.00
H1493  H     0.36732   0.82325   0.69612   0.00000  Uiso   1.00
H1494  H     0.63519   0.77306   0.71621   0.00000  Uiso   1.00
H1495  H     0.65892   0.70012   0.73226   0.00000  Uiso   1.00
H1496  H     0.41455   0.67713   0.72654   0.00000  Uiso   1.00
H1497  H     0.47983   0.72694   0.70537   0.00000  Uiso   1.00
C1498  C     0.57086   0.88742   0.96426   0.00000  Uiso   1.00
C1499  C     0.62194   0.87510   0.96323   0.00000  Uiso   1.00
C1500  C     0.65903   0.90347   0.95200   0.00000  Uiso   1.00
C1501  C     0.64569   0.94459   0.94305   0.00000  Uiso   1.00
C1502  C     0.59550   0.95751   0.94610   0.00000  Uiso   1.00
C1503  C     0.55844   0.92918   0.95750   0.00000  Uiso   1.00
H1504  H     0.63268   0.84341   0.97054   0.00000  Uiso   1.00
H1505  H     0.36481   0.89361   0.95046   0.00000  Uiso   1.00
H1506  H     0.34109   0.96655   0.93441   0.00000  Uiso   1.00
H1507  H     0.58545   0.98954   0.94013   0.00000  Uiso   1.00
H1508  H     0.52017   0.93973   0.96130   0.00000  Uiso   1.00
C1509  C     0.83328   0.75411   0.83315   0.00000  Uiso   1.00
C1510  C     0.83339   0.91256   0.83352   0.00000  Uiso   1.00
C1511  C     0.73458   0.83340   0.82115   0.00000  Uiso   1.00
C1512  C     0.93209   0.83327   0.84552   0.00000  Uiso   1.00
C1513  C     0.67911   0.83393   0.81460   0.00000  Uiso   1.00
C1514  C     0.98756   0.83274   0.85206   0.00000  Uiso   1.00
C1515  C     0.85541   0.68793   0.79886   0.00000  Uiso   1.00
C1516  C     0.81126   0.97874   0.86780   0.00000  Uiso   1.00
C1517  C     0.85532   0.97848   0.79898   0.00000  Uiso   1.00
C1518  C     0.81135   0.68819   0.86769   0.00000  Uiso   1.00
C1519  C     0.83345   0.95719   0.83359   0.00000  Uiso   1.00
C1520  C     0.83322   0.70947   0.83308   0.00000  Uiso   1.00
C1521  C     0.79988   0.80799   0.68575   0.00000  Uiso   1.00
C1522  C     0.86679   0.85867   0.98091   0.00000  Uiso   1.00
C1523  C     0.80020   0.80828   0.96982   0.00000  Uiso   1.00
C1524  C     0.86646   0.85839   0.69685   0.00000  Uiso   1.00
Cu1525 Cu    0.83333   0.83334   0.88022   0.00000  Uiso   1.00
Cu1526 Cu    0.83333   0.83333   0.78645   0.00000  Uiso   1.00
H1527  H     0.99204   0.83555   0.77887   0.00000  Uiso   1.00
H1528  H     0.67463   0.83112   0.88780   0.00000  Uiso   1.00
H1529  H     0.87340   0.70413   0.77258   0.00000  Uiso   1.00
H1530  H     0.79326   0.96254   0.89408   0.00000  Uiso   1.00
H1531  H     0.87289   0.96208   0.77249   0.00000  Uiso   1.00
H1532  H     0.79378   0.70459   0.89418   0.00000  Uiso   1.00
H1533  H     0.77380   0.78824   0.94679   0.00000  Uiso   1.00
H1534  H     0.89286   0.87842   0.71988   0.00000  Uiso   1.00
N1535  N     0.83335   0.83334   0.95069   0.00000  Uiso   1.00
N1536  N     0.83332   0.83332   0.71597   0.00000  Uiso   1.00
O1537  O     0.83333   0.77322   0.87291   0.00000  Uiso   1.00
O1538  O     0.83334   0.89345   0.79375   0.00000  Uiso   1.00
O1539  O     0.83333   0.77321   0.79372   0.00000  Uiso   1.00
O1540  O     0.83334   0.89346   0.87294   0.00000  Uiso   1.00
O1541  O     0.75828   0.83334   0.86379   0.00000  Uiso   1.00
O1542  O     0.90839   0.83333   0.80288   0.00000  Uiso   1.00
O1543  O     0.75828   0.83333   0.78460   0.00000  Uiso   1.00
O1544  O     0.90839   0.83334   0.88207   0.00000  Uiso   1.00
C1545  C     0.76247   0.77925   0.70240   0.00000  Uiso   1.00
C1546  C     0.71140   0.79156   0.70343   0.00000  Uiso   1.00
C1547  C     0.67430   0.76320   0.71467   0.00000  Uiso   1.00
C1548  C     0.68764   0.72208   0.72361   0.00000  Uiso   1.00
C1549  C     0.73783   0.70916   0.72057   0.00000  Uiso   1.00
C1550  C     0.77489   0.73749   0.70917   0.00000  Uiso   1.00
H1551  H     0.70065   0.82325   0.69612   0.00000  Uiso   1.00
H1552  H     0.96853   0.77306   0.71621   0.00000  Uiso   1.00
H1553  H     0.99225   0.70012   0.73226   0.00000  Uiso   1.00
H1554  H     0.74788   0.67713   0.72654   0.00000  Uiso   1.00
H1555  H     0.81317   0.72694   0.70537   0.00000  Uiso   1.00
C1556  C     0.90419   0.88742   0.96426   0.00000  Uiso   1.00
C1557  C     0.95527   0.87510   0.96323   0.00000  Uiso   1.00
C1558  C     0.99236   0.90347   0.95200   0.00000  Uiso   1.00
C1559  C     0.97903   0.94459   0.94305   0.00000  Uiso   1.00
C1560  C     0.92883   0.95751   0.94610   0.00000  Uiso   1.00
C1561  C     0.89178   0.92918   0.95750   0.00000  Uiso   1.00
H1562  H     0.96602   0.84341   0.97054   0.00000  Uiso   1.00
H1563  H     0.69814   0.89361   0.95046   0.00000  Uiso   1.00
H1564  H     0.67442   0.96655   0.93441   0.00000  Uiso   1.00
H1565  H     0.91878   0.98954   0.94013   0.00000  Uiso   1.00
H1566  H     0.85350   0.93973   0.96130   0.00000  Uiso   1.00
loop_
_geom_bond_atom_site_label_1
_geom_bond_atom_site_label_2
_geom_bond_distance
_geom_bond_site_symmetry_2
_ccdc_geom_bond_type
C1     O29     1.293   .     A
C1     C12     1.444   .     S
C1     O31     1.297   .     A
C2     C11     1.444   .     S
C2     O32     1.297   .     A
C2     O30     1.293   .     A
C3     O35     1.296   .     A
C3     O33     1.288   .     A
C3     C5      1.434   .     S
C4     O36     1.296   .     A
C4     O34     1.288   .     A
C4     C6      1.434   .     S
C5     C122    1.339   1_455 S
C5     H135    1.087   1_455 S
C6     C63     1.339   .     S
C6     H78     1.087   .     S
C7     C12     1.398   .     A
C7     H21     1.083   .     S
C7     C357    1.384   1_545 S
C8     H22     1.083   .     S
C8     C11     1.398   .     A
C8     C184    1.384   .     S
C9     C11     1.401   .     A
C9     H23     1.084   .     S
C9     C181    1.384   .     S
C10    C12     1.401   .     A
C10    H24     1.084   .     S
C10    C356    1.384   1_545 S
C13    N28     1.387   .     A
C13    C37     1.473   .     S
C13    C1059   1.417   1_554 S
C14    N27     1.387   .     A
C14    C48     1.473   .     S
C14    C538    1.417   .     S
C15    N27     1.356   .     A
C15    H25     1.083   .     S
C15    C535    1.417   .     S
C16    N28     1.356   .     A
C16    H26     1.083   .     S
C16    C1058   1.417   1_554 S
Cu17   O36     1.954   .     S
Cu17   O29     1.954   .     S
Cu17   Cu18    2.695   .     S
Cu17   O33     1.948   .     S
Cu17   N27     2.025   .     S
Cu17   O32     1.958   .     S
Cu18   O35     1.954   .     S
Cu18   O30     1.954   .     S
Cu18   O34     1.948   .     S
Cu18   N28     2.025   .     S
Cu18   O31     1.958   .     S
H19    C63     1.087   .     S
H20    C122    1.087   1_455 S
C37    C38     1.404   .     A
C37    C42     1.404   .     A
C38    H43     1.082   .     S
C38    C39     1.399   .     A
C39    C40     1.398   .     A
C39    H160    1.083   1_455 S
C40    C41     1.398   .     A
C40    H161    1.082   1_455 S
C41    H46     1.082   .     S
C41    C42     1.399   .     A
C42    H47     1.082   .     S
H44    C97     1.083   .     S
H45    C98     1.082   .     S
C48    C53     1.404   .     A
C48    C49     1.404   .     A
C49    H54     1.082   .     S
C49    C50     1.399   .     A
C50    C51     1.398   .     A
C50    H113    1.083   .     S
C51    C52     1.398   .     A
C51    H114    1.082   .     S
C52    H57     1.082   .     S
C52    C53     1.399   .     A
C53    H58     1.082   .     S
H55    C166    1.083   1_455 S
H56    C167    1.082   1_455 S
C59    O87     1.293   .     A
C59    C70     1.444   .     S
C59    O89     1.297   .     A
C60    C69     1.444   .     S
C60    O90     1.297   .     A
C60    O88     1.293   .     A
C61    O93     1.296   .     A
C61    O91     1.288   .     A
C61    C63     1.434   .     S
C62    O94     1.296   .     A
C62    O92     1.288   .     A
C62    C64     1.434   .     S
C64    C121    1.339   .     S
C64    H136    1.087   .     S
C65    C70     1.398   .     A
C65    H79     1.083   .     S
C65    C415    1.384   1_545 S
C66    H80     1.083   .     S
C66    C69     1.398   .     A
C66    C242    1.384   .     S
C67    C69     1.401   .     A
C67    H81     1.084   .     S
C67    C239    1.384   .     S
C68    C70     1.401   .     A
C68    H82     1.084   .     S
C68    C414    1.384   1_545 S
C71    N86     1.387   .     A
C71    C95     1.473   .     S
C71    C1117   1.417   1_554 S
C72    N85     1.387   .     A
C72    C106    1.473   .     S
C72    C596    1.417   .     S
C73    N85     1.356   .     A
C73    H83     1.083   .     S
C73    C593    1.417   .     S
C74    N86     1.356   .     A
C74    H84     1.083   .     S
C74    C1116   1.417   1_554 S
Cu75   O94     1.954   .     S
Cu75   O87     1.954   .     S
Cu75   Cu76    2.695   .     S
Cu75   O91     1.948   .     S
Cu75   N85     2.025   .     S
Cu75   O90     1.958   .     S
Cu76   O93     1.954   .     S
Cu76   O88     1.954   .     S
Cu76   O92     1.948   .     S
Cu76   N86     2.025   .     S
Cu76   O89     1.958   .     S
H77    C121    1.087   .     S
C95    C96     1.404   .     A
C95    C100    1.404   .     A
C96    H101    1.082   .     S
C96    C97     1.399   .     A
C97    C98     1.398   .     A
C98    C99     1.398   .     A
C99    H104    1.082   .     S
C99    C100    1.399   .     A
C100   H105    1.082   .     S
H102   C155    1.083   .     S
H103   C156    1.082   .     S
C106   C111    1.404   .     A
C106   C107    1.404   .     A
C107   H112    1.082   .     S
C107   C108    1.399   .     A
C108   C109    1.398   .     A
C108   H171    1.083   .     S
C109   C110    1.398   .     A
C109   H172    1.082   .     S
C110   H115    1.082   .     S
C110   C111    1.399   .     A
C111   H116    1.082   .     S
C117   O145    1.293   .     A
C117   C128    1.444   .     S
C117   O147    1.297   .     A
C118   C127    1.444   .     S
C118   O148    1.297   .     A
C118   O146    1.293   .     A
C119   O151    1.296   .     A
C119   O149    1.288   .     A
C119   C121    1.434   .     S
C120   O152    1.296   .     A
C120   O150    1.288   .     A
C120   C122    1.434   .     S
C122   C5      1.339   1_655 S
C122   H20     1.087   1_655 S
C123   C128    1.398   .     A
C123   H137    1.083   .     S
C123   C473    1.384   1_545 S
C124   H138    1.083   .     S
C124   C127    1.398   .     A
C124   C300    1.384   .     S
C125   C127    1.401   .     A
C125   H139    1.084   .     S
C125   C297    1.384   .     S
C126   C128    1.401   .     A
C126   H140    1.084   .     S
C126   C472    1.384   1_545 S
C129   N144    1.387   .     A
C129   C153    1.473   .     S
C129   C1175   1.417   1_554 S
C130   N143    1.387   .     A
C130   C164    1.473   .     S
C130   C654    1.417   .     S
C131   N143    1.356   .     A
C131   H141    1.083   .     S
C131   C651    1.417   .     S
C132   N144    1.356   .     A
C132   H142    1.083   .     S
C132   C1174   1.417   1_554 S
Cu133  O152    1.954   .     S
Cu133  O145    1.954   .     S
Cu133  Cu134   2.695   .     S
Cu133  O149    1.948   .     S
Cu133  N143    2.025   .     S
Cu133  O148    1.958   .     S
Cu134  O151    1.954   .     S
Cu134  O146    1.954   .     S
Cu134  O150    1.948   .     S
Cu134  N144    2.025   .     S
Cu134  O147    1.958   .     S
H135   C5      1.087   1_655 S
C153   C154    1.404   .     A
C153   C158    1.404   .     A
C154   H159    1.082   .     S
C154   C155    1.399   .     A
C155   C156    1.398   .     A
C156   C157    1.398   .     A
C157   H162    1.082   .     S
C157   C158    1.399   .     A
C158   H163    1.082   .     S
H160   C39     1.083   1_655 S
H161   C40     1.082   1_655 S
C164   C169    1.404   .     A
C164   C165    1.404   .     A
C165   H170    1.082   .     S
C165   C166    1.399   .     A
C166   C167    1.398   .     A
C166   H55     1.083   1_655 S
C167   C168    1.398   .     A
C167   H56     1.082   1_655 S
C168   H173    1.082   .     S
C168   C169    1.399   .     A
C169   H174    1.082   .     S
C175   O203    1.293   .     A
C175   C186    1.444   .     S
C175   O205    1.297   .     A
C176   C185    1.444   .     S
C176   O206    1.297   .     A
C176   O204    1.293   .     A
C177   O209    1.296   .     A
C177   O207    1.288   .     A
C177   C179    1.434   .     S
C178   O210    1.296   .     A
C178   O208    1.288   .     A
C178   C180    1.434   .     S
C179   C296    1.339   1_455 S
C179   H309    1.087   1_455 S
C180   C237    1.339   .     S
C180   H252    1.087   .     S
C181   C186    1.398   .     A
C181   H195    1.083   .     S
C182   H196    1.083   .     S
C182   C185    1.398   .     A
C182   C358    1.384   .     S
C183   C185    1.401   .     A
C183   H197    1.084   .     S
C183   C355    1.384   .     S
C184   C186    1.401   .     A
C184   H198    1.084   .     S
C187   N202    1.387   .     A
C187   C211    1.473   .     S
C187   C1233   1.417   1_554 S
C188   N201    1.387   .     A
C188   C222    1.473   .     S
C188   C712    1.417   .     S
C189   N201    1.356   .     A
C189   H199    1.083   .     S
C189   C709    1.417   .     S
C190   N202    1.356   .     A
C190   H200    1.083   .     S
C190   C1232   1.417   1_554 S
Cu191  O210    1.954   .     S
Cu191  O203    1.954   .     S
Cu191  Cu192   2.695   .     S
Cu191  O207    1.948   .     S
Cu191  N201    2.025   .     S
Cu191  O206    1.958   .     S
Cu192  O209    1.954   .     S
Cu192  O204    1.954   .     S
Cu192  O208    1.948   .     S
Cu192  N202    2.025   .     S
Cu192  O205    1.958   .     S
H193   C237    1.087   .     S
H194   C296    1.087   1_455 S
C211   C212    1.404   .     A
C211   C216    1.404   .     A
C212   H217    1.082   .     S
C212   C213    1.399   .     A
C213   C214    1.398   .     A
C213   H334    1.083   1_455 S
C214   C215    1.398   .     A
C214   H335    1.082   1_455 S
C215   H220    1.082   .     S
C215   C216    1.399   .     A
C216   H221    1.082   .     S
H218   C271    1.083   .     S
H219   C272    1.082   .     S
C222   C227    1.404   .     A
C222   C223    1.404   .     A
C223   H228    1.082   .     S
C223   C224    1.399   .     A
C224   C225    1.398   .     A
C224   H287    1.083   .     S
C225   C226    1.398   .     A
C225   H288    1.082   .     S
C226   H231    1.082   .     S
C226   C227    1.399   .     A
C227   H232    1.082   .     S
H229   C340    1.083   1_455 S
H230   C341    1.082   1_455 S
C233   O261    1.293   .     A
C233   C244    1.444   .     S
C233   O263    1.297   .     A
C234   C243    1.444   .     S
C234   O264    1.297   .     A
C234   O262    1.293   .     A
C235   O267    1.296   .     A
C235   O265    1.288   .     A
C235   C237    1.434   .     S
C236   O268    1.296   .     A
C236   O266    1.288   .     A
C236   C238    1.434   .     S
C238   C295    1.339   .     S
C238   H310    1.087   .     S
C239   C244    1.398   .     A
C239   H253    1.083   .     S
C240   H254    1.083   .     S
C240   C243    1.398   .     A
C240   C416    1.384   .     S
C241   C243    1.401   .     A
C241   H255    1.084   .     S
C241   C413    1.384   .     S
C242   C244    1.401   .     A
C242   H256    1.084   .     S
C245   N260    1.387   .     A
C245   C269    1.473   .     S
C245   C1291   1.417   1_554 S
C246   N259    1.387   .     A
C246   C280    1.473   .     S
C246   C770    1.417   .     S
C247   N259    1.356   .     A
C247   H257    1.083   .     S
C247   C767    1.417   .     S
C248   N260    1.356   .     A
C248   H258    1.083   .     S
C248   C1290   1.417   1_554 S
Cu249  O268    1.954   .     S
Cu249  O261    1.954   .     S
Cu249  Cu250   2.695   .     S
Cu249  O265    1.948   .     S
Cu249  N259    2.025   .     S
Cu249  O264    1.958   .     S
Cu250  O267    1.954   .     S
Cu250  O262    1.954   .     S
Cu250  O266    1.948   .     S
Cu250  N260    2.025   .     S
Cu250  O263    1.958   .     S
H251   C295    1.087   .     S
C269   C270    1.404   .     A
C269   C274    1.404   .     A
C270   H275    1.082   .     S
C270   C271    1.399   .     A
C271   C272    1.398   .     A
C272   C273    1.398   .     A
C273   H278    1.082   .     S
C273   C274    1.399   .     A
C274   H279    1.082   .     S
H276   C329    1.083   .     S
H277   C330    1.082   .     S
C280   C285    1.404   .     A
C280   C281    1.404   .     A
C281   H286    1.082   .     S
C281   C282    1.399   .     A
C282   C283    1.398   .     A
C282   H345    1.083   .     S
C283   C284    1.398   .     A
C283   H346    1.082   .     S
C284   H289    1.082   .     S
C284   C285    1.399   .     A
C285   H290    1.082   .     S
C291   O319    1.293   .     A
C291   C302    1.444   .     S
C291   O321    1.297   .     A
C292   C301    1.444   .     S
C292   O322    1.297   .     A
C292   O320    1.293   .     A
C293   O325    1.296   .     A
C293   O323    1.288   .     A
C293   C295    1.434   .     S
C294   O326    1.296   .     A
C294   O324    1.288   .     A
C294   C296    1.434   .     S
C296   C179    1.339   1_655 S
C296   H194    1.087   1_655 S
C297   C302    1.398   .     A
C297   H311    1.083   .     S
C298   H312    1.083   .     S
C298   C301    1.398   .     A
C298   C474    1.384   .     S
C299   C301    1.401   .     A
C299   H313    1.084   .     S
C299   C471    1.384   .     S
C300   C302    1.401   .     A
C300   H314    1.084   .     S
C303   N318    1.387   .     A
C303   C327    1.473   .     S
C303   C1349   1.417   1_554 S
C304   N317    1.387   .     A
C304   C338    1.473   .     S
C304   C828    1.417   .     S
C305   N317    1.356   .     A
C305   H315    1.083   .     S
C305   C825    1.417   .     S
C306   N318    1.356   .     A
C306   H316    1.083   .     S
C306   C1348   1.417   1_554 S
Cu307  O326    1.954   .     S
Cu307  O319    1.954   .     S
Cu307  Cu308   2.695   .     S
Cu307  O323    1.948   .     S
Cu307  N317    2.025   .     S
Cu307  O322    1.958   .     S
Cu308  O325    1.954   .     S
Cu308  O320    1.954   .     S
Cu308  O324    1.948   .     S
Cu308  N318    2.025   .     S
Cu308  O321    1.958   .     S
H309   C179    1.087   1_655 S
C327   C328    1.404   .     A
C327   C332    1.404   .     A
C328   H333    1.082   .     S
C328   C329    1.399   .     A
C329   C330    1.398   .     A
C330   C331    1.398   .     A
C331   H336    1.082   .     S
C331   C332    1.399   .     A
C332   H337    1.082   .     S
H334   C213    1.083   1_655 S
H335   C214    1.082   1_655 S
C338   C343    1.404   .     A
C338   C339    1.404   .     A
C339   H344    1.082   .     S
C339   C340    1.399   .     A
C340   C341    1.398   .     A
C340   H229    1.083   1_655 S
C341   C342    1.398   .     A
C341   H230    1.082   1_655 S
C342   H347    1.082   .     S
C342   C343    1.399   .     A
C343   H348    1.082   .     S
C349   O377    1.293   .     A
C349   C360    1.444   .     S
C349   O379    1.297   .     A
C350   C359    1.444   .     S
C350   O380    1.297   .     A
C350   O378    1.293   .     A
C351   O383    1.296   .     A
C351   O381    1.288   .     A
C351   C353    1.434   .     S
C352   O384    1.296   .     A
C352   O382    1.288   .     A
C352   C354    1.434   .     S
C353   C470    1.339   1_455 S
C353   H483    1.087   1_455 S
C354   C411    1.339   .     S
C354   H426    1.087   .     S
C355   C360    1.398   .     A
C355   H369    1.083   .     S
C356   H370    1.083   .     S
C356   C359    1.398   .     A
C356   C10     1.384   1_565 S
C357   C359    1.401   .     A
C357   H371    1.084   .     S
C357   C7      1.384   1_565 S
C358   C360    1.401   .     A
C358   H372    1.084   .     S
C361   N376    1.387   .     A
C361   C385    1.473   .     S
C361   C1407   1.417   1_554 S
C362   N375    1.387   .     A
C362   C396    1.473   .     S
C362   C886    1.417   .     S
C363   N375    1.356   .     A
C363   H373    1.083   .     S
C363   C883    1.417   .     S
C364   N376    1.356   .     A
C364   H374    1.083   .     S
C364   C1406   1.417   1_554 S
Cu365  O384    1.954   .     S
Cu365  O377    1.954   .     S
Cu365  Cu366   2.695   .     S
Cu365  O381    1.948   .     S
Cu365  N375    2.025   .     S
Cu365  O380    1.958   .     S
Cu366  O383    1.954   .     S
Cu366  O378    1.954   .     S
Cu366  O382    1.948   .     S
Cu366  N376    2.025   .     S
Cu366  O379    1.958   .     S
H367   C411    1.087   .     S
H368   C470    1.087   1_455 S
C385   C386    1.404   .     A
C385   C390    1.404   .     A
C386   H391    1.082   .     S
C386   C387    1.399   .     A
C387   C388    1.398   .     A
C387   H508    1.083   1_455 S
C388   C389    1.398   .     A
C388   H509    1.082   1_455 S
C389   H394    1.082   .     S
C389   C390    1.399   .     A
C390   H395    1.082   .     S
H392   C445    1.083   .     S
H393   C446    1.082   .     S
C396   C401    1.404   .     A
C396   C397    1.404   .     A
C397   H402    1.082   .     S
C397   C398    1.399   .     A
C398   C399    1.398   .     A
C398   H461    1.083   .     S
C399   C400    1.398   .     A
C399   H462    1.082   .     S
C400   H405    1.082   .     S
C400   C401    1.399   .     A
C401   H406    1.082   .     S
H403   C514    1.083   1_455 S
H404   C515    1.082   1_455 S
C407   O435    1.293   .     A
C407   C418    1.444   .     S
C407   O437    1.297   .     A
C408   C417    1.444   .     S
C408   O438    1.297   .     A
C408   O436    1.293   .     A
C409   O441    1.296   .     A
C409   O439    1.288   .     A
C409   C411    1.434   .     S
C410   O442    1.296   .     A
C410   O440    1.288   .     A
C410   C412    1.434   .     S
C412   C469    1.339   .     S
C412   H484    1.087   .     S
C413   C418    1.398   .     A
C413   H427    1.083   .     S
C414   H428    1.083   .     S
C414   C417    1.398   .     A
C414   C68     1.384   1_565 S
C415   C417    1.401   .     A
C415   H429    1.084   .     S
C415   C65     1.384   1_565 S
C416   C418    1.401   .     A
C416   H430    1.084   .     S
C419   N434    1.387   .     A
C419   C443    1.473   .     S
C419   C1465   1.417   1_554 S
C420   N433    1.387   .     A
C420   C454    1.473   .     S
C420   C944    1.417   .     S
C421   N433    1.356   .     A
C421   H431    1.083   .     S
C421   C941    1.417   .     S
C422   N434    1.356   .     A
C422   H432    1.083   .     S
C422   C1464   1.417   1_554 S
Cu423  O442    1.954   .     S
Cu423  O435    1.954   .     S
Cu423  Cu424   2.695   .     S
Cu423  O439    1.948   .     S
Cu423  N433    2.025   .     S
Cu423  O438    1.958   .     S
Cu424  O441    1.954   .     S
Cu424  O436    1.954   .     S
Cu424  O440    1.948   .     S
Cu424  N434    2.025   .     S
Cu424  O437    1.958   .     S
H425   C469    1.087   .     S
C443   C444    1.404   .     A
C443   C448    1.404   .     A
C444   H449    1.082   .     S
C444   C445    1.399   .     A
C445   C446    1.398   .     A
C446   C447    1.398   .     A
C447   H452    1.082   .     S
C447   C448    1.399   .     A
C448   H453    1.082   .     S
H450   C503    1.083   .     S
H451   C504    1.082   .     S
C454   C459    1.404   .     A
C454   C455    1.404   .     A
C455   H460    1.082   .     S
C455   C456    1.399   .     A
C456   C457    1.398   .     A
C456   H519    1.083   .     S
C457   C458    1.398   .     A
C457   H520    1.082   .     S
C458   H463    1.082   .     S
C458   C459    1.399   .     A
C459   H464    1.082   .     S
C465   O493    1.293   .     A
C465   C476    1.444   .     S
C465   O495    1.297   .     A
C466   C475    1.444   .     S
C466   O496    1.297   .     A
C466   O494    1.293   .     A
C467   O499    1.296   .     A
C467   O497    1.288   .     A
C467   C469    1.434   .     S
C468   O500    1.296   .     A
C468   O498    1.288   .     A
C468   C470    1.434   .     S
C470   C353    1.339   1_655 S
C470   H368    1.087   1_655 S
C471   C476    1.398   .     A
C471   H485    1.083   .     S
C472   H486    1.083   .     S
C472   C475    1.398   .     A
C472   C126    1.384   1_565 S
C473   C475    1.401   .     A
C473   H487    1.084   .     S
C473   C123    1.384   1_565 S
C474   C476    1.401   .     A
C474   H488    1.084   .     S
C477   N492    1.387   .     A
C477   C501    1.473   .     S
C477   C1523   1.417   1_554 S
C478   N491    1.387   .     A
C478   C512    1.473   .     S
C478   C1002   1.417   .     S
C479   N491    1.356   .     A
C479   H489    1.083   .     S
C479   C999    1.417   .     S
C480   N492    1.356   .     A
C480   H490    1.083   .     S
C480   C1522   1.417   1_554 S
Cu481  O500    1.954   .     S
Cu481  O493    1.954   .     S
Cu481  Cu482   2.695   .     S
Cu481  O497    1.948   .     S
Cu481  N491    2.025   .     S
Cu481  O496    1.958   .     S
Cu482  O499    1.954   .     S
Cu482  O494    1.954   .     S
Cu482  O498    1.948   .     S
Cu482  N492    2.025   .     S
Cu482  O495    1.958   .     S
H483   C353    1.087   1_655 S
C501   C502    1.404   .     A
C501   C506    1.404   .     A
C502   H507    1.082   .     S
C502   C503    1.399   .     A
C503   C504    1.398   .     A
C504   C505    1.398   .     A
C505   H510    1.082   .     S
C505   C506    1.399   .     A
C506   H511    1.082   .     S
H508   C387    1.083   1_655 S
H509   C388    1.082   1_655 S
C512   C517    1.404   .     A
C512   C513    1.404   .     A
C513   H518    1.082   .     S
C513   C514    1.399   .     A
C514   C515    1.398   .     A
C514   H403    1.083   1_655 S
C515   C516    1.398   .     A
C515   H404    1.082   1_655 S
C516   H521    1.082   .     S
C516   C517    1.399   .     A
C517   H522    1.082   .     S
C523   O551    1.293   .     A
C523   C534    1.444   .     S
C523   O553    1.297   .     A
C524   C533    1.444   .     S
C524   O554    1.297   .     A
C524   O552    1.293   .     A
C525   O557    1.296   .     A
C525   O555    1.288   .     A
C525   C527    1.434   .     S
C526   O558    1.296   .     A
C526   O556    1.288   .     A
C526   C528    1.434   .     S
C527   C644    1.339   1_455 S
C527   H657    1.087   1_455 S
C528   C585    1.339   .     S
C528   H600    1.087   .     S
C529   C534    1.398   .     A
C529   H543    1.083   .     S
C529   C879    1.384   1_545 S
C530   H544    1.083   .     S
C530   C533    1.398   .     A
C530   C706    1.384   .     S
C531   C533    1.401   .     A
C531   H545    1.084   .     S
C531   C703    1.384   .     S
C532   C534    1.401   .     A
C532   H546    1.084   .     S
C532   C878    1.384   1_545 S
C535   N550    1.387   .     A
C535   C559    1.473   .     S
C536   N549    1.387   .     A
C536   C570    1.473   .     S
C536   C1060   1.417   .     S
C537   N549    1.356   .     A
C537   H547    1.083   .     S
C537   C1057   1.417   .     S
C538   N550    1.356   .     A
C538   H548    1.083   .     S
Cu539  O558    1.954   .     S
Cu539  O551    1.954   .     S
Cu539  Cu540   2.695   .     S
Cu539  O555    1.948   .     S
Cu539  N549    2.025   .     S
Cu539  O554    1.958   .     S
Cu540  O557    1.954   .     S
Cu540  O552    1.954   .     S
Cu540  O556    1.948   .     S
Cu540  N550    2.025   .     S
Cu540  O553    1.958   .     S
H541   C585    1.087   .     S
H542   C644    1.087   1_455 S
C559   C560    1.404   .     A
C559   C564    1.404   .     A
C560   H565    1.082   .     S
C560   C561    1.399   .     A
C561   C562    1.398   .     A
C561   H682    1.083   1_455 S
C562   C563    1.398   .     A
C562   H683    1.082   1_455 S
C563   H568    1.082   .     S
C563   C564    1.399   .     A
C564   H569    1.082   .     S
H566   C619    1.083   .     S
H567   C620    1.082   .     S
C570   C575    1.404   .     A
C570   C571    1.404   .     A
C571   H576    1.082   .     S
C571   C572    1.399   .     A
C572   C573    1.398   .     A
C572   H635    1.083   .     S
C573   C574    1.398   .     A
C573   H636    1.082   .     S
C574   H579    1.082   .     S
C574   C575    1.399   .     A
C575   H580    1.082   .     S
H577   C688    1.083   1_455 S
H578   C689    1.082   1_455 S
C581   O609    1.293   .     A
C581   C592    1.444   .     S
C581   O611    1.297   .     A
C582   C591    1.444   .     S
C582   O612    1.297   .     A
C582   O610    1.293   .     A
C583   O615    1.296   .     A
C583   O613    1.288   .     A
C583   C585    1.434   .     S
C584   O616    1.296   .     A
C584   O614    1.288   .     A
C584   C586    1.434   .     S
C586   C643    1.339   .     S
C586   H658    1.087   .     S
C587   C592    1.398   .     A
C587   H601    1.083   .     S
C587   C937    1.384   1_545 S
C588   H602    1.083   .     S
C588   C591    1.398   .     A
C588   C764    1.384   .     S
C589   C591    1.401   .     A
C589   H603    1.084   .     S
C589   C761    1.384   .     S
C590   C592    1.401   .     A
C590   H604    1.084   .     S
C590   C936    1.384   1_545 S
C593   N608    1.387   .     A
C593   C617    1.473   .     S
C594   N607    1.387   .     A
C594   C628    1.473   .     S
C594   C1118   1.417   .     S
C595   N607    1.356   .     A
C595   H605    1.083   .     S
C595   C1115   1.417   .     S
C596   N608    1.356   .     A
C596   H606    1.083   .     S
Cu597  O616    1.954   .     S
Cu597  O609    1.954   .     S
Cu597  Cu598   2.695   .     S
Cu597  O613    1.948   .     S
Cu597  N607    2.025   .     S
Cu597  O612    1.958   .     S
Cu598  O615    1.954   .     S
Cu598  O610    1.954   .     S
Cu598  O614    1.948   .     S
Cu598  N608    2.025   .     S
Cu598  O611    1.958   .     S
H599   C643    1.087   .     S
C617   C618    1.404   .     A
C617   C622    1.404   .     A
C618   H623    1.082   .     S
C618   C619    1.399   .     A
C619   C620    1.398   .     A
C620   C621    1.398   .     A
C621   H626    1.082   .     S
C621   C622    1.399   .     A
C622   H627    1.082   .     S
H624   C677    1.083   .     S
H625   C678    1.082   .     S
C628   C633    1.404   .     A
C628   C629    1.404   .     A
C629   H634    1.082   .     S
C629   C630    1.399   .     A
C630   C631    1.398   .     A
C630   H693    1.083   .     S
C631   C632    1.398   .     A
C631   H694    1.082   .     S
C632   H637    1.082   .     S
C632   C633    1.399   .     A
C633   H638    1.082   .     S
C639   O667    1.293   .     A
C639   C650    1.444   .     S
C639   O669    1.297   .     A
C640   C649    1.444   .     S
C640   O670    1.297   .     A
C640   O668    1.293   .     A
C641   O673    1.296   .     A
C641   O671    1.288   .     A
C641   C643    1.434   .     S
C642   O674    1.296   .     A
C642   O672    1.288   .     A
C642   C644    1.434   .     S
C644   C527    1.339   1_655 S
C644   H542    1.087   1_655 S
C645   C650    1.398   .     A
C645   H659    1.083   .     S
C645   C995    1.384   1_545 S
C646   H660    1.083   .     S
C646   C649    1.398   .     A
C646   C822    1.384   .     S
C647   C649    1.401   .     A
C647   H661    1.084   .     S
C647   C819    1.384   .     S
C648   C650    1.401   .     A
C648   H662    1.084   .     S
C648   C994    1.384   1_545 S
C651   N666    1.387   .     A
C651   C675    1.473   .     S
C652   N665    1.387   .     A
C652   C686    1.473   .     S
C652   C1176   1.417   .     S
C653   N665    1.356   .     A
C653   H663    1.083   .     S
C653   C1173   1.417   .     S
C654   N666    1.356   .     A
C654   H664    1.083   .     S
Cu655  O674    1.954   .     S
Cu655  O667    1.954   .     S
Cu655  Cu656   2.695   .     S
Cu655  O671    1.948   .     S
Cu655  N665    2.025   .     S
Cu655  O670    1.958   .     S
Cu656  O673    1.954   .     S
Cu656  O668    1.954   .     S
Cu656  O672    1.948   .     S
Cu656  N666    2.025   .     S
Cu656  O669    1.958   .     S
H657   C527    1.087   1_655 S
C675   C676    1.404   .     A
C675   C680    1.404   .     A
C676   H681    1.082   .     S
C676   C677    1.399   .     A
C677   C678    1.398   .     A
C678   C679    1.398   .     A
C679   H684    1.082   .     S
C679   C680    1.399   .     A
C680   H685    1.082   .     S
H682   C561    1.083   1_655 S
H683   C562    1.082   1_655 S
C686   C691    1.404   .     A
C686   C687    1.404   .     A
C687   H692    1.082   .     S
C687   C688    1.399   .     A
C688   C689    1.398   .     A
C688   H577    1.083   1_655 S
C689   C690    1.398   .     A
C689   H578    1.082   1_655 S
C690   H695    1.082   .     S
C690   C691    1.399   .     A
C691   H696    1.082   .     S
C697   O725    1.293   .     A
C697   C708    1.444   .     S
C697   O727    1.297   .     A
C698   C707    1.444   .     S
C698   O728    1.297   .     A
C698   O726    1.293   .     A
C699   O731    1.296   .     A
C699   O729    1.288   .     A
C699   C701    1.434   .     S
C700   O732    1.296   .     A
C700   O730    1.288   .     A
C700   C702    1.434   .     S
C701   C818    1.339   1_455 S
C701   H831    1.087   1_455 S
C702   C759    1.339   .     S
C702   H774    1.087   .     S
C703   C708    1.398   .     A
C703   H717    1.083   .     S
C704   H718    1.083   .     S
C704   C707    1.398   .     A
C704   C880    1.384   .     S
C705   C707    1.401   .     A
C705   H719    1.084   .     S
C705   C877    1.384   .     S
C706   C708    1.401   .     A
C706   H720    1.084   .     S
C709   N724    1.387   .     A
C709   C733    1.473   .     S
C710   N723    1.387   .     A
C710   C744    1.473   .     S
C710   C1234   1.417   .     S
C711   N723    1.356   .     A
C711   H721    1.083   .     S
C711   C1231   1.417   .     S
C712   N724    1.356   .     A
C712   H722    1.083   .     S
Cu713  O732    1.954   .     S
Cu713  O725    1.954   .     S
Cu713  Cu714   2.695   .     S
Cu713  O729    1.948   .     S
Cu713  N723    2.025   .     S
Cu713  O728    1.958   .     S
Cu714  O731    1.954   .     S
Cu714  O726    1.954   .     S
Cu714  O730    1.948   .     S
Cu714  N724    2.025   .     S
Cu714  O727    1.958   .     S
H715   C759    1.087   .     S
H716   C818    1.087   1_455 S
C733   C734    1.404   .     A
C733   C738    1.404   .     A
C734   H739    1.082   .     S
C734   C735    1.399   .     A
C735   C736    1.398   .     A
C735   H856    1.083   1_455 S
C736   C737    1.398   .     A
C736   H857    1.082   1_455 S
C737   H742    1.082   .     S
C737   C738    1.399   .     A
C738   H743    1.082   .     S
H740   C793    1.083   .     S
H741   C794    1.082   .     S
C744   C749    1.404   .     A
C744   C745    1.404   .     A
C745   H750    1.082   .     S
C745   C746    1.399   .     A
C746   C747    1.398   .     A
C746   H809    1.083   .     S
C747   C748    1.398   .     A
C747   H810    1.082   .     S
C748   H753    1.082   .     S
C748   C749    1.399   .     A
C749   H754    1.082   .     S
H751   C862    1.083   1_455 S
H752   C863    1.082   1_455 S
C755   O783    1.293   .     A
C755   C766    1.444   .     S
C755   O785    1.297   .     A
C756   C765    1.444   .     S
C756   O786    1.297   .     A
C756   O784    1.293   .     A
C757   O789    1.296   .     A
C757   O787    1.288   .     A
C757   C759    1.434   .     S
C758   O790    1.296   .     A
C758   O788    1.288   .     A
C758   C760    1.434   .     S
C760   C817    1.339   .     S
C760   H832    1.087   .     S
C761   C766    1.398   .     A
C761   H775    1.083   .     S
C762   H776    1.083   .     S
C762   C765    1.398   .     A
C762   C938    1.384   .     S
C763   C765    1.401   .     A
C763   H777    1.084   .     S
C763   C935    1.384   .     S
C764   C766    1.401   .     A
C764   H778    1.084   .     S
C767   N782    1.387   .     A
C767   C791    1.473   .     S
C768   N781    1.387   .     A
C768   C802    1.473   .     S
C768   C1292   1.417   .     S
C769   N781    1.356   .     A
C769   H779    1.083   .     S
C769   C1289   1.417   .     S
C770   N782    1.356   .     A
C770   H780    1.083   .     S
Cu771  O790    1.954   .     S
Cu771  O783    1.954   .     S
Cu771  Cu772   2.695   .     S
Cu771  O787    1.948   .     S
Cu771  N781    2.025   .     S
Cu771  O786    1.958   .     S
Cu772  O789    1.954   .     S
Cu772  O784    1.954   .     S
Cu772  O788    1.948   .     S
Cu772  N782    2.025   .     S
Cu772  O785    1.958   .     S
H773   C817    1.087   .     S
C791   C792    1.404   .     A
C791   C796    1.404   .     A
C792   H797    1.082   .     S
C792   C793    1.399   .     A
C793   C794    1.398   .     A
C794   C795    1.398   .     A
C795   H800    1.082   .     S
C795   C796    1.399   .     A
C796   H801    1.082   .     S
H798   C851    1.083   .     S
H799   C852    1.082   .     S
C802   C807    1.404   .     A
C802   C803    1.404   .     A
C803   H808    1.082   .     S
C803   C804    1.399   .     A
C804   C805    1.398   .     A
C804   H867    1.083   .     S
C805   C806    1.398   .     A
C805   H868    1.082   .     S
C806   H811    1.082   .     S
C806   C807    1.399   .     A
C807   H812    1.082   .     S
C813   O841    1.293   .     A
C813   C824    1.444   .     S
C813   O843    1.297   .     A
C814   C823    1.444   .     S
C814   O844    1.297   .     A
C814   O842    1.293   .     A
C815   O847    1.296   .     A
C815   O845    1.288   .     A
C815   C817    1.434   .     S
C816   O848    1.296   .     A
C816   O846    1.288   .     A
C816   C818    1.434   .     S
C818   C701    1.339   1_655 S
C818   H716    1.087   1_655 S
C819   C824    1.398   .     A
C819   H833    1.083   .     S
C820   H834    1.083   .     S
C820   C823    1.398   .     A
C820   C996    1.384   .     S
C821   C823    1.401   .     A
C821   H835    1.084   .     S
C821   C993    1.384   .     S
C822   C824    1.401   .     A
C822   H836    1.084   .     S
C825   N840    1.387   .     A
C825   C849    1.473   .     S
C826   N839    1.387   .     A
C826   C860    1.473   .     S
C826   C1350   1.417   .     S
C827   N839    1.356   .     A
C827   H837    1.083   .     S
C827   C1347   1.417   .     S
C828   N840    1.356   .     A
C828   H838    1.083   .     S
Cu829  O848    1.954   .     S
Cu829  O841    1.954   .     S
Cu829  Cu830   2.695   .     S
Cu829  O845    1.948   .     S
Cu829  N839    2.025   .     S
Cu829  O844    1.958   .     S
Cu830  O847    1.954   .     S
Cu830  O842    1.954   .     S
Cu830  O846    1.948   .     S
Cu830  N840    2.025   .     S
Cu830  O843    1.958   .     S
H831   C701    1.087   1_655 S
C849   C850    1.404   .     A
C849   C854    1.404   .     A
C850   H855    1.082   .     S
C850   C851    1.399   .     A
C851   C852    1.398   .     A
C852   C853    1.398   .     A
C853   H858    1.082   .     S
C853   C854    1.399   .     A
C854   H859    1.082   .     S
H856   C735    1.083   1_655 S
H857   C736    1.082   1_655 S
C860   C865    1.404   .     A
C860   C861    1.404   .     A
C861   H866    1.082   .     S
C861   C862    1.399   .     A
C862   C863    1.398   .     A
C862   H751    1.083   1_655 S
C863   C864    1.398   .     A
C863   H752    1.082   1_655 S
C864   H869    1.082   .     S
C864   C865    1.399   .     A
C865   H870    1.082   .     S
C871   O899    1.293   .     A
C871   C882    1.444   .     S
C871   O901    1.297   .     A
C872   C881    1.444   .     S
C872   O902    1.297   .     A
C872   O900    1.293   .     A
C873   O905    1.296   .     A
C873   O903    1.288   .     A
C873   C875    1.434   .     S
C874   O906    1.296   .     A
C874   O904    1.288   .     A
C874   C876    1.434   .     S
C875   C992    1.339   1_455 S
C875   H1005   1.087   1_455 S
C876   C933    1.339   .     S
C876   H948    1.087   .     S
C877   C882    1.398   .     A
C877   H891    1.083   .     S
C878   H892    1.083   .     S
C878   C881    1.398   .     A
C878   C532    1.384   1_565 S
C879   C881    1.401   .     A
C879   H893    1.084   .     S
C879   C529    1.384   1_565 S
C880   C882    1.401   .     A
C880   H894    1.084   .     S
C883   N898    1.387   .     A
C883   C907    1.473   .     S
C884   N897    1.387   .     A
C884   C918    1.473   .     S
C884   C1408   1.417   .     S
C885   N897    1.356   .     A
C885   H895    1.083   .     S
C885   C1405   1.417   .     S
C886   N898    1.356   .     A
C886   H896    1.083   .     S
Cu887  O906    1.954   .     S
Cu887  O899    1.954   .     S
Cu887  Cu888   2.695   .     S
Cu887  O903    1.948   .     S
Cu887  N897    2.025   .     S
Cu887  O902    1.958   .     S
Cu888  O905    1.954   .     S
Cu888  O900    1.954   .     S
Cu888  O904    1.948   .     S
Cu888  N898    2.025   .     S
Cu888  O901    1.958   .     S
H889   C933    1.087   .     S
H890   C992    1.087   1_455 S
C907   C908    1.404   .     A
C907   C912    1.404   .     A
C908   H913    1.082   .     S
C908   C909    1.399   .     A
C909   C910    1.398   .     A
C909   H1030   1.083   1_455 S
C910   C911    1.398   .     A
C910   H1031   1.082   1_455 S
C911   H916    1.082   .     S
C911   C912    1.399   .     A
C912   H917    1.082   .     S
H914   C967    1.083   .     S
H915   C968    1.082   .     S
C918   C923    1.404   .     A
C918   C919    1.404   .     A
C919   H924    1.082   .     S
C919   C920    1.399   .     A
C920   C921    1.398   .     A
C920   H983    1.083   .     S
C921   C922    1.398   .     A
C921   H984    1.082   .     S
C922   H927    1.082   .     S
C922   C923    1.399   .     A
C923   H928    1.082   .     S
H925   C1036   1.083   1_455 S
H926   C1037   1.082   1_455 S
C929   O957    1.293   .     A
C929   C940    1.444   .     S
C929   O959    1.297   .     A
C930   C939    1.444   .     S
C930   O960    1.297   .     A
C930   O958    1.293   .     A
C931   O963    1.296   .     A
C931   O961    1.288   .     A
C931   C933    1.434   .     S
C932   O964    1.296   .     A
C932   O962    1.288   .     A
C932   C934    1.434   .     S
C934   C991    1.339   .     S
C934   H1006   1.087   .     S
C935   C940    1.398   .     A
C935   H949    1.083   .     S
C936   H950    1.083   .     S
C936   C939    1.398   .     A
C936   C590    1.384   1_565 S
C937   C939    1.401   .     A
C937   H951    1.084   .     S
C937   C587    1.384   1_565 S
C938   C940    1.401   .     A
C938   H952    1.084   .     S
C941   N956    1.387   .     A
C941   C965    1.473   .     S
C942   N955    1.387   .     A
C942   C976    1.473   .     S
C942   C1466   1.417   .     S
C943   N955    1.356   .     A
C943   H953    1.083   .     S
C943   C1463   1.417   .     S
C944   N956    1.356   .     A
C944   H954    1.083   .     S
Cu945  O964    1.954   .     S
Cu945  O957    1.954   .     S
Cu945  Cu946   2.695   .     S
Cu945  O961    1.948   .     S
Cu945  N955    2.025   .     S
Cu945  O960    1.958   .     S
Cu946  O963    1.954   .     S
Cu946  O958    1.954   .     S
Cu946  O962    1.948   .     S
Cu946  N956    2.025   .     S
Cu946  O959    1.958   .     S
H947   C991    1.087   .     S
C965   C966    1.404   .     A
C965   C970    1.404   .     A
C966   H971    1.082   .     S
C966   C967    1.399   .     A
C967   C968    1.398   .     A
C968   C969    1.398   .     A
C969   H974    1.082   .     S
C969   C970    1.399   .     A
C970   H975    1.082   .     S
H972   C1025   1.083   .     S
H973   C1026   1.082   .     S
C976   C981    1.404   .     A
C976   C977    1.404   .     A
C977   H982    1.082   .     S
C977   C978    1.399   .     A
C978   C979    1.398   .     A
C978   H1041   1.083   .     S
C979   C980    1.398   .     A
C979   H1042   1.082   .     S
C980   H985    1.082   .     S
C980   C981    1.399   .     A
C981   H986    1.082   .     S
C987   O1015   1.293   .     A
C987   C998    1.444   .     S
C987   O1017   1.297   .     A
C988   C997    1.444   .     S
C988   O1018   1.297   .     A
C988   O1016   1.293   .     A
C989   O1021   1.296   .     A
C989   O1019   1.288   .     A
C989   C991    1.434   .     S
C990   O1022   1.296   .     A
C990   O1020   1.288   .     A
C990   C992    1.434   .     S
C992   C875    1.339   1_655 S
C992   H890    1.087   1_655 S
C993   C998    1.398   .     A
C993   H1007   1.083   .     S
C994   H1008   1.083   .     S
C994   C997    1.398   .     A
C994   C648    1.384   1_565 S
C995   C997    1.401   .     A
C995   H1009   1.084   .     S
C995   C645    1.384   1_565 S
C996   C998    1.401   .     A
C996   H1010   1.084   .     S
C999   N1014   1.387   .     A
C999   C1023   1.473   .     S
C1000  N1013   1.387   .     A
C1000  C1034   1.473   .     S
C1000  C1524   1.417   .     S
C1001  N1013   1.356   .     A
C1001  H1011   1.083   .     S
C1001  C1521   1.417   .     S
C1002  N1014   1.356   .     A
C1002  H1012   1.083   .     S
Cu1003 O1022   1.954   .     S
Cu1003 O1015   1.954   .     S
Cu1003 Cu1004  2.695   .     S
Cu1003 O1019   1.948   .     S
Cu1003 N1013   2.025   .     S
Cu1003 O1018   1.958   .     S
Cu1004 O1021   1.954   .     S
Cu1004 O1016   1.954   .     S
Cu1004 O1020   1.948   .     S
Cu1004 N1014   2.025   .     S
Cu1004 O1017   1.958   .     S
H1005  C875    1.087   1_655 S
C1023  C1024   1.404   .     A
C1023  C1028   1.404   .     A
C1024  H1029   1.082   .     S
C1024  C1025   1.399   .     A
C1025  C1026   1.398   .     A
C1026  C1027   1.398   .     A
C1027  H1032   1.082   .     S
C1027  C1028   1.399   .     A
C1028  H1033   1.082   .     S
H1030  C909    1.083   1_655 S
H1031  C910    1.082   1_655 S
C1034  C1039   1.404   .     A
C1034  C1035   1.404   .     A
C1035  H1040   1.082   .     S
C1035  C1036   1.399   .     A
C1036  C1037   1.398   .     A
C1036  H925    1.083   1_655 S
C1037  C1038   1.398   .     A
C1037  H926    1.082   1_655 S
C1038  H1043   1.082   .     S
C1038  C1039   1.399   .     A
C1039  H1044   1.082   .     S
C1045  O1073   1.293   .     A
C1045  C1056   1.444   .     S
C1045  O1075   1.297   .     A
C1046  C1055   1.444   .     S
C1046  O1076   1.297   .     A
C1046  O1074   1.293   .     A
C1047  O1079   1.296   .     A
C1047  O1077   1.288   .     A
C1047  C1049   1.434   .     S
C1048  O1080   1.296   .     A
C1048  O1078   1.288   .     A
C1048  C1050   1.434   .     S
C1049  C1166   1.339   1_455 S
C1049  H1179   1.087   1_455 S
C1050  C1107   1.339   .     S
C1050  H1122   1.087   .     S
C1051  C1056   1.398   .     A
C1051  H1065   1.083   .     S
C1051  C1401   1.384   1_545 S
C1052  H1066   1.083   .     S
C1052  C1055   1.398   .     A
C1052  C1228   1.384   .     S
C1053  C1055   1.401   .     A
C1053  H1067   1.084   .     S
C1053  C1225   1.384   .     S
C1054  C1056   1.401   .     A
C1054  H1068   1.084   .     S
C1054  C1400   1.384   1_545 S
C1057  N1072   1.387   .     A
C1057  C1081   1.473   .     S
C1058  N1071   1.387   .     A
C1058  C1092   1.473   .     S
C1058  C16     1.417   1_556 S
C1059  N1071   1.356   .     A
C1059  H1069   1.083   .     S
C1059  C13     1.417   1_556 S
C1060  N1072   1.356   .     A
C1060  H1070   1.083   .     S
Cu1061 O1080   1.954   .     S
Cu1061 O1073   1.954   .     S
Cu1061 Cu1062  2.695   .     S
Cu1061 O1077   1.948   .     S
Cu1061 N1071   2.025   .     S
Cu1061 O1076   1.958   .     S
Cu1062 O1079   1.954   .     S
Cu1062 O1074   1.954   .     S
Cu1062 O1078   1.948   .     S
Cu1062 N1072   2.025   .     S
Cu1062 O1075   1.958   .     S
H1063  C1107   1.087   .     S
H1064  C1166   1.087   1_455 S
C1081  C1082   1.404   .     A
C1081  C1086   1.404   .     A
C1082  H1087   1.082   .     S
C1082  C1083   1.399   .     A
C1083  C1084   1.398   .     A
C1083  H1204   1.083   1_455 S
C1084  C1085   1.398   .     A
C1084  H1205   1.082   1_455 S
C1085  H1090   1.082   .     S
C1085  C1086   1.399   .     A
C1086  H1091   1.082   .     S
H1088  C1141   1.083   .     S
H1089  C1142   1.082   .     S
C1092  C1097   1.404   .     A
C1092  C1093   1.404   .     A
C1093  H1098   1.082   .     S
C1093  C1094   1.399   .     A
C1094  C1095   1.398   .     A
C1094  H1157   1.083   .     S
C1095  C1096   1.398   .     A
C1095  H1158   1.082   .     S
C1096  H1101   1.082   .     S
C1096  C1097   1.399   .     A
C1097  H1102   1.082   .     S
H1099  C1210   1.083   1_455 S
H1100  C1211   1.082   1_455 S
C1103  O1131   1.293   .     A
C1103  C1114   1.444   .     S
C1103  O1133   1.297   .     A
C1104  C1113   1.444   .     S
C1104  O1134   1.297   .     A
C1104  O1132   1.293   .     A
C1105  O1137   1.296   .     A
C1105  O1135   1.288   .     A
C1105  C1107   1.434   .     S
C1106  O1138   1.296   .     A
C1106  O1136   1.288   .     A
C1106  C1108   1.434   .     S
C1108  C1165   1.339   .     S
C1108  H1180   1.087   .     S
C1109  C1114   1.398   .     A
C1109  H1123   1.083   .     S
C1109  C1459   1.384   1_545 S
C1110  H1124   1.083   .     S
C1110  C1113   1.398   .     A
C1110  C1286   1.384   .     S
C1111  C1113   1.401   .     A
C1111  H1125   1.084   .     S
C1111  C1283   1.384   .     S
C1112  C1114   1.401   .     A
C1112  H1126   1.084   .     S
C1112  C1458   1.384   1_545 S
C1115  N1130   1.387   .     A
C1115  C1139   1.473   .     S
C1116  N1129   1.387   .     A
C1116  C1150   1.473   .     S
C1116  C74     1.417   1_556 S
C1117  N1129   1.356   .     A
C1117  H1127   1.083   .     S
C1117  C71     1.417   1_556 S
C1118  N1130   1.356   .     A
C1118  H1128   1.083   .     S
Cu1119 O1138   1.954   .     S
Cu1119 O1131   1.954   .     S
Cu1119 Cu1120  2.695   .     S
Cu1119 O1135   1.948   .     S
Cu1119 N1129   2.025   .     S
Cu1119 O1134   1.958   .     S
Cu1120 O1137   1.954   .     S
Cu1120 O1132   1.954   .     S
Cu1120 O1136   1.948   .     S
Cu1120 N1130   2.025   .     S
Cu1120 O1133   1.958   .     S
H1121  C1165   1.087   .     S
C1139  C1140   1.404   .     A
C1139  C1144   1.404   .     A
C1140  H1145   1.082   .     S
C1140  C1141   1.399   .     A
C1141  C1142   1.398   .     A
C1142  C1143   1.398   .     A
C1143  H1148   1.082   .     S
C1143  C1144   1.399   .     A
C1144  H1149   1.082   .     S
H1146  C1199   1.083   .     S
H1147  C1200   1.082   .     S
C1150  C1155   1.404   .     A
C1150  C1151   1.404   .     A
C1151  H1156   1.082   .     S
C1151  C1152   1.399   .     A
C1152  C1153   1.398   .     A
C1152  H1215   1.083   .     S
C1153  C1154   1.398   .     A
C1153  H1216   1.082   .     S
C1154  H1159   1.082   .     S
C1154  C1155   1.399   .     A
C1155  H1160   1.082   .     S
C1161  O1189   1.293   .     A
C1161  C1172   1.444   .     S
C1161  O1191   1.297   .     A
C1162  C1171   1.444   .     S
C1162  O1192   1.297   .     A
C1162  O1190   1.293   .     A
C1163  O1195   1.296   .     A
C1163  O1193   1.288   .     A
C1163  C1165   1.434   .     S
C1164  O1196   1.296   .     A
C1164  O1194   1.288   .     A
C1164  C1166   1.434   .     S
C1166  C1049   1.339   1_655 S
C1166  H1064   1.087   1_655 S
C1167  C1172   1.398   .     A
C1167  H1181   1.083   .     S
C1167  C1517   1.384   1_545 S
C1168  H1182   1.083   .     S
C1168  C1171   1.398   .     A
C1168  C1344   1.384   .     S
C1169  C1171   1.401   .     A
C1169  H1183   1.084   .     S
C1169  C1341   1.384   .     S
C1170  C1172   1.401   .     A
C1170  H1184   1.084   .     S
C1170  C1516   1.384   1_545 S
C1173  N1188   1.387   .     A
C1173  C1197   1.473   .     S
C1174  N1187   1.387   .     A
C1174  C1208   1.473   .     S
C1174  C132    1.417   1_556 S
C1175  N1187   1.356   .     A
C1175  H1185   1.083   .     S
C1175  C129    1.417   1_556 S
C1176  N1188   1.356   .     A
C1176  H1186   1.083   .     S
Cu1177 O1196   1.954   .     S
Cu1177 O1189   1.954   .     S
Cu1177 Cu1178  2.695   .     S
Cu1177 O1193   1.948   .     S
Cu1177 N1187   2.025   .     S
Cu1177 O1192   1.958   .     S
Cu1178 O1195   1.954   .     S
Cu1178 O1190   1.954   .     S
Cu1178 O1194   1.948   .     S
Cu1178 N1188   2.025   .     S
Cu1178 O1191   1.958   .     S
H1179  C1049   1.087   1_655 S
C1197  C1198   1.404   .     A
C1197  C1202   1.404   .     A
C1198  H1203   1.082   .     S
C1198  C1199   1.399   .     A
C1199  C1200   1.398   .     A
C1200  C1201   1.398   .     A
C1201  H1206   1.082   .     S
C1201  C1202   1.399   .     A
C1202  H1207   1.082   .     S
H1204  C1083   1.083   1_655 S
H1205  C1084   1.082   1_655 S
C1208  C1213   1.404   .     A
C1208  C1209   1.404   .     A
C1209  H1214   1.082   .     S
C1209  C1210   1.399   .     A
C1210  C1211   1.398   .     A
C1210  H1099   1.083   1_655 S
C1211  C1212   1.398   .     A
C1211  H1100   1.082   1_655 S
C1212  H1217   1.082   .     S
C1212  C1213   1.399   .     A
C1213  H1218   1.082   .     S
C1219  O1247   1.293   .     A
C1219  C1230   1.444   .     S
C1219  O1249   1.297   .     A
C1220  C1229   1.444   .     S
C1220  O1250   1.297   .     A
C1220  O1248   1.293   .     A
C1221  O1253   1.296   .     A
C1221  O1251   1.288   .     A
C1221  C1223   1.434   .     S
C1222  O1254   1.296   .     A
C1222  O1252   1.288   .     A
C1222  C1224   1.434   .     S
C1223  C1340   1.339   1_455 S
C1223  H1353   1.087   1_455 S
C1224  C1281   1.339   .     S
C1224  H1296   1.087   .     S
C1225  C1230   1.398   .     A
C1225  H1239   1.083   .     S
C1226  H1240   1.083   .     S
C1226  C1229   1.398   .     A
C1226  C1402   1.384   .     S
C1227  C1229   1.401   .     A
C1227  H1241   1.084   .     S
C1227  C1399   1.384   .     S
C1228  C1230   1.401   .     A
C1228  H1242   1.084   .     S
C1231  N1246   1.387   .     A
C1231  C1255   1.473   .     S
C1232  N1245   1.387   .     A
C1232  C1266   1.473   .     S
C1232  C190    1.417   1_556 S
C1233  N1245   1.356   .     A
C1233  H1243   1.083   .     S
C1233  C187    1.417   1_556 S
C1234  N1246   1.356   .     A
C1234  H1244   1.083   .     S
Cu1235 O1254   1.954   .     S
Cu1235 O1247   1.954   .     S
Cu1235 Cu1236  2.695   .     S
Cu1235 O1251   1.948   .     S
Cu1235 N1245   2.025   .     S
Cu1235 O1250   1.958   .     S
Cu1236 O1253   1.954   .     S
Cu1236 O1248   1.954   .     S
Cu1236 O1252   1.948   .     S
Cu1236 N1246   2.025   .     S
Cu1236 O1249   1.958   .     S
H1237  C1281   1.087   .     S
H1238  C1340   1.087   1_455 S
C1255  C1256   1.404   .     A
C1255  C1260   1.404   .     A
C1256  H1261   1.082   .     S
C1256  C1257   1.399   .     A
C1257  C1258   1.398   .     A
C1257  H1378   1.083   1_455 S
C1258  C1259   1.398   .     A
C1258  H1379   1.082   1_455 S
C1259  H1264   1.082   .     S
C1259  C1260   1.399   .     A
C1260  H1265   1.082   .     S
H1262  C1315   1.083   .     S
H1263  C1316   1.082   .     S
C1266  C1271   1.404   .     A
C1266  C1267   1.404   .     A
C1267  H1272   1.082   .     S
C1267  C1268   1.399   .     A
C1268  C1269   1.398   .     A
C1268  H1331   1.083   .     S
C1269  C1270   1.398   .     A
C1269  H1332   1.082   .     S
C1270  H1275   1.082   .     S
C1270  C1271   1.399   .     A
C1271  H1276   1.082   .     S
H1273  C1384   1.083   1_455 S
H1274  C1385   1.082   1_455 S
C1277  O1305   1.293   .     A
C1277  C1288   1.444   .     S
C1277  O1307   1.297   .     A
C1278  C1287   1.444   .     S
C1278  O1308   1.297   .     A
C1278  O1306   1.293   .     A
C1279  O1311   1.296   .     A
C1279  O1309   1.288   .     A
C1279  C1281   1.434   .     S
C1280  O1312   1.296   .     A
C1280  O1310   1.288   .     A
C1280  C1282   1.434   .     S
C1282  C1339   1.339   .     S
C1282  H1354   1.087   .     S
C1283  C1288   1.398   .     A
C1283  H1297   1.083   .     S
C1284  H1298   1.083   .     S
C1284  C1287   1.398   .     A
C1284  C1460   1.384   .     S
C1285  C1287   1.401   .     A
C1285  H1299   1.084   .     S
C1285  C1457   1.384   .     S
C1286  C1288   1.401   .     A
C1286  H1300   1.084   .     S
C1289  N1304   1.387   .     A
C1289  C1313   1.473   .     S
C1290  N1303   1.387   .     A
C1290  C1324   1.473   .     S
C1290  C248    1.417   1_556 S
C1291  N1303   1.356   .     A
C1291  H1301   1.083   .     S
C1291  C245    1.417   1_556 S
C1292  N1304   1.356   .     A
C1292  H1302   1.083   .     S
Cu1293 O1312   1.954   .     S
Cu1293 O1305   1.954   .     S
Cu1293 Cu1294  2.695   .     S
Cu1293 O1309   1.948   .     S
Cu1293 N1303   2.025   .     S
Cu1293 O1308   1.958   .     S
Cu1294 O1311   1.954   .     S
Cu1294 O1306   1.954   .     S
Cu1294 O1310   1.948   .     S
Cu1294 N1304   2.025   .     S
Cu1294 O1307   1.958   .     S
H1295  C1339   1.087   .     S
C1313  C1314   1.404   .     A
C1313  C1318   1.404   .     A
C1314  H1319   1.082   .     S
C1314  C1315   1.399   .     A
C1315  C1316   1.398   .     A
C1316  C1317   1.398   .     A
C1317  H1322   1.082   .     S
C1317  C1318   1.399   .     A
C1318  H1323   1.082   .     S
H1320  C1373   1.083   .     S
H1321  C1374   1.082   .     S
C1324  C1329   1.404   .     A
C1324  C1325   1.404   .     A
C1325  H1330   1.082   .     S
C1325  C1326   1.399   .     A
C1326  C1327   1.398   .     A
C1326  H1389   1.083   .     S
C1327  C1328   1.398   .     A
C1327  H1390   1.082   .     S
C1328  H1333   1.082   .     S
C1328  C1329   1.399   .     A
C1329  H1334   1.082   .     S
C1335  O1363   1.293   .     A
C1335  C1346   1.444   .     S
C1335  O1365   1.297   .     A
C1336  C1345   1.444   .     S
C1336  O1366   1.297   .     A
C1336  O1364   1.293   .     A
C1337  O1369   1.296   .     A
C1337  O1367   1.288   .     A
C1337  C1339   1.434   .     S
C1338  O1370   1.296   .     A
C1338  O1368   1.288   .     A
C1338  C1340   1.434   .     S
C1340  C1223   1.339   1_655 S
C1340  H1238   1.087   1_655 S
C1341  C1346   1.398   .     A
C1341  H1355   1.083   .     S
C1342  H1356   1.083   .     S
C1342  C1345   1.398   .     A
C1342  C1518   1.384   .     S
C1343  C1345   1.401   .     A
C1343  H1357   1.084   .     S
C1343  C1515   1.384   .     S
C1344  C1346   1.401   .     A
C1344  H1358   1.084   .     S
C1347  N1362   1.387   .     A
C1347  C1371   1.473   .     S
C1348  N1361   1.387   .     A
C1348  C1382   1.473   .     S
C1348  C306    1.417   1_556 S
C1349  N1361   1.356   .     A
C1349  H1359   1.083   .     S
C1349  C303    1.417   1_556 S
C1350  N1362   1.356   .     A
C1350  H1360   1.083   .     S
Cu1351 O1370   1.954   .     S
Cu1351 O1363   1.954   .     S
Cu1351 Cu1352  2.695   .     S
Cu1351 O1367   1.948   .     S
Cu1351 N1361   2.025   .     S
Cu1351 O1366   1.958   .     S
Cu1352 O1369   1.954   .     S
Cu1352 O1364   1.954   .     S
Cu1352 O1368   1.948   .     S
Cu1352 N1362   2.025   .     S
Cu1352 O1365   1.958   .     S
H1353  C1223   1.087   1_655 S
C1371  C1372   1.404   .     A
C1371  C1376   1.404   .     A
C1372  H1377   1.082   .     S
C1372  C1373   1.399   .     A
C1373  C1374   1.398   .     A
C1374  C1375   1.398   .     A
C1375  H1380   1.082   .     S
C1375  C1376   1.399   .     A
C1376  H1381   1.082   .     S
H1378  C1257   1.083   1_655 S
H1379  C1258   1.082   1_655 S
C1382  C1387   1.404   .     A
C1382  C1383   1.404   .     A
C1383  H1388   1.082   .     S
C1383  C1384   1.399   .     A
C1384  C1385   1.398   .     A
C1384  H1273   1.083   1_655 S
C1385  C1386   1.398   .     A
C1385  H1274   1.082   1_655 S
C1386  H1391   1.082   .     S
C1386  C1387   1.399   .     A
C1387  H1392   1.082   .     S
C1393  O1421   1.293   .     A
C1393  C1404   1.444   .     S
C1393  O1423   1.297   .     A
C1394  C1403   1.444   .     S
C1394  O1424   1.297   .     A
C1394  O1422   1.293   .     A
C1395  O1427   1.296   .     A
C1395  O1425   1.288   .     A
C1395  C1397   1.434   .     S
C1396  O1428   1.296   .     A
C1396  O1426   1.288   .     A
C1396  C1398   1.434   .     S
C1397  C1514   1.339   1_455 S
C1397  H1527   1.087   1_455 S
C1398  C1455   1.339   .     S
C1398  H1470   1.087   .     S
C1399  C1404   1.398   .     A
C1399  H1413   1.083   .     S
C1400  H1414   1.083   .     S
C1400  C1403   1.398   .     A
C1400  C1054   1.384   1_565 S
C1401  C1403   1.401   .     A
C1401  H1415   1.084   .     S
C1401  C1051   1.384   1_565 S
C1402  C1404   1.401   .     A
C1402  H1416   1.084   .     S
C1405  N1420   1.387   .     A
C1405  C1429   1.473   .     S
C1406  N1419   1.387   .     A
C1406  C1440   1.473   .     S
C1406  C364    1.417   1_556 S
C1407  N1419   1.356   .     A
C1407  H1417   1.083   .     S
C1407  C361    1.417   1_556 S
C1408  N1420   1.356   .     A
C1408  H1418   1.083   .     S
Cu1409 O1428   1.954   .     S
Cu1409 O1421   1.954   .     S
Cu1409 Cu1410  2.695   .     S
Cu1409 O1425   1.948   .     S
Cu1409 N1419   2.025   .     S
Cu1409 O1424   1.958   .     S
Cu1410 O1427   1.954   .     S
Cu1410 O1422   1.954   .     S
Cu1410 O1426   1.948   .     S
Cu1410 N1420   2.025   .     S
Cu1410 O1423   1.958   .     S
H1411  C1455   1.087   .     S
H1412  C1514   1.087   1_455 S
C1429  C1430   1.404   .     A
C1429  C1434   1.404   .     A
C1430  H1435   1.082   .     S
C1430  C1431   1.399   .     A
C1431  C1432   1.398   .     A
C1431  H1552   1.083   1_455 S
C1432  C1433   1.398   .     A
C1432  H1553   1.082   1_455 S
C1433  H1438   1.082   .     S
C1433  C1434   1.399   .     A
C1434  H1439   1.082   .     S
H1436  C1489   1.083   .     S
H1437  C1490   1.082   .     S
C1440  C1445   1.404   .     A
C1440  C1441   1.404   .     A
C1441  H1446   1.082   .     S
C1441  C1442   1.399   .     A
C1442  C1443   1.398   .     A
C1442  H1505   1.083   .     S
C1443  C1444   1.398   .     A
C1443  H1506   1.082   .     S
C1444  H1449   1.082   .     S
C1444  C1445   1.399   .     A
C1445  H1450   1.082   .     S
H1447  C1558   1.083   1_455 S
H1448  C1559   1.082   1_455 S
C1451  O1479   1.293   .     A
C1451  C1462   1.444   .     S
C1451  O1481   1.297   .     A
C1452  C1461   1.444   .     S
C1452  O1482   1.297   .     A
C1452  O1480   1.293   .     A
C1453  O1485   1.296   .     A
C1453  O1483   1.288   .     A
C1453  C1455   1.434   .     S
C1454  O1486   1.296   .     A
C1454  O1484   1.288   .     A
C1454  C1456   1.434   .     S
C1456  C1513   1.339   .     S
C1456  H1528   1.087   .     S
C1457  C1462   1.398   .     A
C1457  H1471   1.083   .     S
C1458  H1472   1.083   .     S
C1458  C1461   1.398   .     A
C1458  C1112   1.384   1_565 S
C1459  C1461   1.401   .     A
C1459  H1473   1.084   .     S
C1459  C1109   1.384   1_565 S
C1460  C1462   1.401   .     A
C1460  H1474   1.084   .     S
C1463  N1478   1.387   .     A
C1463  C1487   1.473   .     S
C1464  N1477   1.387   .     A
C1464  C1498   1.473   .     S
C1464  C422    1.417   1_556 S
C1465  N1477   1.356   .     A
C1465  H1475   1.083   .     S
C1465  C419    1.417   1_556 S
C1466  N1478   1.356   .     A
C1466  H1476   1.083   .     S
Cu1467 O1486   1.954   .     S
Cu1467 O1479   1.954   .     S
Cu1467 Cu1468  2.695   .     S
Cu1467 O1483   1.948   .     S
Cu1467 N1477   2.025   .     S
Cu1467 O1482   1.958   .     S
Cu1468 O1485   1.954   .     S
Cu1468 O1480   1.954   .     S
Cu1468 O1484   1.948   .     S
Cu1468 N1478   2.025   .     S
Cu1468 O1481   1.958   .     S
H1469  C1513   1.087   .     S
C1487  C1488   1.404   .     A
C1487  C1492   1.404   .     A
C1488  H1493   1.082   .     S
C1488  C1489   1.399   .     A
C1489  C1490   1.398   .     A
C1490  C1491   1.398   .     A
C1491  H1496   1.082   .     S
C1491  C1492   1.399   .     A
C1492  H1497   1.082   .     S
H1494  C1547   1.083   .     S
H1495  C1548   1.082   .     S
C1498  C1503   1.404   .     A
C1498  C1499   1.404   .     A
C1499  H1504   1.082   .     S
C1499  C1500   1.399   .     A
C1500  C1501   1.398   .     A
C1500  H1563   1.083   .     S
C1501  C1502   1.398   .     A
C1501  H1564   1.082   .     S
C1502  H1507   1.082   .     S
C1502  C1503   1.399   .     A
C1503  H1508   1.082   .     S
C1509  O1537   1.293   .     A
C1509  C1520   1.444   .     S
C1509  O1539   1.297   .     A
C1510  C1519   1.444   .     S
C1510  O1540   1.297   .     A
C1510  O1538   1.293   .     A
C1511  O1543   1.296   .     A
C1511  O1541   1.288   .     A
C1511  C1513   1.434   .     S
C1512  O1544   1.296   .     A
C1512  O1542   1.288   .     A
C1512  C1514   1.434   .     S
C1514  C1397   1.339   1_655 S
C1514  H1412   1.087   1_655 S
C1515  C1520   1.398   .     A
C1515  H1529   1.083   .     S
C1516  H1530   1.083   .     S
C1516  C1519   1.398   .     A
C1516  C1170   1.384   1_565 S
C1517  C1519   1.401   .     A
C1517  H1531   1.084   .     S
C1517  C1167   1.384   1_565 S
C1518  C1520   1.401   .     A
C1518  H1532   1.084   .     S
C1521  N1536   1.387   .     A
C1521  C1545   1.473   .     S
C1522  N1535   1.387   .     A
C1522  C1556   1.473   .     S
C1522  C480    1.417   1_556 S
C1523  N1535   1.356   .     A
C1523  H1533   1.083   .     S
C1523  C477    1.417   1_556 S
C1524  N1536   1.356   .     A
C1524  H1534   1.083   .     S
Cu1525 O1544   1.954   .     S
Cu1525 O1537   1.954   .     S
Cu1525 Cu1526  2.695   .     S
Cu1525 O1541   1.948   .     S
Cu1525 N1535   2.025   .     S
Cu1525 O1540   1.958   .     S
Cu1526 O1543   1.954   .     S
Cu1526 O1538   1.954   .     S
Cu1526 O1542   1.948   .     S
Cu1526 N1536   2.025   .     S
Cu1526 O1539   1.958   .     S
H1527  C1397   1.087   1_655 S
C1545  C1546   1.404   .     A
C1545  C1550   1.404   .     A
C1546  H1551   1.082   .     S
C1546  C1547   1.399   .     A
C1547  C1548   1.398   .     A
C1548  C1549   1.398   .     A
C1549  H1554   1.082   .     S
C1549  C1550   1.399   .     A
C1550  H1555   1.082   .     S
H1552  C1431   1.083   1_655 S
H1553  C1432   1.082   1_655 S
C1556  C1561   1.404   .     A
C1556  C1557   1.404   .     A
C1557  H1562   1.082   .     S
C1557  C1558   1.399   .     A
C1558  C1559   1.398   .     A
C1558  H1447   1.083   1_655 S
C1559  C1560   1.398   .     A
C1559  H1448   1.082   1_655 S
C1560  H1565   1.082   .     S
C1560  C1561   1.399   .     A
C1561  H1566   1.082   .     S
