data_str_m2_o2_o10_pcu_sym.121
_audit_creation_date              2020-01-03
_audit_creation_method            'Materials Studio'
_symmetry_space_group_name_H-M    'P1'
_symmetry_Int_Tables_number       1
_symmetry_cell_setting            triclinic
loop_
_symmetry_equiv_pos_as_xyz
  x,y,z
_cell_length_a                    26.4768
_cell_length_b                    30.1794
_cell_length_c                    28.1439
_cell_angle_alpha                 90.1344
_cell_angle_beta                  97.9583
_cell_angle_gamma                 93.3424
loop_
_atom_site_label
_atom_site_type_symbol
_atom_site_fract_x
_atom_site_fract_y
_atom_site_fract_z
_atom_site_U_iso_or_equiv
_atom_site_adp_type
_atom_site_occupancy
C1     C     0.16623   0.16531   0.24997   0.00000  Uiso   1.00
C2     C     0.19708   0.28054   0.44999   0.00000  Uiso   1.00
C3     C     0.16411   0.25188   0.02681   0.00000  Uiso   1.00
C4     C     0.16978   0.24778   0.47300   0.00000  Uiso   1.00
C5     C     0.06820   0.24917   0.23771   0.00000  Uiso   1.00
C6     C     0.26494   0.24901   0.26222   0.00000  Uiso   1.00
C7     C     0.01294   0.24717   0.23065   0.00000  Uiso   1.00
C8     C     0.31984   0.24719   0.26905   0.00000  Uiso   1.00
C9     C     0.20882   0.05022   0.27065   0.00000  Uiso   1.00
C10    C     0.12834   0.45069   0.26330   0.00000  Uiso   1.00
C11    C     0.20910   0.09631   0.27115   0.00000  Uiso   1.00
C12    C     0.16760   0.33475   0.25028   0.00000  Uiso   1.00
C13    C     0.12743   0.40460   0.26386   0.00000  Uiso   1.00
C14    C     0.16532   0.11708   0.25006   0.00000  Uiso   1.00
C15    C     0.16952   0.38309   0.25116   0.00000  Uiso   1.00
C16    C     0.12111   0.09162   0.22923   0.00000  Uiso   1.00
C17    C     0.21325   0.40801   0.23986   0.00000  Uiso   1.00
C18    C     0.12305   0.04509   0.22564   0.00000  Uiso   1.00
C19    C     0.21170   0.45456   0.23560   0.00000  Uiso   1.00
C20    C     0.16707   0.02453   0.24708   0.00000  Uiso   1.00
C21    C     0.16894   0.47574   0.24776   0.00000  Uiso   1.00
C22    C     0.30591   0.20161   0.16313   0.00000  Uiso   1.00
C23    C     0.18202   0.28945   0.05615   0.00000  Uiso   1.00
C24    C     0.01941   0.28633   0.34400   0.00000  Uiso   1.00
C25    C     0.25644   0.12279   0.29406   0.00000  Uiso   1.00
C26    C     0.08136   0.37896   0.27820   0.00000  Uiso   1.00
C27    C     0.07154   0.11306   0.21211   0.00000  Uiso   1.00
C28    C     0.26229   0.38614   0.23463   0.00000  Uiso   1.00
C29    C     0.08615   0.00713   0.15202   0.00000  Uiso   1.00
C30    C     0.24529   0.49082   0.16902   0.00000  Uiso   1.00
C31    C     0.18093   0.33612   0.03621   0.00000  Uiso   1.00
C32    C     0.15269   0.16355   0.46340   0.00000  Uiso   1.00
C33    C     0.22376   0.32080   0.13489   0.00000  Uiso   1.00
C34    C     0.15163   0.21027   0.44360   0.00000  Uiso   1.00
C35    C     0.10971   0.17884   0.36469   0.00000  Uiso   1.00
C36    C     0.11025   0.17900   0.11946   0.00000  Uiso   1.00
C37    C     0.22341   0.32107   0.38021   0.00000  Uiso   1.00
C38    C     0.18977   0.28514   0.10707   0.00000  Uiso   1.00
C39    C     0.14363   0.21470   0.39271   0.00000  Uiso   1.00
C40    C     0.13858   0.21793   0.10011   0.00000  Uiso   1.00
C41    C     0.19522   0.28190   0.39974   0.00000  Uiso   1.00
C42    C     0.13694   0.21912   0.04987   0.00000  Uiso   1.00
Cu43   Cu    0.16667   0.25000   0.29822   0.00000  Uiso   1.00
Cu44   Cu    0.16667   0.25001   0.20179   0.00000  Uiso   1.00
H45    H     0.24155   0.03411   0.28872   0.00000  Uiso   1.00
H46    H     0.00914   0.31517   0.32085   0.00000  Uiso   1.00
H47    H     0.06030   0.29092   0.35937   0.00000  Uiso   1.00
H48    H     0.32957   0.28567   0.37403   0.00000  Uiso   1.00
H49    H     0.27062   0.14575   0.26744   0.00000  Uiso   1.00
H50    H     0.24758   0.14228   0.32505   0.00000  Uiso   1.00
H51    H     0.28775   0.10109   0.30730   0.00000  Uiso   1.00
H52    H     0.09275   0.36009   0.31135   0.00000  Uiso   1.00
H53    H     0.05144   0.40125   0.28565   0.00000  Uiso   1.00
H54    H     0.06441   0.35562   0.24894   0.00000  Uiso   1.00
H55    H     0.06028   0.10675   0.17312   0.00000  Uiso   1.00
H56    H     0.09688   0.46734   0.27484   0.00000  Uiso   1.00
H57    H     0.04092   0.09911   0.23194   0.00000  Uiso   1.00
H58    H     0.07354   0.14932   0.21863   0.00000  Uiso   1.00
H59    H     0.29336   0.40032   0.26184   0.00000  Uiso   1.00
H60    H     0.26031   0.34996   0.24104   0.00000  Uiso   1.00
H61    H     0.27286   0.39208   0.19828   0.00000  Uiso   1.00
H62    H     0.04516   0.02853   0.20468   0.00000  Uiso   1.00
H63    H     0.05225   0.48598   0.13615   0.00000  Uiso   1.00
H64    H     0.12056   0.48804   0.15098   0.00000  Uiso   1.00
H65    H     0.08888   0.03760   0.13022   0.00000  Uiso   1.00
H66    H     0.28902   0.47036   0.23119   0.00000  Uiso   1.00
H67    H     0.11218   0.19467   0.02898   0.00000  Uiso   1.00
H68    H     0.27869   0.01152   0.16009   0.00000  Uiso   1.00
H69    H     0.21077   0.00998   0.16015   0.00000  Uiso   1.00
H70    H     0.24125   0.45986   0.14701   0.00000  Uiso   1.00
H71    H     0.15682   0.33732   0.00077   0.00000  Uiso   1.00
H72    H     0.16264   0.35805   0.05969   0.00000  Uiso   1.00
H73    H     0.22023   0.35027   0.03423   0.00000  Uiso   1.00
H74    H     0.17666   0.16226   0.49890   0.00000  Uiso   1.00
H75    H     0.11337   0.14936   0.46516   0.00000  Uiso   1.00
H76    H     0.17120   0.14174   0.43999   0.00000  Uiso   1.00
H77    H     0.24266   0.30910   0.16910   0.00000  Uiso   1.00
H78    H     0.22196   0.30488   0.47091   0.00000  Uiso   1.00
H79    H     0.25564   0.33155   0.11493   0.00000  Uiso   1.00
H80    H     0.20180   0.35015   0.14043   0.00000  Uiso   1.00
H81    H     0.09210   0.18943   0.32942   0.00000  Uiso   1.00
H82    H     0.13132   0.14897   0.36055   0.00000  Uiso   1.00
H83    H     0.07696   0.16917   0.38400   0.00000  Uiso   1.00
H84    H     0.09030   0.18907   0.14890   0.00000  Uiso   1.00
H85    H     0.08019   0.16366   0.09189   0.00000  Uiso   1.00
H86    H     0.13711   0.15296   0.13094   0.00000  Uiso   1.00
H87    H     0.24378   0.31177   0.35054   0.00000  Uiso   1.00
H88    H     0.19633   0.34699   0.36893   0.00000  Uiso   1.00
H89    H     0.00566   0.26528   0.15860   0.00000  Uiso   1.00
H90    H     0.25322   0.33655   0.40793   0.00000  Uiso   1.00
H91    H     0.28289   0.18272   0.18725   0.00000  Uiso   1.00
H92    H     0.00652   0.18306   0.15883   0.00000  Uiso   1.00
H93    H     0.28228   0.20415   0.12754   0.00000  Uiso   1.00
H94    H     0.33025   0.21892   0.33668   0.00000  Uiso   1.00
N95    N     0.16667   0.25001   0.12935   0.00000  Uiso   1.00
N96    N     0.16667   0.24999   0.37066   0.00000  Uiso   1.00
N97    N     0.32119   0.24576   0.18214   0.00000  Uiso   1.00
N98    N     0.01109   0.24471   0.31742   0.00000  Uiso   1.00
N99    N     0.08098   0.01864   0.20093   0.00000  Uiso   1.00
N100   N     0.25290   0.48037   0.21951   0.00000  Uiso   1.00
O101   O     0.16667   0.18573   0.29072   0.00000  Uiso   1.00
O102   O     0.16666   0.31428   0.20929   0.00000  Uiso   1.00
O103   O     0.16667   0.18573   0.20928   0.00000  Uiso   1.00
O104   O     0.16666   0.31427   0.29072   0.00000  Uiso   1.00
O105   O     0.09161   0.25000   0.28132   0.00000  Uiso   1.00
O106   O     0.24172   0.25001   0.21868   0.00000  Uiso   1.00
O107   O     0.09161   0.25000   0.19989   0.00000  Uiso   1.00
O108   O     0.24172   0.25000   0.30012   0.00000  Uiso   1.00
C109   C     0.49956   0.16531   0.24997   0.00000  Uiso   1.00
C110   C     0.53042   0.28054   0.44999   0.00000  Uiso   1.00
C111   C     0.49744   0.25188   0.02681   0.00000  Uiso   1.00
C112   C     0.50312   0.24778   0.47300   0.00000  Uiso   1.00
C113   C     0.40153   0.24917   0.23771   0.00000  Uiso   1.00
C114   C     0.59827   0.24901   0.26222   0.00000  Uiso   1.00
C115   C     0.34627   0.24717   0.23065   0.00000  Uiso   1.00
C116   C     0.65317   0.24719   0.26905   0.00000  Uiso   1.00
C117   C     0.54215   0.05022   0.27065   0.00000  Uiso   1.00
C118   C     0.46168   0.45069   0.26330   0.00000  Uiso   1.00
C119   C     0.54244   0.09631   0.27115   0.00000  Uiso   1.00
C120   C     0.50093   0.33475   0.25028   0.00000  Uiso   1.00
C121   C     0.46076   0.40460   0.26386   0.00000  Uiso   1.00
C122   C     0.49865   0.11708   0.25006   0.00000  Uiso   1.00
C123   C     0.50286   0.38309   0.25116   0.00000  Uiso   1.00
C124   C     0.45445   0.09162   0.22923   0.00000  Uiso   1.00
C125   C     0.54658   0.40801   0.23986   0.00000  Uiso   1.00
C126   C     0.45639   0.04509   0.22564   0.00000  Uiso   1.00
C127   C     0.54503   0.45456   0.23560   0.00000  Uiso   1.00
C128   C     0.50041   0.02453   0.24708   0.00000  Uiso   1.00
C129   C     0.50228   0.47574   0.24776   0.00000  Uiso   1.00
C130   C     0.63925   0.20161   0.16313   0.00000  Uiso   1.00
C131   C     0.51535   0.28945   0.05615   0.00000  Uiso   1.00
C132   C     0.35274   0.28633   0.34400   0.00000  Uiso   1.00
C133   C     0.58978   0.12279   0.29406   0.00000  Uiso   1.00
C134   C     0.41469   0.37896   0.27820   0.00000  Uiso   1.00
C135   C     0.40487   0.11306   0.21211   0.00000  Uiso   1.00
C136   C     0.59563   0.38614   0.23463   0.00000  Uiso   1.00
C137   C     0.41949   0.00713   0.15202   0.00000  Uiso   1.00
C138   C     0.57862   0.49082   0.16902   0.00000  Uiso   1.00
C139   C     0.51427   0.33612   0.03621   0.00000  Uiso   1.00
C140   C     0.48602   0.16355   0.46340   0.00000  Uiso   1.00
C141   C     0.55709   0.32080   0.13489   0.00000  Uiso   1.00
C142   C     0.48496   0.21027   0.44360   0.00000  Uiso   1.00
C143   C     0.44304   0.17884   0.36469   0.00000  Uiso   1.00
C144   C     0.44358   0.17900   0.11946   0.00000  Uiso   1.00
C145   C     0.55675   0.32107   0.38021   0.00000  Uiso   1.00
C146   C     0.52311   0.28514   0.10707   0.00000  Uiso   1.00
C147   C     0.47696   0.21470   0.39271   0.00000  Uiso   1.00
C148   C     0.47191   0.21793   0.10011   0.00000  Uiso   1.00
C149   C     0.52855   0.28190   0.39974   0.00000  Uiso   1.00
C150   C     0.47027   0.21912   0.04987   0.00000  Uiso   1.00
Cu151  Cu    0.50000   0.25000   0.29822   0.00000  Uiso   1.00
Cu152  Cu    0.50000   0.25001   0.20179   0.00000  Uiso   1.00
H153   H     0.57488   0.03411   0.28872   0.00000  Uiso   1.00
H154   H     0.34247   0.31517   0.32085   0.00000  Uiso   1.00
H155   H     0.39364   0.29092   0.35937   0.00000  Uiso   1.00
H156   H     0.66290   0.28567   0.37403   0.00000  Uiso   1.00
H157   H     0.60395   0.14575   0.26744   0.00000  Uiso   1.00
H158   H     0.58092   0.14228   0.32505   0.00000  Uiso   1.00
H159   H     0.62108   0.10109   0.30730   0.00000  Uiso   1.00
H160   H     0.42608   0.36009   0.31135   0.00000  Uiso   1.00
H161   H     0.38478   0.40125   0.28565   0.00000  Uiso   1.00
H162   H     0.39775   0.35562   0.24894   0.00000  Uiso   1.00
H163   H     0.39361   0.10675   0.17312   0.00000  Uiso   1.00
H164   H     0.43021   0.46734   0.27484   0.00000  Uiso   1.00
H165   H     0.37426   0.09911   0.23194   0.00000  Uiso   1.00
H166   H     0.40687   0.14932   0.21863   0.00000  Uiso   1.00
H167   H     0.62669   0.40032   0.26184   0.00000  Uiso   1.00
H168   H     0.59364   0.34996   0.24104   0.00000  Uiso   1.00
H169   H     0.60619   0.39208   0.19828   0.00000  Uiso   1.00
H170   H     0.37849   0.02853   0.20468   0.00000  Uiso   1.00
H171   H     0.38559   0.48598   0.13615   0.00000  Uiso   1.00
H172   H     0.45389   0.48804   0.15098   0.00000  Uiso   1.00
H173   H     0.42222   0.03760   0.13022   0.00000  Uiso   1.00
H174   H     0.62235   0.47036   0.23119   0.00000  Uiso   1.00
H175   H     0.44552   0.19467   0.02898   0.00000  Uiso   1.00
H176   H     0.61202   0.01152   0.16009   0.00000  Uiso   1.00
H177   H     0.54410   0.00998   0.16015   0.00000  Uiso   1.00
H178   H     0.57458   0.45986   0.14701   0.00000  Uiso   1.00
H179   H     0.49016   0.33732   0.00077   0.00000  Uiso   1.00
H180   H     0.49598   0.35805   0.05969   0.00000  Uiso   1.00
H181   H     0.55356   0.35027   0.03423   0.00000  Uiso   1.00
H182   H     0.51000   0.16226   0.49890   0.00000  Uiso   1.00
H183   H     0.44670   0.14936   0.46516   0.00000  Uiso   1.00
H184   H     0.50454   0.14174   0.43999   0.00000  Uiso   1.00
H185   H     0.57599   0.30910   0.16910   0.00000  Uiso   1.00
H186   H     0.55529   0.30488   0.47091   0.00000  Uiso   1.00
H187   H     0.58897   0.33155   0.11493   0.00000  Uiso   1.00
H188   H     0.53513   0.35015   0.14043   0.00000  Uiso   1.00
H189   H     0.42543   0.18943   0.32942   0.00000  Uiso   1.00
H190   H     0.46465   0.14897   0.36055   0.00000  Uiso   1.00
H191   H     0.41029   0.16917   0.38400   0.00000  Uiso   1.00
H192   H     0.42364   0.18907   0.14890   0.00000  Uiso   1.00
H193   H     0.41352   0.16366   0.09189   0.00000  Uiso   1.00
H194   H     0.47044   0.15296   0.13094   0.00000  Uiso   1.00
H195   H     0.57711   0.31177   0.35054   0.00000  Uiso   1.00
H196   H     0.52966   0.34699   0.36893   0.00000  Uiso   1.00
H197   H     0.33900   0.26528   0.15860   0.00000  Uiso   1.00
H198   H     0.58655   0.33655   0.40793   0.00000  Uiso   1.00
H199   H     0.61622   0.18272   0.18725   0.00000  Uiso   1.00
H200   H     0.33985   0.18306   0.15883   0.00000  Uiso   1.00
H201   H     0.61561   0.20415   0.12754   0.00000  Uiso   1.00
H202   H     0.66358   0.21892   0.33668   0.00000  Uiso   1.00
N203   N     0.50000   0.25001   0.12935   0.00000  Uiso   1.00
N204   N     0.50000   0.24999   0.37066   0.00000  Uiso   1.00
N205   N     0.65452   0.24576   0.18214   0.00000  Uiso   1.00
N206   N     0.34442   0.24471   0.31742   0.00000  Uiso   1.00
N207   N     0.41432   0.01864   0.20093   0.00000  Uiso   1.00
N208   N     0.58623   0.48037   0.21951   0.00000  Uiso   1.00
O209   O     0.50000   0.18573   0.29072   0.00000  Uiso   1.00
O210   O     0.50000   0.31428   0.20929   0.00000  Uiso   1.00
O211   O     0.50000   0.18573   0.20928   0.00000  Uiso   1.00
O212   O     0.50000   0.31427   0.29072   0.00000  Uiso   1.00
O213   O     0.42495   0.25000   0.28132   0.00000  Uiso   1.00
O214   O     0.57505   0.25001   0.21868   0.00000  Uiso   1.00
O215   O     0.42495   0.25000   0.19989   0.00000  Uiso   1.00
O216   O     0.57505   0.25000   0.30012   0.00000  Uiso   1.00
C217   C     0.83290   0.16531   0.24997   0.00000  Uiso   1.00
C218   C     0.86375   0.28054   0.44999   0.00000  Uiso   1.00
C219   C     0.83078   0.25188   0.02681   0.00000  Uiso   1.00
C220   C     0.83645   0.24778   0.47300   0.00000  Uiso   1.00
C221   C     0.73487   0.24917   0.23771   0.00000  Uiso   1.00
C222   C     0.93160   0.24901   0.26222   0.00000  Uiso   1.00
C223   C     0.67960   0.24717   0.23065   0.00000  Uiso   1.00
C224   C     0.98650   0.24719   0.26905   0.00000  Uiso   1.00
C225   C     0.87548   0.05022   0.27065   0.00000  Uiso   1.00
C226   C     0.79501   0.45069   0.26330   0.00000  Uiso   1.00
C227   C     0.87577   0.09631   0.27115   0.00000  Uiso   1.00
C228   C     0.83427   0.33475   0.25028   0.00000  Uiso   1.00
C229   C     0.79410   0.40460   0.26386   0.00000  Uiso   1.00
C230   C     0.83199   0.11708   0.25006   0.00000  Uiso   1.00
C231   C     0.83619   0.38309   0.25116   0.00000  Uiso   1.00
C232   C     0.78778   0.09162   0.22923   0.00000  Uiso   1.00
C233   C     0.87991   0.40801   0.23986   0.00000  Uiso   1.00
C234   C     0.78972   0.04509   0.22564   0.00000  Uiso   1.00
C235   C     0.87837   0.45456   0.23560   0.00000  Uiso   1.00
C236   C     0.83374   0.02453   0.24708   0.00000  Uiso   1.00
C237   C     0.83561   0.47574   0.24776   0.00000  Uiso   1.00
C238   C     0.97258   0.20161   0.16313   0.00000  Uiso   1.00
C239   C     0.84868   0.28945   0.05615   0.00000  Uiso   1.00
C240   C     0.68608   0.28633   0.34400   0.00000  Uiso   1.00
C241   C     0.92311   0.12279   0.29406   0.00000  Uiso   1.00
C242   C     0.74802   0.37896   0.27820   0.00000  Uiso   1.00
C243   C     0.73821   0.11306   0.21211   0.00000  Uiso   1.00
C244   C     0.92896   0.38614   0.23463   0.00000  Uiso   1.00
C245   C     0.75282   0.00713   0.15202   0.00000  Uiso   1.00
C246   C     0.91196   0.49082   0.16902   0.00000  Uiso   1.00
C247   C     0.84760   0.33612   0.03621   0.00000  Uiso   1.00
C248   C     0.81936   0.16355   0.46340   0.00000  Uiso   1.00
C249   C     0.89042   0.32080   0.13489   0.00000  Uiso   1.00
C250   C     0.81829   0.21027   0.44360   0.00000  Uiso   1.00
C251   C     0.77637   0.17884   0.36469   0.00000  Uiso   1.00
C252   C     0.77692   0.17900   0.11946   0.00000  Uiso   1.00
C253   C     0.89008   0.32107   0.38021   0.00000  Uiso   1.00
C254   C     0.85644   0.28514   0.10707   0.00000  Uiso   1.00
C255   C     0.81029   0.21470   0.39271   0.00000  Uiso   1.00
C256   C     0.80525   0.21793   0.10011   0.00000  Uiso   1.00
C257   C     0.86188   0.28190   0.39974   0.00000  Uiso   1.00
C258   C     0.80360   0.21912   0.04987   0.00000  Uiso   1.00
Cu259  Cu    0.83333   0.25000   0.29822   0.00000  Uiso   1.00
Cu260  Cu    0.83333   0.25001   0.20179   0.00000  Uiso   1.00
H261   H     0.90822   0.03411   0.28872   0.00000  Uiso   1.00
H262   H     0.67581   0.31517   0.32085   0.00000  Uiso   1.00
H263   H     0.72697   0.29092   0.35937   0.00000  Uiso   1.00
H264   H     0.99624   0.28567   0.37403   0.00000  Uiso   1.00
H265   H     0.93728   0.14575   0.26744   0.00000  Uiso   1.00
H266   H     0.91425   0.14228   0.32505   0.00000  Uiso   1.00
H267   H     0.95442   0.10109   0.30730   0.00000  Uiso   1.00
H268   H     0.75941   0.36009   0.31135   0.00000  Uiso   1.00
H269   H     0.71811   0.40125   0.28565   0.00000  Uiso   1.00
H270   H     0.73108   0.35562   0.24894   0.00000  Uiso   1.00
H271   H     0.72694   0.10675   0.17312   0.00000  Uiso   1.00
H272   H     0.76354   0.46734   0.27484   0.00000  Uiso   1.00
H273   H     0.70759   0.09911   0.23194   0.00000  Uiso   1.00
H274   H     0.74020   0.14932   0.21863   0.00000  Uiso   1.00
H275   H     0.96002   0.40032   0.26184   0.00000  Uiso   1.00
H276   H     0.92698   0.34996   0.24104   0.00000  Uiso   1.00
H277   H     0.93953   0.39208   0.19828   0.00000  Uiso   1.00
H278   H     0.71183   0.02853   0.20468   0.00000  Uiso   1.00
H279   H     0.71892   0.48598   0.13615   0.00000  Uiso   1.00
H280   H     0.78722   0.48804   0.15098   0.00000  Uiso   1.00
H281   H     0.75555   0.03760   0.13022   0.00000  Uiso   1.00
H282   H     0.95568   0.47036   0.23119   0.00000  Uiso   1.00
H283   H     0.77885   0.19467   0.02898   0.00000  Uiso   1.00
H284   H     0.94536   0.01152   0.16009   0.00000  Uiso   1.00
H285   H     0.87744   0.00998   0.16015   0.00000  Uiso   1.00
H286   H     0.90792   0.45986   0.14701   0.00000  Uiso   1.00
H287   H     0.82349   0.33732   0.00077   0.00000  Uiso   1.00
H288   H     0.82931   0.35805   0.05969   0.00000  Uiso   1.00
H289   H     0.88689   0.35027   0.03423   0.00000  Uiso   1.00
H290   H     0.84333   0.16226   0.49890   0.00000  Uiso   1.00
H291   H     0.78003   0.14936   0.46516   0.00000  Uiso   1.00
H292   H     0.83787   0.14174   0.43999   0.00000  Uiso   1.00
H293   H     0.90932   0.30910   0.16910   0.00000  Uiso   1.00
H294   H     0.88862   0.30488   0.47091   0.00000  Uiso   1.00
H295   H     0.92230   0.33155   0.11493   0.00000  Uiso   1.00
H296   H     0.86847   0.35015   0.14043   0.00000  Uiso   1.00
H297   H     0.75876   0.18943   0.32942   0.00000  Uiso   1.00
H298   H     0.79799   0.14897   0.36055   0.00000  Uiso   1.00
H299   H     0.74362   0.16917   0.38400   0.00000  Uiso   1.00
H300   H     0.75697   0.18907   0.14890   0.00000  Uiso   1.00
H301   H     0.74685   0.16366   0.09189   0.00000  Uiso   1.00
H302   H     0.80378   0.15296   0.13094   0.00000  Uiso   1.00
H303   H     0.91044   0.31177   0.35054   0.00000  Uiso   1.00
H304   H     0.86299   0.34699   0.36893   0.00000  Uiso   1.00
H305   H     0.67233   0.26528   0.15860   0.00000  Uiso   1.00
H306   H     0.91988   0.33655   0.40793   0.00000  Uiso   1.00
H307   H     0.94956   0.18272   0.18725   0.00000  Uiso   1.00
H308   H     0.67319   0.18306   0.15883   0.00000  Uiso   1.00
H309   H     0.94894   0.20415   0.12754   0.00000  Uiso   1.00
H310   H     0.99692   0.21892   0.33668   0.00000  Uiso   1.00
N311   N     0.83333   0.25001   0.12935   0.00000  Uiso   1.00
N312   N     0.83333   0.24999   0.37066   0.00000  Uiso   1.00
N313   N     0.98786   0.24576   0.18214   0.00000  Uiso   1.00
N314   N     0.67776   0.24471   0.31742   0.00000  Uiso   1.00
N315   N     0.74765   0.01864   0.20093   0.00000  Uiso   1.00
N316   N     0.91957   0.48037   0.21951   0.00000  Uiso   1.00
O317   O     0.83334   0.18573   0.29072   0.00000  Uiso   1.00
O318   O     0.83333   0.31428   0.20929   0.00000  Uiso   1.00
O319   O     0.83334   0.18573   0.20928   0.00000  Uiso   1.00
O320   O     0.83333   0.31427   0.29072   0.00000  Uiso   1.00
O321   O     0.75828   0.25000   0.28132   0.00000  Uiso   1.00
O322   O     0.90839   0.25001   0.21868   0.00000  Uiso   1.00
O323   O     0.75828   0.25000   0.19989   0.00000  Uiso   1.00
O324   O     0.90839   0.25000   0.30012   0.00000  Uiso   1.00
C325   C     0.16623   0.66531   0.24997   0.00000  Uiso   1.00
C326   C     0.19708   0.78054   0.44999   0.00000  Uiso   1.00
C327   C     0.16411   0.75188   0.02681   0.00000  Uiso   1.00
C328   C     0.16978   0.74778   0.47300   0.00000  Uiso   1.00
C329   C     0.06820   0.74917   0.23771   0.00000  Uiso   1.00
C330   C     0.26494   0.74901   0.26222   0.00000  Uiso   1.00
C331   C     0.01294   0.74717   0.23065   0.00000  Uiso   1.00
C332   C     0.31984   0.74719   0.26905   0.00000  Uiso   1.00
C333   C     0.20882   0.55022   0.27065   0.00000  Uiso   1.00
C334   C     0.12834   0.95069   0.26330   0.00000  Uiso   1.00
C335   C     0.20910   0.59631   0.27115   0.00000  Uiso   1.00
C336   C     0.16760   0.83475   0.25028   0.00000  Uiso   1.00
C337   C     0.12743   0.90460   0.26386   0.00000  Uiso   1.00
C338   C     0.16532   0.61708   0.25006   0.00000  Uiso   1.00
C339   C     0.16952   0.88309   0.25116   0.00000  Uiso   1.00
C340   C     0.12111   0.59162   0.22923   0.00000  Uiso   1.00
C341   C     0.21325   0.90801   0.23986   0.00000  Uiso   1.00
C342   C     0.12305   0.54509   0.22564   0.00000  Uiso   1.00
C343   C     0.21170   0.95456   0.23560   0.00000  Uiso   1.00
C344   C     0.16707   0.52453   0.24708   0.00000  Uiso   1.00
C345   C     0.16894   0.97574   0.24776   0.00000  Uiso   1.00
C346   C     0.30591   0.70161   0.16313   0.00000  Uiso   1.00
C347   C     0.18202   0.78945   0.05615   0.00000  Uiso   1.00
C348   C     0.01941   0.78633   0.34400   0.00000  Uiso   1.00
C349   C     0.25644   0.62279   0.29406   0.00000  Uiso   1.00
C350   C     0.08136   0.87896   0.27820   0.00000  Uiso   1.00
C351   C     0.07154   0.61306   0.21211   0.00000  Uiso   1.00
C352   C     0.26229   0.88614   0.23463   0.00000  Uiso   1.00
C353   C     0.08615   0.50713   0.15202   0.00000  Uiso   1.00
C354   C     0.24529   0.99082   0.16902   0.00000  Uiso   1.00
C355   C     0.18093   0.83612   0.03621   0.00000  Uiso   1.00
C356   C     0.15269   0.66355   0.46340   0.00000  Uiso   1.00
C357   C     0.22376   0.82080   0.13489   0.00000  Uiso   1.00
C358   C     0.15163   0.71027   0.44360   0.00000  Uiso   1.00
C359   C     0.10971   0.67884   0.36469   0.00000  Uiso   1.00
C360   C     0.11025   0.67900   0.11946   0.00000  Uiso   1.00
C361   C     0.22341   0.82107   0.38021   0.00000  Uiso   1.00
C362   C     0.18977   0.78514   0.10707   0.00000  Uiso   1.00
C363   C     0.14363   0.71470   0.39271   0.00000  Uiso   1.00
C364   C     0.13858   0.71793   0.10011   0.00000  Uiso   1.00
C365   C     0.19522   0.78190   0.39974   0.00000  Uiso   1.00
C366   C     0.13694   0.71912   0.04987   0.00000  Uiso   1.00
Cu367  Cu    0.16667   0.75000   0.29822   0.00000  Uiso   1.00
Cu368  Cu    0.16667   0.75001   0.20179   0.00000  Uiso   1.00
H369   H     0.24155   0.53411   0.28872   0.00000  Uiso   1.00
H370   H     0.00914   0.81517   0.32085   0.00000  Uiso   1.00
H371   H     0.06030   0.79092   0.35937   0.00000  Uiso   1.00
H372   H     0.32957   0.78567   0.37403   0.00000  Uiso   1.00
H373   H     0.27062   0.64575   0.26744   0.00000  Uiso   1.00
H374   H     0.24758   0.64228   0.32505   0.00000  Uiso   1.00
H375   H     0.28775   0.60109   0.30730   0.00000  Uiso   1.00
H376   H     0.09275   0.86009   0.31135   0.00000  Uiso   1.00
H377   H     0.05144   0.90125   0.28565   0.00000  Uiso   1.00
H378   H     0.06441   0.85562   0.24894   0.00000  Uiso   1.00
H379   H     0.06028   0.60675   0.17312   0.00000  Uiso   1.00
H380   H     0.09688   0.96734   0.27484   0.00000  Uiso   1.00
H381   H     0.04092   0.59911   0.23194   0.00000  Uiso   1.00
H382   H     0.07354   0.64932   0.21863   0.00000  Uiso   1.00
H383   H     0.29336   0.90032   0.26184   0.00000  Uiso   1.00
H384   H     0.26031   0.84996   0.24104   0.00000  Uiso   1.00
H385   H     0.27286   0.89208   0.19828   0.00000  Uiso   1.00
H386   H     0.04516   0.52853   0.20468   0.00000  Uiso   1.00
H387   H     0.05225   0.98598   0.13615   0.00000  Uiso   1.00
H388   H     0.12056   0.98804   0.15098   0.00000  Uiso   1.00
H389   H     0.08888   0.53760   0.13022   0.00000  Uiso   1.00
H390   H     0.28902   0.97036   0.23119   0.00000  Uiso   1.00
H391   H     0.11218   0.69467   0.02898   0.00000  Uiso   1.00
H392   H     0.27869   0.51152   0.16009   0.00000  Uiso   1.00
H393   H     0.21077   0.50998   0.16015   0.00000  Uiso   1.00
H394   H     0.24125   0.95986   0.14701   0.00000  Uiso   1.00
H395   H     0.15682   0.83732   0.00077   0.00000  Uiso   1.00
H396   H     0.16264   0.85805   0.05969   0.00000  Uiso   1.00
H397   H     0.22023   0.85027   0.03423   0.00000  Uiso   1.00
H398   H     0.17666   0.66226   0.49890   0.00000  Uiso   1.00
H399   H     0.11337   0.64936   0.46516   0.00000  Uiso   1.00
H400   H     0.17120   0.64174   0.43999   0.00000  Uiso   1.00
H401   H     0.24266   0.80910   0.16910   0.00000  Uiso   1.00
H402   H     0.22196   0.80488   0.47091   0.00000  Uiso   1.00
H403   H     0.25564   0.83155   0.11493   0.00000  Uiso   1.00
H404   H     0.20180   0.85015   0.14043   0.00000  Uiso   1.00
H405   H     0.09210   0.68943   0.32942   0.00000  Uiso   1.00
H406   H     0.13132   0.64897   0.36055   0.00000  Uiso   1.00
H407   H     0.07696   0.66917   0.38400   0.00000  Uiso   1.00
H408   H     0.09030   0.68907   0.14890   0.00000  Uiso   1.00
H409   H     0.08019   0.66366   0.09189   0.00000  Uiso   1.00
H410   H     0.13711   0.65296   0.13094   0.00000  Uiso   1.00
H411   H     0.24378   0.81177   0.35054   0.00000  Uiso   1.00
H412   H     0.19633   0.84699   0.36893   0.00000  Uiso   1.00
H413   H     0.00566   0.76528   0.15860   0.00000  Uiso   1.00
H414   H     0.25322   0.83655   0.40793   0.00000  Uiso   1.00
H415   H     0.28289   0.68272   0.18725   0.00000  Uiso   1.00
H416   H     0.00652   0.68306   0.15883   0.00000  Uiso   1.00
H417   H     0.28228   0.70415   0.12754   0.00000  Uiso   1.00
H418   H     0.33025   0.71892   0.33668   0.00000  Uiso   1.00
N419   N     0.16667   0.75001   0.12935   0.00000  Uiso   1.00
N420   N     0.16667   0.74999   0.37066   0.00000  Uiso   1.00
N421   N     0.32119   0.74576   0.18214   0.00000  Uiso   1.00
N422   N     0.01109   0.74471   0.31742   0.00000  Uiso   1.00
N423   N     0.08098   0.51864   0.20093   0.00000  Uiso   1.00
N424   N     0.25290   0.98037   0.21951   0.00000  Uiso   1.00
O425   O     0.16667   0.68573   0.29072   0.00000  Uiso   1.00
O426   O     0.16666   0.81428   0.20929   0.00000  Uiso   1.00
O427   O     0.16667   0.68573   0.20928   0.00000  Uiso   1.00
O428   O     0.16666   0.81427   0.29072   0.00000  Uiso   1.00
O429   O     0.09161   0.75000   0.28132   0.00000  Uiso   1.00
O430   O     0.24172   0.75001   0.21868   0.00000  Uiso   1.00
O431   O     0.09161   0.75000   0.19989   0.00000  Uiso   1.00
O432   O     0.24172   0.75000   0.30012   0.00000  Uiso   1.00
C433   C     0.49956   0.66531   0.24997   0.00000  Uiso   1.00
C434   C     0.53042   0.78054   0.44999   0.00000  Uiso   1.00
C435   C     0.49744   0.75188   0.02681   0.00000  Uiso   1.00
C436   C     0.50312   0.74778   0.47300   0.00000  Uiso   1.00
C437   C     0.40153   0.74917   0.23771   0.00000  Uiso   1.00
C438   C     0.59827   0.74901   0.26222   0.00000  Uiso   1.00
C439   C     0.34627   0.74717   0.23065   0.00000  Uiso   1.00
C440   C     0.65317   0.74719   0.26905   0.00000  Uiso   1.00
C441   C     0.54215   0.55022   0.27065   0.00000  Uiso   1.00
C442   C     0.46168   0.95069   0.26330   0.00000  Uiso   1.00
C443   C     0.54244   0.59631   0.27115   0.00000  Uiso   1.00
C444   C     0.50093   0.83475   0.25028   0.00000  Uiso   1.00
C445   C     0.46076   0.90460   0.26386   0.00000  Uiso   1.00
C446   C     0.49865   0.61708   0.25006   0.00000  Uiso   1.00
C447   C     0.50286   0.88309   0.25116   0.00000  Uiso   1.00
C448   C     0.45445   0.59162   0.22923   0.00000  Uiso   1.00
C449   C     0.54658   0.90801   0.23986   0.00000  Uiso   1.00
C450   C     0.45639   0.54509   0.22564   0.00000  Uiso   1.00
C451   C     0.54503   0.95456   0.23560   0.00000  Uiso   1.00
C452   C     0.50041   0.52453   0.24708   0.00000  Uiso   1.00
C453   C     0.50228   0.97574   0.24776   0.00000  Uiso   1.00
C454   C     0.63925   0.70161   0.16313   0.00000  Uiso   1.00
C455   C     0.51535   0.78945   0.05615   0.00000  Uiso   1.00
C456   C     0.35274   0.78633   0.34400   0.00000  Uiso   1.00
C457   C     0.58978   0.62279   0.29406   0.00000  Uiso   1.00
C458   C     0.41469   0.87896   0.27820   0.00000  Uiso   1.00
C459   C     0.40487   0.61306   0.21211   0.00000  Uiso   1.00
C460   C     0.59563   0.88614   0.23463   0.00000  Uiso   1.00
C461   C     0.41949   0.50713   0.15202   0.00000  Uiso   1.00
C462   C     0.57862   0.99082   0.16902   0.00000  Uiso   1.00
C463   C     0.51427   0.83612   0.03621   0.00000  Uiso   1.00
C464   C     0.48602   0.66355   0.46340   0.00000  Uiso   1.00
C465   C     0.55709   0.82080   0.13489   0.00000  Uiso   1.00
C466   C     0.48496   0.71027   0.44360   0.00000  Uiso   1.00
C467   C     0.44304   0.67884   0.36469   0.00000  Uiso   1.00
C468   C     0.44358   0.67900   0.11946   0.00000  Uiso   1.00
C469   C     0.55675   0.82107   0.38021   0.00000  Uiso   1.00
C470   C     0.52311   0.78514   0.10707   0.00000  Uiso   1.00
C471   C     0.47696   0.71470   0.39271   0.00000  Uiso   1.00
C472   C     0.47191   0.71793   0.10011   0.00000  Uiso   1.00
C473   C     0.52855   0.78190   0.39974   0.00000  Uiso   1.00
C474   C     0.47027   0.71912   0.04987   0.00000  Uiso   1.00
Cu475  Cu    0.50000   0.75000   0.29822   0.00000  Uiso   1.00
Cu476  Cu    0.50000   0.75001   0.20179   0.00000  Uiso   1.00
H477   H     0.57488   0.53411   0.28872   0.00000  Uiso   1.00
H478   H     0.34247   0.81517   0.32085   0.00000  Uiso   1.00
H479   H     0.39364   0.79092   0.35937   0.00000  Uiso   1.00
H480   H     0.66290   0.78567   0.37403   0.00000  Uiso   1.00
H481   H     0.60395   0.64575   0.26744   0.00000  Uiso   1.00
H482   H     0.58092   0.64228   0.32505   0.00000  Uiso   1.00
H483   H     0.62108   0.60109   0.30730   0.00000  Uiso   1.00
H484   H     0.42608   0.86009   0.31135   0.00000  Uiso   1.00
H485   H     0.38478   0.90125   0.28565   0.00000  Uiso   1.00
H486   H     0.39775   0.85562   0.24894   0.00000  Uiso   1.00
H487   H     0.39361   0.60675   0.17312   0.00000  Uiso   1.00
H488   H     0.43021   0.96734   0.27484   0.00000  Uiso   1.00
H489   H     0.37426   0.59911   0.23194   0.00000  Uiso   1.00
H490   H     0.40687   0.64932   0.21863   0.00000  Uiso   1.00
H491   H     0.62669   0.90032   0.26184   0.00000  Uiso   1.00
H492   H     0.59364   0.84996   0.24104   0.00000  Uiso   1.00
H493   H     0.60619   0.89208   0.19828   0.00000  Uiso   1.00
H494   H     0.37849   0.52853   0.20468   0.00000  Uiso   1.00
H495   H     0.38559   0.98598   0.13615   0.00000  Uiso   1.00
H496   H     0.45389   0.98804   0.15098   0.00000  Uiso   1.00
H497   H     0.42222   0.53760   0.13022   0.00000  Uiso   1.00
H498   H     0.62235   0.97036   0.23119   0.00000  Uiso   1.00
H499   H     0.44552   0.69467   0.02898   0.00000  Uiso   1.00
H500   H     0.61202   0.51152   0.16009   0.00000  Uiso   1.00
H501   H     0.54410   0.50998   0.16015   0.00000  Uiso   1.00
H502   H     0.57458   0.95986   0.14701   0.00000  Uiso   1.00
H503   H     0.49016   0.83732   0.00077   0.00000  Uiso   1.00
H504   H     0.49598   0.85805   0.05969   0.00000  Uiso   1.00
H505   H     0.55356   0.85027   0.03423   0.00000  Uiso   1.00
H506   H     0.51000   0.66226   0.49890   0.00000  Uiso   1.00
H507   H     0.44670   0.64936   0.46516   0.00000  Uiso   1.00
H508   H     0.50454   0.64174   0.43999   0.00000  Uiso   1.00
H509   H     0.57599   0.80910   0.16910   0.00000  Uiso   1.00
H510   H     0.55529   0.80488   0.47091   0.00000  Uiso   1.00
H511   H     0.58897   0.83155   0.11493   0.00000  Uiso   1.00
H512   H     0.53513   0.85015   0.14043   0.00000  Uiso   1.00
H513   H     0.42543   0.68943   0.32942   0.00000  Uiso   1.00
H514   H     0.46465   0.64897   0.36055   0.00000  Uiso   1.00
H515   H     0.41029   0.66917   0.38400   0.00000  Uiso   1.00
H516   H     0.42364   0.68907   0.14890   0.00000  Uiso   1.00
H517   H     0.41352   0.66366   0.09189   0.00000  Uiso   1.00
H518   H     0.47044   0.65296   0.13094   0.00000  Uiso   1.00
H519   H     0.57711   0.81177   0.35054   0.00000  Uiso   1.00
H520   H     0.52966   0.84699   0.36893   0.00000  Uiso   1.00
H521   H     0.33900   0.76528   0.15860   0.00000  Uiso   1.00
H522   H     0.58655   0.83655   0.40793   0.00000  Uiso   1.00
H523   H     0.61622   0.68272   0.18725   0.00000  Uiso   1.00
H524   H     0.33985   0.68306   0.15883   0.00000  Uiso   1.00
H525   H     0.61561   0.70415   0.12754   0.00000  Uiso   1.00
H526   H     0.66358   0.71892   0.33668   0.00000  Uiso   1.00
N527   N     0.50000   0.75001   0.12935   0.00000  Uiso   1.00
N528   N     0.50000   0.74999   0.37066   0.00000  Uiso   1.00
N529   N     0.65452   0.74576   0.18214   0.00000  Uiso   1.00
N530   N     0.34442   0.74471   0.31742   0.00000  Uiso   1.00
N531   N     0.41432   0.51864   0.20093   0.00000  Uiso   1.00
N532   N     0.58623   0.98037   0.21951   0.00000  Uiso   1.00
O533   O     0.50000   0.68573   0.29072   0.00000  Uiso   1.00
O534   O     0.50000   0.81428   0.20929   0.00000  Uiso   1.00
O535   O     0.50000   0.68573   0.20928   0.00000  Uiso   1.00
O536   O     0.50000   0.81427   0.29072   0.00000  Uiso   1.00
O537   O     0.42495   0.75000   0.28132   0.00000  Uiso   1.00
O538   O     0.57505   0.75001   0.21868   0.00000  Uiso   1.00
O539   O     0.42495   0.75000   0.19989   0.00000  Uiso   1.00
O540   O     0.57505   0.75000   0.30012   0.00000  Uiso   1.00
C541   C     0.83290   0.66531   0.24997   0.00000  Uiso   1.00
C542   C     0.86375   0.78054   0.44999   0.00000  Uiso   1.00
C543   C     0.83078   0.75188   0.02681   0.00000  Uiso   1.00
C544   C     0.83645   0.74778   0.47300   0.00000  Uiso   1.00
C545   C     0.73487   0.74917   0.23771   0.00000  Uiso   1.00
C546   C     0.93160   0.74901   0.26222   0.00000  Uiso   1.00
C547   C     0.67960   0.74717   0.23065   0.00000  Uiso   1.00
C548   C     0.98650   0.74719   0.26905   0.00000  Uiso   1.00
C549   C     0.87548   0.55022   0.27065   0.00000  Uiso   1.00
C550   C     0.79501   0.95069   0.26330   0.00000  Uiso   1.00
C551   C     0.87577   0.59631   0.27115   0.00000  Uiso   1.00
C552   C     0.83427   0.83475   0.25028   0.00000  Uiso   1.00
C553   C     0.79410   0.90460   0.26386   0.00000  Uiso   1.00
C554   C     0.83199   0.61708   0.25006   0.00000  Uiso   1.00
C555   C     0.83619   0.88309   0.25116   0.00000  Uiso   1.00
C556   C     0.78778   0.59162   0.22923   0.00000  Uiso   1.00
C557   C     0.87991   0.90801   0.23986   0.00000  Uiso   1.00
C558   C     0.78972   0.54509   0.22564   0.00000  Uiso   1.00
C559   C     0.87837   0.95456   0.23560   0.00000  Uiso   1.00
C560   C     0.83374   0.52453   0.24708   0.00000  Uiso   1.00
C561   C     0.83561   0.97574   0.24776   0.00000  Uiso   1.00
C562   C     0.97258   0.70161   0.16313   0.00000  Uiso   1.00
C563   C     0.84868   0.78945   0.05615   0.00000  Uiso   1.00
C564   C     0.68608   0.78633   0.34400   0.00000  Uiso   1.00
C565   C     0.92311   0.62279   0.29406   0.00000  Uiso   1.00
C566   C     0.74802   0.87896   0.27820   0.00000  Uiso   1.00
C567   C     0.73821   0.61306   0.21211   0.00000  Uiso   1.00
C568   C     0.92896   0.88614   0.23463   0.00000  Uiso   1.00
C569   C     0.75282   0.50713   0.15202   0.00000  Uiso   1.00
C570   C     0.91196   0.99082   0.16902   0.00000  Uiso   1.00
C571   C     0.84760   0.83612   0.03621   0.00000  Uiso   1.00
C572   C     0.81936   0.66355   0.46340   0.00000  Uiso   1.00
C573   C     0.89042   0.82080   0.13489   0.00000  Uiso   1.00
C574   C     0.81829   0.71027   0.44360   0.00000  Uiso   1.00
C575   C     0.77637   0.67884   0.36469   0.00000  Uiso   1.00
C576   C     0.77692   0.67900   0.11946   0.00000  Uiso   1.00
C577   C     0.89008   0.82107   0.38021   0.00000  Uiso   1.00
C578   C     0.85644   0.78514   0.10707   0.00000  Uiso   1.00
C579   C     0.81029   0.71470   0.39271   0.00000  Uiso   1.00
C580   C     0.80525   0.71793   0.10011   0.00000  Uiso   1.00
C581   C     0.86188   0.78190   0.39974   0.00000  Uiso   1.00
C582   C     0.80360   0.71912   0.04987   0.00000  Uiso   1.00
Cu583  Cu    0.83333   0.75000   0.29822   0.00000  Uiso   1.00
Cu584  Cu    0.83333   0.75001   0.20179   0.00000  Uiso   1.00
H585   H     0.90822   0.53411   0.28872   0.00000  Uiso   1.00
H586   H     0.67581   0.81517   0.32085   0.00000  Uiso   1.00
H587   H     0.72697   0.79092   0.35937   0.00000  Uiso   1.00
H588   H     0.99624   0.78567   0.37403   0.00000  Uiso   1.00
H589   H     0.93728   0.64575   0.26744   0.00000  Uiso   1.00
H590   H     0.91425   0.64228   0.32505   0.00000  Uiso   1.00
H591   H     0.95442   0.60109   0.30730   0.00000  Uiso   1.00
H592   H     0.75941   0.86009   0.31135   0.00000  Uiso   1.00
H593   H     0.71811   0.90125   0.28565   0.00000  Uiso   1.00
H594   H     0.73108   0.85562   0.24894   0.00000  Uiso   1.00
H595   H     0.72694   0.60675   0.17312   0.00000  Uiso   1.00
H596   H     0.76354   0.96734   0.27484   0.00000  Uiso   1.00
H597   H     0.70759   0.59911   0.23194   0.00000  Uiso   1.00
H598   H     0.74020   0.64932   0.21863   0.00000  Uiso   1.00
H599   H     0.96002   0.90032   0.26184   0.00000  Uiso   1.00
H600   H     0.92698   0.84996   0.24104   0.00000  Uiso   1.00
H601   H     0.93953   0.89208   0.19828   0.00000  Uiso   1.00
H602   H     0.71183   0.52853   0.20468   0.00000  Uiso   1.00
H603   H     0.71892   0.98598   0.13615   0.00000  Uiso   1.00
H604   H     0.78722   0.98804   0.15098   0.00000  Uiso   1.00
H605   H     0.75555   0.53760   0.13022   0.00000  Uiso   1.00
H606   H     0.95568   0.97036   0.23119   0.00000  Uiso   1.00
H607   H     0.77885   0.69467   0.02898   0.00000  Uiso   1.00
H608   H     0.94536   0.51152   0.16009   0.00000  Uiso   1.00
H609   H     0.87744   0.50998   0.16015   0.00000  Uiso   1.00
H610   H     0.90792   0.95986   0.14701   0.00000  Uiso   1.00
H611   H     0.82349   0.83732   0.00077   0.00000  Uiso   1.00
H612   H     0.82931   0.85805   0.05969   0.00000  Uiso   1.00
H613   H     0.88689   0.85027   0.03423   0.00000  Uiso   1.00
H614   H     0.84333   0.66226   0.49890   0.00000  Uiso   1.00
H615   H     0.78003   0.64936   0.46516   0.00000  Uiso   1.00
H616   H     0.83787   0.64174   0.43999   0.00000  Uiso   1.00
H617   H     0.90932   0.80910   0.16910   0.00000  Uiso   1.00
H618   H     0.88862   0.80488   0.47091   0.00000  Uiso   1.00
H619   H     0.92230   0.83155   0.11493   0.00000  Uiso   1.00
H620   H     0.86847   0.85015   0.14043   0.00000  Uiso   1.00
H621   H     0.75876   0.68943   0.32942   0.00000  Uiso   1.00
H622   H     0.79799   0.64897   0.36055   0.00000  Uiso   1.00
H623   H     0.74362   0.66917   0.38400   0.00000  Uiso   1.00
H624   H     0.75697   0.68907   0.14890   0.00000  Uiso   1.00
H625   H     0.74685   0.66366   0.09189   0.00000  Uiso   1.00
H626   H     0.80378   0.65296   0.13094   0.00000  Uiso   1.00
H627   H     0.91044   0.81177   0.35054   0.00000  Uiso   1.00
H628   H     0.86299   0.84699   0.36893   0.00000  Uiso   1.00
H629   H     0.67233   0.76528   0.15860   0.00000  Uiso   1.00
H630   H     0.91988   0.83655   0.40793   0.00000  Uiso   1.00
H631   H     0.94956   0.68272   0.18725   0.00000  Uiso   1.00
H632   H     0.67319   0.68306   0.15883   0.00000  Uiso   1.00
H633   H     0.94894   0.70415   0.12754   0.00000  Uiso   1.00
H634   H     0.99692   0.71892   0.33668   0.00000  Uiso   1.00
N635   N     0.83333   0.75001   0.12935   0.00000  Uiso   1.00
N636   N     0.83333   0.74999   0.37066   0.00000  Uiso   1.00
N637   N     0.98786   0.74576   0.18214   0.00000  Uiso   1.00
N638   N     0.67776   0.74471   0.31742   0.00000  Uiso   1.00
N639   N     0.74765   0.51864   0.20093   0.00000  Uiso   1.00
N640   N     0.91957   0.98037   0.21951   0.00000  Uiso   1.00
O641   O     0.83334   0.68573   0.29072   0.00000  Uiso   1.00
O642   O     0.83333   0.81428   0.20929   0.00000  Uiso   1.00
O643   O     0.83334   0.68573   0.20928   0.00000  Uiso   1.00
O644   O     0.83333   0.81427   0.29072   0.00000  Uiso   1.00
O645   O     0.75828   0.75000   0.28132   0.00000  Uiso   1.00
O646   O     0.90839   0.75001   0.21868   0.00000  Uiso   1.00
O647   O     0.75828   0.75000   0.19989   0.00000  Uiso   1.00
O648   O     0.90839   0.75000   0.30012   0.00000  Uiso   1.00
C649   C     0.16623   0.16531   0.74997   0.00000  Uiso   1.00
C650   C     0.19708   0.28054   0.94999   0.00000  Uiso   1.00
C651   C     0.16411   0.25188   0.52681   0.00000  Uiso   1.00
C652   C     0.16978   0.24778   0.97300   0.00000  Uiso   1.00
C653   C     0.06820   0.24917   0.73771   0.00000  Uiso   1.00
C654   C     0.26494   0.24901   0.76222   0.00000  Uiso   1.00
C655   C     0.01294   0.24717   0.73065   0.00000  Uiso   1.00
C656   C     0.31984   0.24719   0.76905   0.00000  Uiso   1.00
C657   C     0.20882   0.05022   0.77065   0.00000  Uiso   1.00
C658   C     0.12834   0.45069   0.76330   0.00000  Uiso   1.00
C659   C     0.20910   0.09631   0.77115   0.00000  Uiso   1.00
C660   C     0.16760   0.33475   0.75028   0.00000  Uiso   1.00
C661   C     0.12743   0.40460   0.76386   0.00000  Uiso   1.00
C662   C     0.16532   0.11708   0.75006   0.00000  Uiso   1.00
C663   C     0.16952   0.38309   0.75116   0.00000  Uiso   1.00
C664   C     0.12111   0.09162   0.72923   0.00000  Uiso   1.00
C665   C     0.21325   0.40801   0.73986   0.00000  Uiso   1.00
C666   C     0.12305   0.04509   0.72564   0.00000  Uiso   1.00
C667   C     0.21170   0.45456   0.73560   0.00000  Uiso   1.00
C668   C     0.16707   0.02453   0.74708   0.00000  Uiso   1.00
C669   C     0.16894   0.47574   0.74776   0.00000  Uiso   1.00
C670   C     0.30591   0.20161   0.66313   0.00000  Uiso   1.00
C671   C     0.18202   0.28945   0.55615   0.00000  Uiso   1.00
C672   C     0.01941   0.28633   0.84400   0.00000  Uiso   1.00
C673   C     0.25644   0.12279   0.79406   0.00000  Uiso   1.00
C674   C     0.08136   0.37896   0.77820   0.00000  Uiso   1.00
C675   C     0.07154   0.11306   0.71211   0.00000  Uiso   1.00
C676   C     0.26229   0.38614   0.73463   0.00000  Uiso   1.00
C677   C     0.08615   0.00713   0.65202   0.00000  Uiso   1.00
C678   C     0.24529   0.49082   0.66902   0.00000  Uiso   1.00
C679   C     0.18093   0.33612   0.53621   0.00000  Uiso   1.00
C680   C     0.15269   0.16355   0.96340   0.00000  Uiso   1.00
C681   C     0.22376   0.32080   0.63489   0.00000  Uiso   1.00
C682   C     0.15163   0.21027   0.94360   0.00000  Uiso   1.00
C683   C     0.10971   0.17884   0.86469   0.00000  Uiso   1.00
C684   C     0.11025   0.17900   0.61946   0.00000  Uiso   1.00
C685   C     0.22341   0.32107   0.88021   0.00000  Uiso   1.00
C686   C     0.18977   0.28514   0.60707   0.00000  Uiso   1.00
C687   C     0.14363   0.21470   0.89271   0.00000  Uiso   1.00
C688   C     0.13858   0.21793   0.60011   0.00000  Uiso   1.00
C689   C     0.19522   0.28190   0.89974   0.00000  Uiso   1.00
C690   C     0.13694   0.21912   0.54987   0.00000  Uiso   1.00
Cu691  Cu    0.16667   0.25000   0.79822   0.00000  Uiso   1.00
Cu692  Cu    0.16667   0.25001   0.70179   0.00000  Uiso   1.00
H693   H     0.24155   0.03411   0.78872   0.00000  Uiso   1.00
H694   H     0.00914   0.31517   0.82085   0.00000  Uiso   1.00
H695   H     0.06030   0.29092   0.85937   0.00000  Uiso   1.00
H696   H     0.32957   0.28567   0.87403   0.00000  Uiso   1.00
H697   H     0.27062   0.14575   0.76744   0.00000  Uiso   1.00
H698   H     0.24758   0.14228   0.82505   0.00000  Uiso   1.00
H699   H     0.28775   0.10109   0.80730   0.00000  Uiso   1.00
H700   H     0.09275   0.36009   0.81135   0.00000  Uiso   1.00
H701   H     0.05144   0.40125   0.78565   0.00000  Uiso   1.00
H702   H     0.06441   0.35562   0.74894   0.00000  Uiso   1.00
H703   H     0.06028   0.10675   0.67312   0.00000  Uiso   1.00
H704   H     0.09688   0.46734   0.77484   0.00000  Uiso   1.00
H705   H     0.04092   0.09911   0.73194   0.00000  Uiso   1.00
H706   H     0.07354   0.14932   0.71863   0.00000  Uiso   1.00
H707   H     0.29336   0.40032   0.76184   0.00000  Uiso   1.00
H708   H     0.26031   0.34996   0.74104   0.00000  Uiso   1.00
H709   H     0.27286   0.39208   0.69828   0.00000  Uiso   1.00
H710   H     0.04516   0.02853   0.70468   0.00000  Uiso   1.00
H711   H     0.05225   0.48598   0.63615   0.00000  Uiso   1.00
H712   H     0.12056   0.48804   0.65098   0.00000  Uiso   1.00
H713   H     0.08888   0.03760   0.63022   0.00000  Uiso   1.00
H714   H     0.28902   0.47036   0.73119   0.00000  Uiso   1.00
H715   H     0.11218   0.19467   0.52898   0.00000  Uiso   1.00
H716   H     0.27869   0.01152   0.66009   0.00000  Uiso   1.00
H717   H     0.21077   0.00998   0.66015   0.00000  Uiso   1.00
H718   H     0.24125   0.45986   0.64701   0.00000  Uiso   1.00
H719   H     0.15682   0.33732   0.50077   0.00000  Uiso   1.00
H720   H     0.16264   0.35805   0.55969   0.00000  Uiso   1.00
H721   H     0.22023   0.35027   0.53423   0.00000  Uiso   1.00
H722   H     0.17666   0.16226   0.99890   0.00000  Uiso   1.00
H723   H     0.11337   0.14936   0.96516   0.00000  Uiso   1.00
H724   H     0.17120   0.14174   0.93999   0.00000  Uiso   1.00
H725   H     0.24266   0.30910   0.66910   0.00000  Uiso   1.00
H726   H     0.22196   0.30488   0.97091   0.00000  Uiso   1.00
H727   H     0.25564   0.33155   0.61493   0.00000  Uiso   1.00
H728   H     0.20180   0.35015   0.64043   0.00000  Uiso   1.00
H729   H     0.09210   0.18943   0.82942   0.00000  Uiso   1.00
H730   H     0.13132   0.14897   0.86055   0.00000  Uiso   1.00
H731   H     0.07696   0.16917   0.88400   0.00000  Uiso   1.00
H732   H     0.09030   0.18907   0.64890   0.00000  Uiso   1.00
H733   H     0.08019   0.16366   0.59189   0.00000  Uiso   1.00
H734   H     0.13711   0.15296   0.63094   0.00000  Uiso   1.00
H735   H     0.24378   0.31177   0.85054   0.00000  Uiso   1.00
H736   H     0.19633   0.34699   0.86893   0.00000  Uiso   1.00
H737   H     0.00566   0.26528   0.65860   0.00000  Uiso   1.00
H738   H     0.25322   0.33655   0.90793   0.00000  Uiso   1.00
H739   H     0.28289   0.18272   0.68725   0.00000  Uiso   1.00
H740   H     0.00652   0.18306   0.65883   0.00000  Uiso   1.00
H741   H     0.28228   0.20415   0.62754   0.00000  Uiso   1.00
H742   H     0.33025   0.21892   0.83668   0.00000  Uiso   1.00
N743   N     0.16667   0.25001   0.62935   0.00000  Uiso   1.00
N744   N     0.16667   0.24999   0.87066   0.00000  Uiso   1.00
N745   N     0.32119   0.24576   0.68214   0.00000  Uiso   1.00
N746   N     0.01109   0.24471   0.81742   0.00000  Uiso   1.00
N747   N     0.08098   0.01864   0.70093   0.00000  Uiso   1.00
N748   N     0.25290   0.48037   0.71951   0.00000  Uiso   1.00
O749   O     0.16667   0.18573   0.79072   0.00000  Uiso   1.00
O750   O     0.16666   0.31428   0.70929   0.00000  Uiso   1.00
O751   O     0.16667   0.18573   0.70928   0.00000  Uiso   1.00
O752   O     0.16666   0.31427   0.79072   0.00000  Uiso   1.00
O753   O     0.09161   0.25000   0.78132   0.00000  Uiso   1.00
O754   O     0.24172   0.25001   0.71868   0.00000  Uiso   1.00
O755   O     0.09161   0.25000   0.69989   0.00000  Uiso   1.00
O756   O     0.24172   0.25000   0.80012   0.00000  Uiso   1.00
C757   C     0.49956   0.16531   0.74997   0.00000  Uiso   1.00
C758   C     0.53042   0.28054   0.94999   0.00000  Uiso   1.00
C759   C     0.49744   0.25188   0.52681   0.00000  Uiso   1.00
C760   C     0.50312   0.24778   0.97300   0.00000  Uiso   1.00
C761   C     0.40153   0.24917   0.73771   0.00000  Uiso   1.00
C762   C     0.59827   0.24901   0.76222   0.00000  Uiso   1.00
C763   C     0.34627   0.24717   0.73065   0.00000  Uiso   1.00
C764   C     0.65317   0.24719   0.76905   0.00000  Uiso   1.00
C765   C     0.54215   0.05022   0.77065   0.00000  Uiso   1.00
C766   C     0.46168   0.45069   0.76330   0.00000  Uiso   1.00
C767   C     0.54244   0.09631   0.77115   0.00000  Uiso   1.00
C768   C     0.50093   0.33475   0.75028   0.00000  Uiso   1.00
C769   C     0.46076   0.40460   0.76386   0.00000  Uiso   1.00
C770   C     0.49865   0.11708   0.75006   0.00000  Uiso   1.00
C771   C     0.50286   0.38309   0.75116   0.00000  Uiso   1.00
C772   C     0.45445   0.09162   0.72923   0.00000  Uiso   1.00
C773   C     0.54658   0.40801   0.73986   0.00000  Uiso   1.00
C774   C     0.45639   0.04509   0.72564   0.00000  Uiso   1.00
C775   C     0.54503   0.45456   0.73560   0.00000  Uiso   1.00
C776   C     0.50041   0.02453   0.74708   0.00000  Uiso   1.00
C777   C     0.50228   0.47574   0.74776   0.00000  Uiso   1.00
C778   C     0.63925   0.20161   0.66313   0.00000  Uiso   1.00
C779   C     0.51535   0.28945   0.55615   0.00000  Uiso   1.00
C780   C     0.35274   0.28633   0.84400   0.00000  Uiso   1.00
C781   C     0.58978   0.12279   0.79406   0.00000  Uiso   1.00
C782   C     0.41469   0.37896   0.77820   0.00000  Uiso   1.00
C783   C     0.40487   0.11306   0.71211   0.00000  Uiso   1.00
C784   C     0.59563   0.38614   0.73463   0.00000  Uiso   1.00
C785   C     0.41949   0.00713   0.65202   0.00000  Uiso   1.00
C786   C     0.57862   0.49082   0.66902   0.00000  Uiso   1.00
C787   C     0.51427   0.33612   0.53621   0.00000  Uiso   1.00
C788   C     0.48602   0.16355   0.96340   0.00000  Uiso   1.00
C789   C     0.55709   0.32080   0.63489   0.00000  Uiso   1.00
C790   C     0.48496   0.21027   0.94360   0.00000  Uiso   1.00
C791   C     0.44304   0.17884   0.86469   0.00000  Uiso   1.00
C792   C     0.44358   0.17900   0.61946   0.00000  Uiso   1.00
C793   C     0.55675   0.32107   0.88021   0.00000  Uiso   1.00
C794   C     0.52311   0.28514   0.60707   0.00000  Uiso   1.00
C795   C     0.47696   0.21470   0.89271   0.00000  Uiso   1.00
C796   C     0.47191   0.21793   0.60011   0.00000  Uiso   1.00
C797   C     0.52855   0.28190   0.89974   0.00000  Uiso   1.00
C798   C     0.47027   0.21912   0.54987   0.00000  Uiso   1.00
Cu799  Cu    0.50000   0.25000   0.79822   0.00000  Uiso   1.00
Cu800  Cu    0.50000   0.25001   0.70179   0.00000  Uiso   1.00
H801   H     0.57488   0.03411   0.78872   0.00000  Uiso   1.00
H802   H     0.34247   0.31517   0.82085   0.00000  Uiso   1.00
H803   H     0.39364   0.29092   0.85937   0.00000  Uiso   1.00
H804   H     0.66290   0.28567   0.87403   0.00000  Uiso   1.00
H805   H     0.60395   0.14575   0.76744   0.00000  Uiso   1.00
H806   H     0.58092   0.14228   0.82505   0.00000  Uiso   1.00
H807   H     0.62108   0.10109   0.80730   0.00000  Uiso   1.00
H808   H     0.42608   0.36009   0.81135   0.00000  Uiso   1.00
H809   H     0.38478   0.40125   0.78565   0.00000  Uiso   1.00
H810   H     0.39775   0.35562   0.74894   0.00000  Uiso   1.00
H811   H     0.39361   0.10675   0.67312   0.00000  Uiso   1.00
H812   H     0.43021   0.46734   0.77484   0.00000  Uiso   1.00
H813   H     0.37426   0.09911   0.73194   0.00000  Uiso   1.00
H814   H     0.40687   0.14932   0.71863   0.00000  Uiso   1.00
H815   H     0.62669   0.40032   0.76184   0.00000  Uiso   1.00
H816   H     0.59364   0.34996   0.74104   0.00000  Uiso   1.00
H817   H     0.60619   0.39208   0.69828   0.00000  Uiso   1.00
H818   H     0.37849   0.02853   0.70468   0.00000  Uiso   1.00
H819   H     0.38559   0.48598   0.63615   0.00000  Uiso   1.00
H820   H     0.45389   0.48804   0.65098   0.00000  Uiso   1.00
H821   H     0.42222   0.03760   0.63022   0.00000  Uiso   1.00
H822   H     0.62235   0.47036   0.73119   0.00000  Uiso   1.00
H823   H     0.44552   0.19467   0.52898   0.00000  Uiso   1.00
H824   H     0.61202   0.01152   0.66009   0.00000  Uiso   1.00
H825   H     0.54410   0.00998   0.66015   0.00000  Uiso   1.00
H826   H     0.57458   0.45986   0.64701   0.00000  Uiso   1.00
H827   H     0.49016   0.33732   0.50077   0.00000  Uiso   1.00
H828   H     0.49598   0.35805   0.55969   0.00000  Uiso   1.00
H829   H     0.55356   0.35027   0.53423   0.00000  Uiso   1.00
H830   H     0.51000   0.16226   0.99890   0.00000  Uiso   1.00
H831   H     0.44670   0.14936   0.96516   0.00000  Uiso   1.00
H832   H     0.50454   0.14174   0.93999   0.00000  Uiso   1.00
H833   H     0.57599   0.30910   0.66910   0.00000  Uiso   1.00
H834   H     0.55529   0.30488   0.97091   0.00000  Uiso   1.00
H835   H     0.58897   0.33155   0.61493   0.00000  Uiso   1.00
H836   H     0.53513   0.35015   0.64043   0.00000  Uiso   1.00
H837   H     0.42543   0.18943   0.82942   0.00000  Uiso   1.00
H838   H     0.46465   0.14897   0.86055   0.00000  Uiso   1.00
H839   H     0.41029   0.16917   0.88400   0.00000  Uiso   1.00
H840   H     0.42364   0.18907   0.64890   0.00000  Uiso   1.00
H841   H     0.41352   0.16366   0.59189   0.00000  Uiso   1.00
H842   H     0.47044   0.15296   0.63094   0.00000  Uiso   1.00
H843   H     0.57711   0.31177   0.85054   0.00000  Uiso   1.00
H844   H     0.52966   0.34699   0.86893   0.00000  Uiso   1.00
H845   H     0.33900   0.26528   0.65860   0.00000  Uiso   1.00
H846   H     0.58655   0.33655   0.90793   0.00000  Uiso   1.00
H847   H     0.61622   0.18272   0.68725   0.00000  Uiso   1.00
H848   H     0.33985   0.18306   0.65883   0.00000  Uiso   1.00
H849   H     0.61561   0.20415   0.62754   0.00000  Uiso   1.00
H850   H     0.66358   0.21892   0.83668   0.00000  Uiso   1.00
N851   N     0.50000   0.25001   0.62935   0.00000  Uiso   1.00
N852   N     0.50000   0.24999   0.87066   0.00000  Uiso   1.00
N853   N     0.65452   0.24576   0.68214   0.00000  Uiso   1.00
N854   N     0.34442   0.24471   0.81742   0.00000  Uiso   1.00
N855   N     0.41432   0.01864   0.70093   0.00000  Uiso   1.00
N856   N     0.58623   0.48037   0.71951   0.00000  Uiso   1.00
O857   O     0.50000   0.18573   0.79072   0.00000  Uiso   1.00
O858   O     0.50000   0.31428   0.70929   0.00000  Uiso   1.00
O859   O     0.50000   0.18573   0.70928   0.00000  Uiso   1.00
O860   O     0.50000   0.31427   0.79072   0.00000  Uiso   1.00
O861   O     0.42495   0.25000   0.78132   0.00000  Uiso   1.00
O862   O     0.57505   0.25001   0.71868   0.00000  Uiso   1.00
O863   O     0.42495   0.25000   0.69989   0.00000  Uiso   1.00
O864   O     0.57505   0.25000   0.80012   0.00000  Uiso   1.00
C865   C     0.83290   0.16531   0.74997   0.00000  Uiso   1.00
C866   C     0.86375   0.28054   0.94999   0.00000  Uiso   1.00
C867   C     0.83078   0.25188   0.52681   0.00000  Uiso   1.00
C868   C     0.83645   0.24778   0.97300   0.00000  Uiso   1.00
C869   C     0.73487   0.24917   0.73771   0.00000  Uiso   1.00
C870   C     0.93160   0.24901   0.76222   0.00000  Uiso   1.00
C871   C     0.67960   0.24717   0.73065   0.00000  Uiso   1.00
C872   C     0.98650   0.24719   0.76905   0.00000  Uiso   1.00
C873   C     0.87548   0.05022   0.77065   0.00000  Uiso   1.00
C874   C     0.79501   0.45069   0.76330   0.00000  Uiso   1.00
C875   C     0.87577   0.09631   0.77115   0.00000  Uiso   1.00
C876   C     0.83427   0.33475   0.75028   0.00000  Uiso   1.00
C877   C     0.79410   0.40460   0.76386   0.00000  Uiso   1.00
C878   C     0.83199   0.11708   0.75006   0.00000  Uiso   1.00
C879   C     0.83619   0.38309   0.75116   0.00000  Uiso   1.00
C880   C     0.78778   0.09162   0.72923   0.00000  Uiso   1.00
C881   C     0.87991   0.40801   0.73986   0.00000  Uiso   1.00
C882   C     0.78972   0.04509   0.72564   0.00000  Uiso   1.00
C883   C     0.87837   0.45456   0.73560   0.00000  Uiso   1.00
C884   C     0.83374   0.02453   0.74708   0.00000  Uiso   1.00
C885   C     0.83561   0.47574   0.74776   0.00000  Uiso   1.00
C886   C     0.97258   0.20161   0.66313   0.00000  Uiso   1.00
C887   C     0.84868   0.28945   0.55615   0.00000  Uiso   1.00
C888   C     0.68608   0.28633   0.84400   0.00000  Uiso   1.00
C889   C     0.92311   0.12279   0.79406   0.00000  Uiso   1.00
C890   C     0.74802   0.37896   0.77820   0.00000  Uiso   1.00
C891   C     0.73821   0.11306   0.71211   0.00000  Uiso   1.00
C892   C     0.92896   0.38614   0.73463   0.00000  Uiso   1.00
C893   C     0.75282   0.00713   0.65202   0.00000  Uiso   1.00
C894   C     0.91196   0.49082   0.66902   0.00000  Uiso   1.00
C895   C     0.84760   0.33612   0.53621   0.00000  Uiso   1.00
C896   C     0.81936   0.16355   0.96340   0.00000  Uiso   1.00
C897   C     0.89042   0.32080   0.63489   0.00000  Uiso   1.00
C898   C     0.81829   0.21027   0.94360   0.00000  Uiso   1.00
C899   C     0.77637   0.17884   0.86469   0.00000  Uiso   1.00
C900   C     0.77692   0.17900   0.61946   0.00000  Uiso   1.00
C901   C     0.89008   0.32107   0.88021   0.00000  Uiso   1.00
C902   C     0.85644   0.28514   0.60707   0.00000  Uiso   1.00
C903   C     0.81029   0.21470   0.89271   0.00000  Uiso   1.00
C904   C     0.80525   0.21793   0.60011   0.00000  Uiso   1.00
C905   C     0.86188   0.28190   0.89974   0.00000  Uiso   1.00
C906   C     0.80360   0.21912   0.54987   0.00000  Uiso   1.00
Cu907  Cu    0.83333   0.25000   0.79822   0.00000  Uiso   1.00
Cu908  Cu    0.83333   0.25001   0.70179   0.00000  Uiso   1.00
H909   H     0.90822   0.03411   0.78872   0.00000  Uiso   1.00
H910   H     0.67581   0.31517   0.82085   0.00000  Uiso   1.00
H911   H     0.72697   0.29092   0.85937   0.00000  Uiso   1.00
H912   H     0.99624   0.28567   0.87403   0.00000  Uiso   1.00
H913   H     0.93728   0.14575   0.76744   0.00000  Uiso   1.00
H914   H     0.91425   0.14228   0.82505   0.00000  Uiso   1.00
H915   H     0.95442   0.10109   0.80730   0.00000  Uiso   1.00
H916   H     0.75941   0.36009   0.81135   0.00000  Uiso   1.00
H917   H     0.71811   0.40125   0.78565   0.00000  Uiso   1.00
H918   H     0.73108   0.35562   0.74894   0.00000  Uiso   1.00
H919   H     0.72694   0.10675   0.67312   0.00000  Uiso   1.00
H920   H     0.76354   0.46734   0.77484   0.00000  Uiso   1.00
H921   H     0.70759   0.09911   0.73194   0.00000  Uiso   1.00
H922   H     0.74020   0.14932   0.71863   0.00000  Uiso   1.00
H923   H     0.96002   0.40032   0.76184   0.00000  Uiso   1.00
H924   H     0.92698   0.34996   0.74104   0.00000  Uiso   1.00
H925   H     0.93953   0.39208   0.69828   0.00000  Uiso   1.00
H926   H     0.71183   0.02853   0.70468   0.00000  Uiso   1.00
H927   H     0.71892   0.48598   0.63615   0.00000  Uiso   1.00
H928   H     0.78722   0.48804   0.65098   0.00000  Uiso   1.00
H929   H     0.75555   0.03760   0.63022   0.00000  Uiso   1.00
H930   H     0.95568   0.47036   0.73119   0.00000  Uiso   1.00
H931   H     0.77885   0.19467   0.52898   0.00000  Uiso   1.00
H932   H     0.94536   0.01152   0.66009   0.00000  Uiso   1.00
H933   H     0.87744   0.00998   0.66015   0.00000  Uiso   1.00
H934   H     0.90792   0.45986   0.64701   0.00000  Uiso   1.00
H935   H     0.82349   0.33732   0.50077   0.00000  Uiso   1.00
H936   H     0.82931   0.35805   0.55969   0.00000  Uiso   1.00
H937   H     0.88689   0.35027   0.53423   0.00000  Uiso   1.00
H938   H     0.84333   0.16226   0.99890   0.00000  Uiso   1.00
H939   H     0.78003   0.14936   0.96516   0.00000  Uiso   1.00
H940   H     0.83787   0.14174   0.93999   0.00000  Uiso   1.00
H941   H     0.90932   0.30910   0.66910   0.00000  Uiso   1.00
H942   H     0.88862   0.30488   0.97091   0.00000  Uiso   1.00
H943   H     0.92230   0.33155   0.61493   0.00000  Uiso   1.00
H944   H     0.86847   0.35015   0.64043   0.00000  Uiso   1.00
H945   H     0.75876   0.18943   0.82942   0.00000  Uiso   1.00
H946   H     0.79799   0.14897   0.86055   0.00000  Uiso   1.00
H947   H     0.74362   0.16917   0.88400   0.00000  Uiso   1.00
H948   H     0.75697   0.18907   0.64890   0.00000  Uiso   1.00
H949   H     0.74685   0.16366   0.59189   0.00000  Uiso   1.00
H950   H     0.80378   0.15296   0.63094   0.00000  Uiso   1.00
H951   H     0.91044   0.31177   0.85054   0.00000  Uiso   1.00
H952   H     0.86299   0.34699   0.86893   0.00000  Uiso   1.00
H953   H     0.67233   0.26528   0.65860   0.00000  Uiso   1.00
H954   H     0.91988   0.33655   0.90793   0.00000  Uiso   1.00
H955   H     0.94956   0.18272   0.68725   0.00000  Uiso   1.00
H956   H     0.67319   0.18306   0.65883   0.00000  Uiso   1.00
H957   H     0.94894   0.20415   0.62754   0.00000  Uiso   1.00
H958   H     0.99692   0.21892   0.83668   0.00000  Uiso   1.00
N959   N     0.83333   0.25001   0.62935   0.00000  Uiso   1.00
N960   N     0.83333   0.24999   0.87066   0.00000  Uiso   1.00
N961   N     0.98786   0.24576   0.68214   0.00000  Uiso   1.00
N962   N     0.67776   0.24471   0.81742   0.00000  Uiso   1.00
N963   N     0.74765   0.01864   0.70093   0.00000  Uiso   1.00
N964   N     0.91957   0.48037   0.71951   0.00000  Uiso   1.00
O965   O     0.83334   0.18573   0.79072   0.00000  Uiso   1.00
O966   O     0.83333   0.31428   0.70929   0.00000  Uiso   1.00
O967   O     0.83334   0.18573   0.70928   0.00000  Uiso   1.00
O968   O     0.83333   0.31427   0.79072   0.00000  Uiso   1.00
O969   O     0.75828   0.25000   0.78132   0.00000  Uiso   1.00
O970   O     0.90839   0.25001   0.71868   0.00000  Uiso   1.00
O971   O     0.75828   0.25000   0.69989   0.00000  Uiso   1.00
O972   O     0.90839   0.25000   0.80012   0.00000  Uiso   1.00
C973   C     0.16623   0.66531   0.74997   0.00000  Uiso   1.00
C974   C     0.19708   0.78054   0.94999   0.00000  Uiso   1.00
C975   C     0.16411   0.75188   0.52681   0.00000  Uiso   1.00
C976   C     0.16978   0.74778   0.97300   0.00000  Uiso   1.00
C977   C     0.06820   0.74917   0.73771   0.00000  Uiso   1.00
C978   C     0.26494   0.74901   0.76222   0.00000  Uiso   1.00
C979   C     0.01294   0.74717   0.73065   0.00000  Uiso   1.00
C980   C     0.31984   0.74719   0.76905   0.00000  Uiso   1.00
C981   C     0.20882   0.55022   0.77065   0.00000  Uiso   1.00
C982   C     0.12834   0.95069   0.76330   0.00000  Uiso   1.00
C983   C     0.20910   0.59631   0.77115   0.00000  Uiso   1.00
C984   C     0.16760   0.83475   0.75028   0.00000  Uiso   1.00
C985   C     0.12743   0.90460   0.76386   0.00000  Uiso   1.00
C986   C     0.16532   0.61708   0.75006   0.00000  Uiso   1.00
C987   C     0.16952   0.88309   0.75116   0.00000  Uiso   1.00
C988   C     0.12111   0.59162   0.72923   0.00000  Uiso   1.00
C989   C     0.21325   0.90801   0.73986   0.00000  Uiso   1.00
C990   C     0.12305   0.54509   0.72564   0.00000  Uiso   1.00
C991   C     0.21170   0.95456   0.73560   0.00000  Uiso   1.00
C992   C     0.16707   0.52453   0.74708   0.00000  Uiso   1.00
C993   C     0.16894   0.97574   0.74776   0.00000  Uiso   1.00
C994   C     0.30591   0.70161   0.66313   0.00000  Uiso   1.00
C995   C     0.18202   0.78945   0.55615   0.00000  Uiso   1.00
C996   C     0.01941   0.78633   0.84400   0.00000  Uiso   1.00
C997   C     0.25644   0.62279   0.79406   0.00000  Uiso   1.00
C998   C     0.08136   0.87896   0.77820   0.00000  Uiso   1.00
C999   C     0.07154   0.61306   0.71211   0.00000  Uiso   1.00
C1000  C     0.26229   0.88614   0.73463   0.00000  Uiso   1.00
C1001  C     0.08615   0.50713   0.65202   0.00000  Uiso   1.00
C1002  C     0.24529   0.99082   0.66902   0.00000  Uiso   1.00
C1003  C     0.18093   0.83612   0.53621   0.00000  Uiso   1.00
C1004  C     0.15269   0.66355   0.96340   0.00000  Uiso   1.00
C1005  C     0.22376   0.82080   0.63489   0.00000  Uiso   1.00
C1006  C     0.15163   0.71027   0.94360   0.00000  Uiso   1.00
C1007  C     0.10971   0.67884   0.86469   0.00000  Uiso   1.00
C1008  C     0.11025   0.67900   0.61946   0.00000  Uiso   1.00
C1009  C     0.22341   0.82107   0.88021   0.00000  Uiso   1.00
C1010  C     0.18977   0.78514   0.60707   0.00000  Uiso   1.00
C1011  C     0.14363   0.71470   0.89271   0.00000  Uiso   1.00
C1012  C     0.13858   0.71793   0.60011   0.00000  Uiso   1.00
C1013  C     0.19522   0.78190   0.89974   0.00000  Uiso   1.00
C1014  C     0.13694   0.71912   0.54987   0.00000  Uiso   1.00
Cu1015 Cu    0.16667   0.75000   0.79822   0.00000  Uiso   1.00
Cu1016 Cu    0.16667   0.75001   0.70179   0.00000  Uiso   1.00
H1017  H     0.24155   0.53411   0.78872   0.00000  Uiso   1.00
H1018  H     0.00914   0.81517   0.82085   0.00000  Uiso   1.00
H1019  H     0.06030   0.79092   0.85937   0.00000  Uiso   1.00
H1020  H     0.32957   0.78567   0.87403   0.00000  Uiso   1.00
H1021  H     0.27062   0.64575   0.76744   0.00000  Uiso   1.00
H1022  H     0.24758   0.64228   0.82505   0.00000  Uiso   1.00
H1023  H     0.28775   0.60109   0.80730   0.00000  Uiso   1.00
H1024  H     0.09275   0.86009   0.81135   0.00000  Uiso   1.00
H1025  H     0.05144   0.90125   0.78565   0.00000  Uiso   1.00
H1026  H     0.06441   0.85562   0.74894   0.00000  Uiso   1.00
H1027  H     0.06028   0.60675   0.67312   0.00000  Uiso   1.00
H1028  H     0.09688   0.96734   0.77484   0.00000  Uiso   1.00
H1029  H     0.04092   0.59911   0.73194   0.00000  Uiso   1.00
H1030  H     0.07354   0.64932   0.71863   0.00000  Uiso   1.00
H1031  H     0.29336   0.90032   0.76184   0.00000  Uiso   1.00
H1032  H     0.26031   0.84996   0.74104   0.00000  Uiso   1.00
H1033  H     0.27286   0.89208   0.69828   0.00000  Uiso   1.00
H1034  H     0.04516   0.52853   0.70468   0.00000  Uiso   1.00
H1035  H     0.05225   0.98598   0.63615   0.00000  Uiso   1.00
H1036  H     0.12056   0.98804   0.65098   0.00000  Uiso   1.00
H1037  H     0.08888   0.53760   0.63022   0.00000  Uiso   1.00
H1038  H     0.28902   0.97036   0.73119   0.00000  Uiso   1.00
H1039  H     0.11218   0.69467   0.52898   0.00000  Uiso   1.00
H1040  H     0.27869   0.51152   0.66009   0.00000  Uiso   1.00
H1041  H     0.21077   0.50998   0.66015   0.00000  Uiso   1.00
H1042  H     0.24125   0.95986   0.64701   0.00000  Uiso   1.00
H1043  H     0.15682   0.83732   0.50077   0.00000  Uiso   1.00
H1044  H     0.16264   0.85805   0.55969   0.00000  Uiso   1.00
H1045  H     0.22023   0.85027   0.53423   0.00000  Uiso   1.00
H1046  H     0.17666   0.66226   0.99890   0.00000  Uiso   1.00
H1047  H     0.11337   0.64936   0.96516   0.00000  Uiso   1.00
H1048  H     0.17120   0.64174   0.93999   0.00000  Uiso   1.00
H1049  H     0.24266   0.80910   0.66910   0.00000  Uiso   1.00
H1050  H     0.22196   0.80488   0.97091   0.00000  Uiso   1.00
H1051  H     0.25564   0.83155   0.61493   0.00000  Uiso   1.00
H1052  H     0.20180   0.85015   0.64043   0.00000  Uiso   1.00
H1053  H     0.09210   0.68943   0.82942   0.00000  Uiso   1.00
H1054  H     0.13132   0.64897   0.86055   0.00000  Uiso   1.00
H1055  H     0.07696   0.66917   0.88400   0.00000  Uiso   1.00
H1056  H     0.09030   0.68907   0.64890   0.00000  Uiso   1.00
H1057  H     0.08019   0.66366   0.59189   0.00000  Uiso   1.00
H1058  H     0.13711   0.65296   0.63094   0.00000  Uiso   1.00
H1059  H     0.24378   0.81177   0.85054   0.00000  Uiso   1.00
H1060  H     0.19633   0.84699   0.86893   0.00000  Uiso   1.00
H1061  H     0.00566   0.76528   0.65860   0.00000  Uiso   1.00
H1062  H     0.25322   0.83655   0.90793   0.00000  Uiso   1.00
H1063  H     0.28289   0.68272   0.68725   0.00000  Uiso   1.00
H1064  H     0.00652   0.68306   0.65883   0.00000  Uiso   1.00
H1065  H     0.28228   0.70415   0.62754   0.00000  Uiso   1.00
H1066  H     0.33025   0.71892   0.83668   0.00000  Uiso   1.00
N1067  N     0.16667   0.75001   0.62935   0.00000  Uiso   1.00
N1068  N     0.16667   0.74999   0.87066   0.00000  Uiso   1.00
N1069  N     0.32119   0.74576   0.68214   0.00000  Uiso   1.00
N1070  N     0.01109   0.74471   0.81742   0.00000  Uiso   1.00
N1071  N     0.08098   0.51864   0.70093   0.00000  Uiso   1.00
N1072  N     0.25290   0.98037   0.71951   0.00000  Uiso   1.00
O1073  O     0.16667   0.68573   0.79072   0.00000  Uiso   1.00
O1074  O     0.16666   0.81428   0.70929   0.00000  Uiso   1.00
O1075  O     0.16667   0.68573   0.70928   0.00000  Uiso   1.00
O1076  O     0.16666   0.81427   0.79072   0.00000  Uiso   1.00
O1077  O     0.09161   0.75000   0.78132   0.00000  Uiso   1.00
O1078  O     0.24172   0.75001   0.71868   0.00000  Uiso   1.00
O1079  O     0.09161   0.75000   0.69989   0.00000  Uiso   1.00
O1080  O     0.24172   0.75000   0.80012   0.00000  Uiso   1.00
C1081  C     0.49956   0.66531   0.74997   0.00000  Uiso   1.00
C1082  C     0.53042   0.78054   0.94999   0.00000  Uiso   1.00
C1083  C     0.49744   0.75188   0.52681   0.00000  Uiso   1.00
C1084  C     0.50312   0.74778   0.97300   0.00000  Uiso   1.00
C1085  C     0.40153   0.74917   0.73771   0.00000  Uiso   1.00
C1086  C     0.59827   0.74901   0.76222   0.00000  Uiso   1.00
C1087  C     0.34627   0.74717   0.73065   0.00000  Uiso   1.00
C1088  C     0.65317   0.74719   0.76905   0.00000  Uiso   1.00
C1089  C     0.54215   0.55022   0.77065   0.00000  Uiso   1.00
C1090  C     0.46168   0.95069   0.76330   0.00000  Uiso   1.00
C1091  C     0.54244   0.59631   0.77115   0.00000  Uiso   1.00
C1092  C     0.50093   0.83475   0.75028   0.00000  Uiso   1.00
C1093  C     0.46076   0.90460   0.76386   0.00000  Uiso   1.00
C1094  C     0.49865   0.61708   0.75006   0.00000  Uiso   1.00
C1095  C     0.50286   0.88309   0.75116   0.00000  Uiso   1.00
C1096  C     0.45445   0.59162   0.72923   0.00000  Uiso   1.00
C1097  C     0.54658   0.90801   0.73986   0.00000  Uiso   1.00
C1098  C     0.45639   0.54509   0.72564   0.00000  Uiso   1.00
C1099  C     0.54503   0.95456   0.73560   0.00000  Uiso   1.00
C1100  C     0.50041   0.52453   0.74708   0.00000  Uiso   1.00
C1101  C     0.50228   0.97574   0.74776   0.00000  Uiso   1.00
C1102  C     0.63925   0.70161   0.66313   0.00000  Uiso   1.00
C1103  C     0.51535   0.78945   0.55615   0.00000  Uiso   1.00
C1104  C     0.35274   0.78633   0.84400   0.00000  Uiso   1.00
C1105  C     0.58978   0.62279   0.79406   0.00000  Uiso   1.00
C1106  C     0.41469   0.87896   0.77820   0.00000  Uiso   1.00
C1107  C     0.40487   0.61306   0.71211   0.00000  Uiso   1.00
C1108  C     0.59563   0.88614   0.73463   0.00000  Uiso   1.00
C1109  C     0.41949   0.50713   0.65202   0.00000  Uiso   1.00
C1110  C     0.57862   0.99082   0.66902   0.00000  Uiso   1.00
C1111  C     0.51427   0.83612   0.53621   0.00000  Uiso   1.00
C1112  C     0.48602   0.66355   0.96340   0.00000  Uiso   1.00
C1113  C     0.55709   0.82080   0.63489   0.00000  Uiso   1.00
C1114  C     0.48496   0.71027   0.94360   0.00000  Uiso   1.00
C1115  C     0.44304   0.67884   0.86469   0.00000  Uiso   1.00
C1116  C     0.44358   0.67900   0.61946   0.00000  Uiso   1.00
C1117  C     0.55675   0.82107   0.88021   0.00000  Uiso   1.00
C1118  C     0.52311   0.78514   0.60707   0.00000  Uiso   1.00
C1119  C     0.47696   0.71470   0.89271   0.00000  Uiso   1.00
C1120  C     0.47191   0.71793   0.60011   0.00000  Uiso   1.00
C1121  C     0.52855   0.78190   0.89974   0.00000  Uiso   1.00
C1122  C     0.47027   0.71912   0.54987   0.00000  Uiso   1.00
Cu1123 Cu    0.50000   0.75000   0.79822   0.00000  Uiso   1.00
Cu1124 Cu    0.50000   0.75001   0.70179   0.00000  Uiso   1.00
H1125  H     0.57488   0.53411   0.78872   0.00000  Uiso   1.00
H1126  H     0.34247   0.81517   0.82085   0.00000  Uiso   1.00
H1127  H     0.39364   0.79092   0.85937   0.00000  Uiso   1.00
H1128  H     0.66290   0.78567   0.87403   0.00000  Uiso   1.00
H1129  H     0.60395   0.64575   0.76744   0.00000  Uiso   1.00
H1130  H     0.58092   0.64228   0.82505   0.00000  Uiso   1.00
H1131  H     0.62108   0.60109   0.80730   0.00000  Uiso   1.00
H1132  H     0.42608   0.86009   0.81135   0.00000  Uiso   1.00
H1133  H     0.38478   0.90125   0.78565   0.00000  Uiso   1.00
H1134  H     0.39775   0.85562   0.74894   0.00000  Uiso   1.00
H1135  H     0.39361   0.60675   0.67312   0.00000  Uiso   1.00
H1136  H     0.43021   0.96734   0.77484   0.00000  Uiso   1.00
H1137  H     0.37426   0.59911   0.73194   0.00000  Uiso   1.00
H1138  H     0.40687   0.64932   0.71863   0.00000  Uiso   1.00
H1139  H     0.62669   0.90032   0.76184   0.00000  Uiso   1.00
H1140  H     0.59364   0.84996   0.74104   0.00000  Uiso   1.00
H1141  H     0.60619   0.89208   0.69828   0.00000  Uiso   1.00
H1142  H     0.37849   0.52853   0.70468   0.00000  Uiso   1.00
H1143  H     0.38559   0.98598   0.63615   0.00000  Uiso   1.00
H1144  H     0.45389   0.98804   0.65098   0.00000  Uiso   1.00
H1145  H     0.42222   0.53760   0.63022   0.00000  Uiso   1.00
H1146  H     0.62235   0.97036   0.73119   0.00000  Uiso   1.00
H1147  H     0.44552   0.69467   0.52898   0.00000  Uiso   1.00
H1148  H     0.61202   0.51152   0.66009   0.00000  Uiso   1.00
H1149  H     0.54410   0.50998   0.66015   0.00000  Uiso   1.00
H1150  H     0.57458   0.95986   0.64701   0.00000  Uiso   1.00
H1151  H     0.49016   0.83732   0.50077   0.00000  Uiso   1.00
H1152  H     0.49598   0.85805   0.55969   0.00000  Uiso   1.00
H1153  H     0.55356   0.85027   0.53423   0.00000  Uiso   1.00
H1154  H     0.51000   0.66226   0.99890   0.00000  Uiso   1.00
H1155  H     0.44670   0.64936   0.96516   0.00000  Uiso   1.00
H1156  H     0.50454   0.64174   0.93999   0.00000  Uiso   1.00
H1157  H     0.57599   0.80910   0.66910   0.00000  Uiso   1.00
H1158  H     0.55529   0.80488   0.97091   0.00000  Uiso   1.00
H1159  H     0.58897   0.83155   0.61493   0.00000  Uiso   1.00
H1160  H     0.53513   0.85015   0.64043   0.00000  Uiso   1.00
H1161  H     0.42543   0.68943   0.82942   0.00000  Uiso   1.00
H1162  H     0.46465   0.64897   0.86055   0.00000  Uiso   1.00
H1163  H     0.41029   0.66917   0.88400   0.00000  Uiso   1.00
H1164  H     0.42364   0.68907   0.64890   0.00000  Uiso   1.00
H1165  H     0.41352   0.66366   0.59189   0.00000  Uiso   1.00
H1166  H     0.47044   0.65296   0.63094   0.00000  Uiso   1.00
H1167  H     0.57711   0.81177   0.85054   0.00000  Uiso   1.00
H1168  H     0.52966   0.84699   0.86893   0.00000  Uiso   1.00
H1169  H     0.33900   0.76528   0.65860   0.00000  Uiso   1.00
H1170  H     0.58655   0.83655   0.90793   0.00000  Uiso   1.00
H1171  H     0.61622   0.68272   0.68725   0.00000  Uiso   1.00
H1172  H     0.33985   0.68306   0.65883   0.00000  Uiso   1.00
H1173  H     0.61561   0.70415   0.62754   0.00000  Uiso   1.00
H1174  H     0.66358   0.71892   0.83668   0.00000  Uiso   1.00
N1175  N     0.50000   0.75001   0.62935   0.00000  Uiso   1.00
N1176  N     0.50000   0.74999   0.87066   0.00000  Uiso   1.00
N1177  N     0.65452   0.74576   0.68214   0.00000  Uiso   1.00
N1178  N     0.34442   0.74471   0.81742   0.00000  Uiso   1.00
N1179  N     0.41432   0.51864   0.70093   0.00000  Uiso   1.00
N1180  N     0.58623   0.98037   0.71951   0.00000  Uiso   1.00
O1181  O     0.50000   0.68573   0.79072   0.00000  Uiso   1.00
O1182  O     0.50000   0.81428   0.70929   0.00000  Uiso   1.00
O1183  O     0.50000   0.68573   0.70928   0.00000  Uiso   1.00
O1184  O     0.50000   0.81427   0.79072   0.00000  Uiso   1.00
O1185  O     0.42495   0.75000   0.78132   0.00000  Uiso   1.00
O1186  O     0.57505   0.75001   0.71868   0.00000  Uiso   1.00
O1187  O     0.42495   0.75000   0.69989   0.00000  Uiso   1.00
O1188  O     0.57505   0.75000   0.80012   0.00000  Uiso   1.00
C1189  C     0.83290   0.66531   0.74997   0.00000  Uiso   1.00
C1190  C     0.86375   0.78054   0.94999   0.00000  Uiso   1.00
C1191  C     0.83078   0.75188   0.52681   0.00000  Uiso   1.00
C1192  C     0.83645   0.74778   0.97300   0.00000  Uiso   1.00
C1193  C     0.73487   0.74917   0.73771   0.00000  Uiso   1.00
C1194  C     0.93160   0.74901   0.76222   0.00000  Uiso   1.00
C1195  C     0.67960   0.74717   0.73065   0.00000  Uiso   1.00
C1196  C     0.98650   0.74719   0.76905   0.00000  Uiso   1.00
C1197  C     0.87548   0.55022   0.77065   0.00000  Uiso   1.00
C1198  C     0.79501   0.95069   0.76330   0.00000  Uiso   1.00
C1199  C     0.87577   0.59631   0.77115   0.00000  Uiso   1.00
C1200  C     0.83427   0.83475   0.75028   0.00000  Uiso   1.00
C1201  C     0.79410   0.90460   0.76386   0.00000  Uiso   1.00
C1202  C     0.83199   0.61708   0.75006   0.00000  Uiso   1.00
C1203  C     0.83619   0.88309   0.75116   0.00000  Uiso   1.00
C1204  C     0.78778   0.59162   0.72923   0.00000  Uiso   1.00
C1205  C     0.87991   0.90801   0.73986   0.00000  Uiso   1.00
C1206  C     0.78972   0.54509   0.72564   0.00000  Uiso   1.00
C1207  C     0.87837   0.95456   0.73560   0.00000  Uiso   1.00
C1208  C     0.83374   0.52453   0.74708   0.00000  Uiso   1.00
C1209  C     0.83561   0.97574   0.74776   0.00000  Uiso   1.00
C1210  C     0.97258   0.70161   0.66313   0.00000  Uiso   1.00
C1211  C     0.84868   0.78945   0.55615   0.00000  Uiso   1.00
C1212  C     0.68608   0.78633   0.84400   0.00000  Uiso   1.00
C1213  C     0.92311   0.62279   0.79406   0.00000  Uiso   1.00
C1214  C     0.74802   0.87896   0.77820   0.00000  Uiso   1.00
C1215  C     0.73821   0.61306   0.71211   0.00000  Uiso   1.00
C1216  C     0.92896   0.88614   0.73463   0.00000  Uiso   1.00
C1217  C     0.75282   0.50713   0.65202   0.00000  Uiso   1.00
C1218  C     0.91196   0.99082   0.66902   0.00000  Uiso   1.00
C1219  C     0.84760   0.83612   0.53621   0.00000  Uiso   1.00
C1220  C     0.81936   0.66355   0.96340   0.00000  Uiso   1.00
C1221  C     0.89042   0.82080   0.63489   0.00000  Uiso   1.00
C1222  C     0.81829   0.71027   0.94360   0.00000  Uiso   1.00
C1223  C     0.77637   0.67884   0.86469   0.00000  Uiso   1.00
C1224  C     0.77692   0.67900   0.61946   0.00000  Uiso   1.00
C1225  C     0.89008   0.82107   0.88021   0.00000  Uiso   1.00
C1226  C     0.85644   0.78514   0.60707   0.00000  Uiso   1.00
C1227  C     0.81029   0.71470   0.89271   0.00000  Uiso   1.00
C1228  C     0.80525   0.71793   0.60011   0.00000  Uiso   1.00
C1229  C     0.86188   0.78190   0.89974   0.00000  Uiso   1.00
C1230  C     0.80360   0.71912   0.54987   0.00000  Uiso   1.00
Cu1231 Cu    0.83333   0.75000   0.79822   0.00000  Uiso   1.00
Cu1232 Cu    0.83333   0.75001   0.70179   0.00000  Uiso   1.00
H1233  H     0.90822   0.53411   0.78872   0.00000  Uiso   1.00
H1234  H     0.67581   0.81517   0.82085   0.00000  Uiso   1.00
H1235  H     0.72697   0.79092   0.85937   0.00000  Uiso   1.00
H1236  H     0.99624   0.78567   0.87403   0.00000  Uiso   1.00
H1237  H     0.93728   0.64575   0.76744   0.00000  Uiso   1.00
H1238  H     0.91425   0.64228   0.82505   0.00000  Uiso   1.00
H1239  H     0.95442   0.60109   0.80730   0.00000  Uiso   1.00
H1240  H     0.75941   0.86009   0.81135   0.00000  Uiso   1.00
H1241  H     0.71811   0.90125   0.78565   0.00000  Uiso   1.00
H1242  H     0.73108   0.85562   0.74894   0.00000  Uiso   1.00
H1243  H     0.72694   0.60675   0.67312   0.00000  Uiso   1.00
H1244  H     0.76354   0.96734   0.77484   0.00000  Uiso   1.00
H1245  H     0.70759   0.59911   0.73194   0.00000  Uiso   1.00
H1246  H     0.74020   0.64932   0.71863   0.00000  Uiso   1.00
H1247  H     0.96002   0.90032   0.76184   0.00000  Uiso   1.00
H1248  H     0.92698   0.84996   0.74104   0.00000  Uiso   1.00
H1249  H     0.93953   0.89208   0.69828   0.00000  Uiso   1.00
H1250  H     0.71183   0.52853   0.70468   0.00000  Uiso   1.00
H1251  H     0.71892   0.98598   0.63615   0.00000  Uiso   1.00
H1252  H     0.78722   0.98804   0.65098   0.00000  Uiso   1.00
H1253  H     0.75555   0.53760   0.63022   0.00000  Uiso   1.00
H1254  H     0.95568   0.97036   0.73119   0.00000  Uiso   1.00
H1255  H     0.77885   0.69467   0.52898   0.00000  Uiso   1.00
H1256  H     0.94536   0.51152   0.66009   0.00000  Uiso   1.00
H1257  H     0.87744   0.50998   0.66015   0.00000  Uiso   1.00
H1258  H     0.90792   0.95986   0.64701   0.00000  Uiso   1.00
H1259  H     0.82349   0.83732   0.50077   0.00000  Uiso   1.00
H1260  H     0.82931   0.85805   0.55969   0.00000  Uiso   1.00
H1261  H     0.88689   0.85027   0.53423   0.00000  Uiso   1.00
H1262  H     0.84333   0.66226   0.99890   0.00000  Uiso   1.00
H1263  H     0.78003   0.64936   0.96516   0.00000  Uiso   1.00
H1264  H     0.83787   0.64174   0.93999   0.00000  Uiso   1.00
H1265  H     0.90932   0.80910   0.66910   0.00000  Uiso   1.00
H1266  H     0.88862   0.80488   0.97091   0.00000  Uiso   1.00
H1267  H     0.92230   0.83155   0.61493   0.00000  Uiso   1.00
H1268  H     0.86847   0.85015   0.64043   0.00000  Uiso   1.00
H1269  H     0.75876   0.68943   0.82942   0.00000  Uiso   1.00
H1270  H     0.79799   0.64897   0.86055   0.00000  Uiso   1.00
H1271  H     0.74362   0.66917   0.88400   0.00000  Uiso   1.00
H1272  H     0.75697   0.68907   0.64890   0.00000  Uiso   1.00
H1273  H     0.74685   0.66366   0.59189   0.00000  Uiso   1.00
H1274  H     0.80378   0.65296   0.63094   0.00000  Uiso   1.00
H1275  H     0.91044   0.81177   0.85054   0.00000  Uiso   1.00
H1276  H     0.86299   0.84699   0.86893   0.00000  Uiso   1.00
H1277  H     0.67233   0.76528   0.65860   0.00000  Uiso   1.00
H1278  H     0.91988   0.83655   0.90793   0.00000  Uiso   1.00
H1279  H     0.94956   0.68272   0.68725   0.00000  Uiso   1.00
H1280  H     0.67319   0.68306   0.65883   0.00000  Uiso   1.00
H1281  H     0.94894   0.70415   0.62754   0.00000  Uiso   1.00
H1282  H     0.99692   0.71892   0.83668   0.00000  Uiso   1.00
N1283  N     0.83333   0.75001   0.62935   0.00000  Uiso   1.00
N1284  N     0.83333   0.74999   0.87066   0.00000  Uiso   1.00
N1285  N     0.98786   0.74576   0.68214   0.00000  Uiso   1.00
N1286  N     0.67776   0.74471   0.81742   0.00000  Uiso   1.00
N1287  N     0.74765   0.51864   0.70093   0.00000  Uiso   1.00
N1288  N     0.91957   0.98037   0.71951   0.00000  Uiso   1.00
O1289  O     0.83334   0.68573   0.79072   0.00000  Uiso   1.00
O1290  O     0.83333   0.81428   0.70929   0.00000  Uiso   1.00
O1291  O     0.83334   0.68573   0.70928   0.00000  Uiso   1.00
O1292  O     0.83333   0.81427   0.79072   0.00000  Uiso   1.00
O1293  O     0.75828   0.75000   0.78132   0.00000  Uiso   1.00
O1294  O     0.90839   0.75001   0.71868   0.00000  Uiso   1.00
O1295  O     0.75828   0.75000   0.69989   0.00000  Uiso   1.00
O1296  O     0.90839   0.75000   0.80012   0.00000  Uiso   1.00
loop_
_geom_bond_atom_site_label_1
_geom_bond_atom_site_label_2
_geom_bond_distance
_geom_bond_site_symmetry_2
_ccdc_geom_bond_type
C1     O103    1.303   .     A
C1     O101    1.299   .     A
C1     C14     1.454   .     S
C2     C41     1.409   .     A
C2     H78     1.074   .     S
C2     C4      1.403   .     A
C3     C42     1.402   .     A
C3     C23     1.420   .     A
C3     C652    1.548   1_554 S
C4     C34     1.421   .     A
C4     C651    1.548   .     S
C5     O105    1.296   .     A
C5     C7      1.447   .     S
C5     O107    1.304   .     A
C6     O108    1.304   .     A
C6     C8      1.444   .     S
C6     O106    1.294   .     A
C7     C224    1.366   1_455 S
C7     N313    1.432   1_455 S
C8     C115    1.366   .     S
C8     N206    1.430   .     S
C9     H45     1.084   .     S
C9     C20     1.399   .     A
C9     C11     1.390   .     A
C10    H56     1.084   .     S
C10    C21     1.399   .     A
C10    C13     1.390   .     A
C11    C14     1.409   .     A
C11    C25     1.511   .     S
C12    O104    1.299   .     A
C12    O102    1.304   .     A
C12    C15     1.457   .     S
C13    C15     1.409   .     A
C13    C26     1.509   .     S
C14    C16     1.417   .     A
C15    C17     1.417   .     A
C16    C27     1.516   .     S
C16    C18     1.412   .     A
C17    C28     1.515   .     S
C17    C19     1.413   .     A
C18    N99     1.429   .     S
C18    C20     1.414   .     A
C19    C21     1.413   .     A
C19    N100    1.429   .     S
C20    C345    1.476   1_545 S
C21    C344    1.476   .     S
C22    H91     1.111   .     S
C22    N97     1.449   .     S
C22    H93     1.110   .     S
C22    H200    1.106   .     S
C23    C38     1.426   .     A
C23    C31     1.518   .     S
C24    N98     1.450   .     S
C24    H47     1.110   .     S
C24    H46     1.112   .     S
C24    H264    1.111   1_455 S
C25    H51     1.111   .     S
C25    H50     1.110   .     S
C25    H49     1.110   .     S
C26    H54     1.111   .     S
C26    H52     1.109   .     S
C26    H53     1.110   .     S
C27    H55     1.110   .     S
C27    H57     1.110   .     S
C27    H58     1.106   .     S
C28    H61     1.110   .     S
C28    H60     1.106   .     S
C28    H59     1.109   .     S
C29    N99     1.445   .     S
C29    H65     1.111   .     S
C29    H387    1.110   1_545 S
C29    H388    1.110   1_545 S
C30    N100    1.446   .     S
C30    H70     1.111   .     S
C30    H392    1.111   .     S
C30    H393    1.110   .     S
C31    H73     1.110   .     S
C31    H71     1.109   .     S
C31    H72     1.110   .     S
C32    H75     1.110   .     S
C32    H74     1.109   .     S
C32    C34     1.518   .     S
C32    H76     1.110   .     S
C33    H79     1.111   .     S
C33    H80     1.110   .     S
C33    C38     1.506   .     S
C33    H77     1.091   .     S
C34    C39     1.426   .     A
C35    H81     1.093   .     S
C35    H82     1.110   .     S
C35    H83     1.111   .     S
C35    C39     1.512   .     S
C36    C40     1.501   .     S
C36    H86     1.109   .     S
C36    H85     1.111   .     S
C36    H84     1.094   .     S
C37    H88     1.109   .     S
C37    H90     1.111   .     S
C37    H87     1.099   .     S
C37    C41     1.507   .     S
C38    N95     1.388   .     A
C39    N96     1.387   .     A
C40    N95     1.382   .     A
C40    C42     1.409   .     A
C41    N96     1.382   .     A
C42    H67     1.074   .     S
Cu43   O105    1.978   .     S
Cu43   O104    1.952   .     S
Cu43   Cu44    2.714   .     S
Cu43   O101    1.951   .     S
Cu43   N96     2.039   .     S
Cu43   O108    1.980   .     S
Cu44   O103    1.952   .     S
Cu44   O107    1.980   .     S
Cu44   O102    1.951   .     S
Cu44   O106    1.978   .     S
Cu44   N95     2.039   .     S
H48    C132    1.111   .     S
H62    N99     1.030   .     S
H63    C353    1.110   .     S
H64    C353    1.110   .     S
H66    N100    1.030   .     S
H68    C354    1.111   1_545 S
H69    C354    1.110   1_545 S
H89    N313    1.031   1_455 S
H92    C238    1.106   1_455 S
H94    N206    1.032   .     S
N97    C115    1.432   .     S
N97    H197    1.031   .     S
N98    H310    1.032   1_455 S
N98    C224    1.430   1_455 S
C109   O211    1.303   .     A
C109   O209    1.299   .     A
C109   C122    1.454   .     S
C110   C149    1.409   .     A
C110   H186    1.074   .     S
C110   C112    1.403   .     A
C111   C150    1.402   .     A
C111   C131    1.420   .     A
C111   C760    1.548   1_554 S
C112   C142    1.421   .     A
C112   C759    1.548   .     S
C113   O213    1.296   .     A
C113   C115    1.447   .     S
C113   O215    1.304   .     A
C114   O216    1.304   .     A
C114   C116    1.444   .     S
C114   O214    1.294   .     A
C116   C223    1.366   .     S
C116   N314    1.430   .     S
C117   H153    1.084   .     S
C117   C128    1.399   .     A
C117   C119    1.390   .     A
C118   H164    1.084   .     S
C118   C129    1.399   .     A
C118   C121    1.390   .     A
C119   C122    1.409   .     A
C119   C133    1.511   .     S
C120   O212    1.299   .     A
C120   O210    1.304   .     A
C120   C123    1.457   .     S
C121   C123    1.409   .     A
C121   C134    1.509   .     S
C122   C124    1.417   .     A
C123   C125    1.417   .     A
C124   C135    1.516   .     S
C124   C126    1.412   .     A
C125   C136    1.515   .     S
C125   C127    1.413   .     A
C126   N207    1.429   .     S
C126   C128    1.414   .     A
C127   C129    1.413   .     A
C127   N208    1.429   .     S
C128   C453    1.476   1_545 S
C129   C452    1.476   .     S
C130   H199    1.111   .     S
C130   N205    1.449   .     S
C130   H201    1.110   .     S
C130   H308    1.106   .     S
C131   C146    1.426   .     A
C131   C139    1.518   .     S
C132   N206    1.450   .     S
C132   H155    1.110   .     S
C132   H154    1.112   .     S
C133   H159    1.111   .     S
C133   H158    1.110   .     S
C133   H157    1.110   .     S
C134   H162    1.111   .     S
C134   H160    1.109   .     S
C134   H161    1.110   .     S
C135   H163    1.110   .     S
C135   H165    1.110   .     S
C135   H166    1.106   .     S
C136   H169    1.110   .     S
C136   H168    1.106   .     S
C136   H167    1.109   .     S
C137   N207    1.445   .     S
C137   H173    1.111   .     S
C137   H495    1.110   1_545 S
C137   H496    1.110   1_545 S
C138   N208    1.446   .     S
C138   H178    1.111   .     S
C138   H500    1.111   .     S
C138   H501    1.110   .     S
C139   H181    1.110   .     S
C139   H179    1.109   .     S
C139   H180    1.110   .     S
C140   H183    1.110   .     S
C140   H182    1.109   .     S
C140   C142    1.518   .     S
C140   H184    1.110   .     S
C141   H187    1.111   .     S
C141   H188    1.110   .     S
C141   C146    1.506   .     S
C141   H185    1.091   .     S
C142   C147    1.426   .     A
C143   H189    1.093   .     S
C143   H190    1.110   .     S
C143   H191    1.111   .     S
C143   C147    1.512   .     S
C144   C148    1.501   .     S
C144   H194    1.109   .     S
C144   H193    1.111   .     S
C144   H192    1.094   .     S
C145   H196    1.109   .     S
C145   H198    1.111   .     S
C145   H195    1.099   .     S
C145   C149    1.507   .     S
C146   N203    1.388   .     A
C147   N204    1.387   .     A
C148   N203    1.382   .     A
C148   C150    1.409   .     A
C149   N204    1.382   .     A
C150   H175    1.074   .     S
Cu151  O213    1.978   .     S
Cu151  O212    1.952   .     S
Cu151  Cu152   2.714   .     S
Cu151  O209    1.951   .     S
Cu151  N204    2.039   .     S
Cu151  O216    1.980   .     S
Cu152  O211    1.952   .     S
Cu152  O215    1.980   .     S
Cu152  O210    1.951   .     S
Cu152  O214    1.978   .     S
Cu152  N203    2.039   .     S
H156   C240    1.111   .     S
H170   N207    1.030   .     S
H171   C461    1.110   .     S
H172   C461    1.110   .     S
H174   N208    1.030   .     S
H176   C462    1.111   1_545 S
H177   C462    1.110   1_545 S
H202   N314    1.032   .     S
N205   C223    1.432   .     S
N205   H305    1.031   .     S
C217   O319    1.303   .     A
C217   O317    1.299   .     A
C217   C230    1.454   .     S
C218   C257    1.409   .     A
C218   H294    1.074   .     S
C218   C220    1.403   .     A
C219   C258    1.402   .     A
C219   C239    1.420   .     A
C219   C868    1.548   1_554 S
C220   C250    1.421   .     A
C220   C867    1.548   .     S
C221   O321    1.296   .     A
C221   C223    1.447   .     S
C221   O323    1.304   .     A
C222   O324    1.304   .     A
C222   C224    1.444   .     S
C222   O322    1.294   .     A
C224   C7      1.366   1_655 S
C224   N98     1.430   1_655 S
C225   H261    1.084   .     S
C225   C236    1.399   .     A
C225   C227    1.390   .     A
C226   H272    1.084   .     S
C226   C237    1.399   .     A
C226   C229    1.390   .     A
C227   C230    1.409   .     A
C227   C241    1.511   .     S
C228   O320    1.299   .     A
C228   O318    1.304   .     A
C228   C231    1.457   .     S
C229   C231    1.409   .     A
C229   C242    1.509   .     S
C230   C232    1.417   .     A
C231   C233    1.417   .     A
C232   C243    1.516   .     S
C232   C234    1.412   .     A
C233   C244    1.515   .     S
C233   C235    1.413   .     A
C234   N315    1.429   .     S
C234   C236    1.414   .     A
C235   C237    1.413   .     A
C235   N316    1.429   .     S
C236   C561    1.476   1_545 S
C237   C560    1.476   .     S
C238   H307    1.111   .     S
C238   N313    1.449   .     S
C238   H309    1.110   .     S
C238   H92     1.106   1_655 S
C239   C254    1.426   .     A
C239   C247    1.518   .     S
C240   N314    1.450   .     S
C240   H263    1.110   .     S
C240   H262    1.112   .     S
C241   H267    1.111   .     S
C241   H266    1.110   .     S
C241   H265    1.110   .     S
C242   H270    1.111   .     S
C242   H268    1.109   .     S
C242   H269    1.110   .     S
C243   H271    1.110   .     S
C243   H273    1.110   .     S
C243   H274    1.106   .     S
C244   H277    1.110   .     S
C244   H276    1.106   .     S
C244   H275    1.109   .     S
C245   N315    1.445   .     S
C245   H281    1.111   .     S
C245   H603    1.110   1_545 S
C245   H604    1.110   1_545 S
C246   N316    1.446   .     S
C246   H286    1.111   .     S
C246   H608    1.111   .     S
C246   H609    1.110   .     S
C247   H289    1.110   .     S
C247   H287    1.109   .     S
C247   H288    1.110   .     S
C248   H291    1.110   .     S
C248   H290    1.109   .     S
C248   C250    1.518   .     S
C248   H292    1.110   .     S
C249   H295    1.111   .     S
C249   H296    1.110   .     S
C249   C254    1.506   .     S
C249   H293    1.091   .     S
C250   C255    1.426   .     A
C251   H297    1.093   .     S
C251   H298    1.110   .     S
C251   H299    1.111   .     S
C251   C255    1.512   .     S
C252   C256    1.501   .     S
C252   H302    1.109   .     S
C252   H301    1.111   .     S
C252   H300    1.094   .     S
C253   H304    1.109   .     S
C253   H306    1.111   .     S
C253   H303    1.099   .     S
C253   C257    1.507   .     S
C254   N311    1.388   .     A
C255   N312    1.387   .     A
C256   N311    1.382   .     A
C256   C258    1.409   .     A
C257   N312    1.382   .     A
C258   H283    1.074   .     S
Cu259  O321    1.978   .     S
Cu259  O320    1.952   .     S
Cu259  Cu260   2.714   .     S
Cu259  O317    1.951   .     S
Cu259  N312    2.039   .     S
Cu259  O324    1.980   .     S
Cu260  O319    1.952   .     S
Cu260  O323    1.980   .     S
Cu260  O318    1.951   .     S
Cu260  O322    1.978   .     S
Cu260  N311    2.039   .     S
H264   C24     1.111   1_655 S
H278   N315    1.030   .     S
H279   C569    1.110   .     S
H280   C569    1.110   .     S
H282   N316    1.030   .     S
H284   C570    1.111   1_545 S
H285   C570    1.110   1_545 S
H310   N98     1.032   1_655 S
N313   C7      1.432   1_655 S
N313   H89     1.031   1_655 S
C325   O427    1.303   .     A
C325   O425    1.299   .     A
C325   C338    1.454   .     S
C326   C365    1.409   .     A
C326   H402    1.074   .     S
C326   C328    1.403   .     A
C327   C366    1.402   .     A
C327   C347    1.420   .     A
C327   C976    1.548   1_554 S
C328   C358    1.421   .     A
C328   C975    1.548   .     S
C329   O429    1.296   .     A
C329   C331    1.447   .     S
C329   O431    1.304   .     A
C330   O432    1.304   .     A
C330   C332    1.444   .     S
C330   O430    1.294   .     A
C331   C548    1.366   1_455 S
C331   N637    1.432   1_455 S
C332   C439    1.366   .     S
C332   N530    1.430   .     S
C333   H369    1.084   .     S
C333   C344    1.399   .     A
C333   C335    1.390   .     A
C334   H380    1.084   .     S
C334   C345    1.399   .     A
C334   C337    1.390   .     A
C335   C338    1.409   .     A
C335   C349    1.511   .     S
C336   O428    1.299   .     A
C336   O426    1.304   .     A
C336   C339    1.457   .     S
C337   C339    1.409   .     A
C337   C350    1.509   .     S
C338   C340    1.417   .     A
C339   C341    1.417   .     A
C340   C351    1.516   .     S
C340   C342    1.412   .     A
C341   C352    1.515   .     S
C341   C343    1.413   .     A
C342   N423    1.429   .     S
C342   C344    1.414   .     A
C343   C345    1.413   .     A
C343   N424    1.429   .     S
C345   C20     1.476   1_565 S
C346   H415    1.111   .     S
C346   N421    1.449   .     S
C346   H417    1.110   .     S
C346   H524    1.106   .     S
C347   C362    1.426   .     A
C347   C355    1.518   .     S
C348   N422    1.450   .     S
C348   H371    1.110   .     S
C348   H370    1.112   .     S
C348   H588    1.111   1_455 S
C349   H375    1.111   .     S
C349   H374    1.110   .     S
C349   H373    1.110   .     S
C350   H378    1.111   .     S
C350   H376    1.109   .     S
C350   H377    1.110   .     S
C351   H379    1.110   .     S
C351   H381    1.110   .     S
C351   H382    1.106   .     S
C352   H385    1.110   .     S
C352   H384    1.106   .     S
C352   H383    1.109   .     S
C353   N423    1.445   .     S
C353   H389    1.111   .     S
C354   N424    1.446   .     S
C354   H394    1.111   .     S
C354   H68     1.111   1_565 S
C354   H69     1.110   1_565 S
C355   H397    1.110   .     S
C355   H395    1.109   .     S
C355   H396    1.110   .     S
C356   H399    1.110   .     S
C356   H398    1.109   .     S
C356   C358    1.518   .     S
C356   H400    1.110   .     S
C357   H403    1.111   .     S
C357   H404    1.110   .     S
C357   C362    1.506   .     S
C357   H401    1.091   .     S
C358   C363    1.426   .     A
C359   H405    1.093   .     S
C359   H406    1.110   .     S
C359   H407    1.111   .     S
C359   C363    1.512   .     S
C360   C364    1.501   .     S
C360   H410    1.109   .     S
C360   H409    1.111   .     S
C360   H408    1.094   .     S
C361   H412    1.109   .     S
C361   H414    1.111   .     S
C361   H411    1.099   .     S
C361   C365    1.507   .     S
C362   N419    1.388   .     A
C363   N420    1.387   .     A
C364   N419    1.382   .     A
C364   C366    1.409   .     A
C365   N420    1.382   .     A
C366   H391    1.074   .     S
Cu367  O429    1.978   .     S
Cu367  O428    1.952   .     S
Cu367  Cu368   2.714   .     S
Cu367  O425    1.951   .     S
Cu367  N420    2.039   .     S
Cu367  O432    1.980   .     S
Cu368  O427    1.952   .     S
Cu368  O431    1.980   .     S
Cu368  O426    1.951   .     S
Cu368  O430    1.978   .     S
Cu368  N419    2.039   .     S
H372   C456    1.111   .     S
H386   N423    1.030   .     S
H387   C29     1.110   1_565 S
H388   C29     1.110   1_565 S
H390   N424    1.030   .     S
H413   N637    1.031   1_455 S
H416   C562    1.106   1_455 S
H418   N530    1.032   .     S
N421   C439    1.432   .     S
N421   H521    1.031   .     S
N422   H634    1.032   1_455 S
N422   C548    1.430   1_455 S
C433   O535    1.303   .     A
C433   O533    1.299   .     A
C433   C446    1.454   .     S
C434   C473    1.409   .     A
C434   H510    1.074   .     S
C434   C436    1.403   .     A
C435   C474    1.402   .     A
C435   C455    1.420   .     A
C435   C1084   1.548   1_554 S
C436   C466    1.421   .     A
C436   C1083   1.548   .     S
C437   O537    1.296   .     A
C437   C439    1.447   .     S
C437   O539    1.304   .     A
C438   O540    1.304   .     A
C438   C440    1.444   .     S
C438   O538    1.294   .     A
C440   C547    1.366   .     S
C440   N638    1.430   .     S
C441   H477    1.084   .     S
C441   C452    1.399   .     A
C441   C443    1.390   .     A
C442   H488    1.084   .     S
C442   C453    1.399   .     A
C442   C445    1.390   .     A
C443   C446    1.409   .     A
C443   C457    1.511   .     S
C444   O536    1.299   .     A
C444   O534    1.304   .     A
C444   C447    1.457   .     S
C445   C447    1.409   .     A
C445   C458    1.509   .     S
C446   C448    1.417   .     A
C447   C449    1.417   .     A
C448   C459    1.516   .     S
C448   C450    1.412   .     A
C449   C460    1.515   .     S
C449   C451    1.413   .     A
C450   N531    1.429   .     S
C450   C452    1.414   .     A
C451   C453    1.413   .     A
C451   N532    1.429   .     S
C453   C128    1.476   1_565 S
C454   H523    1.111   .     S
C454   N529    1.449   .     S
C454   H525    1.110   .     S
C454   H632    1.106   .     S
C455   C470    1.426   .     A
C455   C463    1.518   .     S
C456   N530    1.450   .     S
C456   H479    1.110   .     S
C456   H478    1.112   .     S
C457   H483    1.111   .     S
C457   H482    1.110   .     S
C457   H481    1.110   .     S
C458   H486    1.111   .     S
C458   H484    1.109   .     S
C458   H485    1.110   .     S
C459   H487    1.110   .     S
C459   H489    1.110   .     S
C459   H490    1.106   .     S
C460   H493    1.110   .     S
C460   H492    1.106   .     S
C460   H491    1.109   .     S
C461   N531    1.445   .     S
C461   H497    1.111   .     S
C462   N532    1.446   .     S
C462   H502    1.111   .     S
C462   H176    1.111   1_565 S
C462   H177    1.110   1_565 S
C463   H505    1.110   .     S
C463   H503    1.109   .     S
C463   H504    1.110   .     S
C464   H507    1.110   .     S
C464   H506    1.109   .     S
C464   C466    1.518   .     S
C464   H508    1.110   .     S
C465   H511    1.111   .     S
C465   H512    1.110   .     S
C465   C470    1.506   .     S
C465   H509    1.091   .     S
C466   C471    1.426   .     A
C467   H513    1.093   .     S
C467   H514    1.110   .     S
C467   H515    1.111   .     S
C467   C471    1.512   .     S
C468   C472    1.501   .     S
C468   H518    1.109   .     S
C468   H517    1.111   .     S
C468   H516    1.094   .     S
C469   H520    1.109   .     S
C469   H522    1.111   .     S
C469   H519    1.099   .     S
C469   C473    1.507   .     S
C470   N527    1.388   .     A
C471   N528    1.387   .     A
C472   N527    1.382   .     A
C472   C474    1.409   .     A
C473   N528    1.382   .     A
C474   H499    1.074   .     S
Cu475  O537    1.978   .     S
Cu475  O536    1.952   .     S
Cu475  Cu476   2.714   .     S
Cu475  O533    1.951   .     S
Cu475  N528    2.039   .     S
Cu475  O540    1.980   .     S
Cu476  O535    1.952   .     S
Cu476  O539    1.980   .     S
Cu476  O534    1.951   .     S
Cu476  O538    1.978   .     S
Cu476  N527    2.039   .     S
H480   C564    1.111   .     S
H494   N531    1.030   .     S
H495   C137    1.110   1_565 S
H496   C137    1.110   1_565 S
H498   N532    1.030   .     S
H526   N638    1.032   .     S
N529   C547    1.432   .     S
N529   H629    1.031   .     S
C541   O643    1.303   .     A
C541   O641    1.299   .     A
C541   C554    1.454   .     S
C542   C581    1.409   .     A
C542   H618    1.074   .     S
C542   C544    1.403   .     A
C543   C582    1.402   .     A
C543   C563    1.420   .     A
C543   C1192   1.548   1_554 S
C544   C574    1.421   .     A
C544   C1191   1.548   .     S
C545   O645    1.296   .     A
C545   C547    1.447   .     S
C545   O647    1.304   .     A
C546   O648    1.304   .     A
C546   C548    1.444   .     S
C546   O646    1.294   .     A
C548   C331    1.366   1_655 S
C548   N422    1.430   1_655 S
C549   H585    1.084   .     S
C549   C560    1.399   .     A
C549   C551    1.390   .     A
C550   H596    1.084   .     S
C550   C561    1.399   .     A
C550   C553    1.390   .     A
C551   C554    1.409   .     A
C551   C565    1.511   .     S
C552   O644    1.299   .     A
C552   O642    1.304   .     A
C552   C555    1.457   .     S
C553   C555    1.409   .     A
C553   C566    1.509   .     S
C554   C556    1.417   .     A
C555   C557    1.417   .     A
C556   C567    1.516   .     S
C556   C558    1.412   .     A
C557   C568    1.515   .     S
C557   C559    1.413   .     A
C558   N639    1.429   .     S
C558   C560    1.414   .     A
C559   C561    1.413   .     A
C559   N640    1.429   .     S
C561   C236    1.476   1_565 S
C562   H631    1.111   .     S
C562   N637    1.449   .     S
C562   H633    1.110   .     S
C562   H416    1.106   1_655 S
C563   C578    1.426   .     A
C563   C571    1.518   .     S
C564   N638    1.450   .     S
C564   H587    1.110   .     S
C564   H586    1.112   .     S
C565   H591    1.111   .     S
C565   H590    1.110   .     S
C565   H589    1.110   .     S
C566   H594    1.111   .     S
C566   H592    1.109   .     S
C566   H593    1.110   .     S
C567   H595    1.110   .     S
C567   H597    1.110   .     S
C567   H598    1.106   .     S
C568   H601    1.110   .     S
C568   H600    1.106   .     S
C568   H599    1.109   .     S
C569   N639    1.445   .     S
C569   H605    1.111   .     S
C570   N640    1.446   .     S
C570   H610    1.111   .     S
C570   H284    1.111   1_565 S
C570   H285    1.110   1_565 S
C571   H613    1.110   .     S
C571   H611    1.109   .     S
C571   H612    1.110   .     S
C572   H615    1.110   .     S
C572   H614    1.109   .     S
C572   C574    1.518   .     S
C572   H616    1.110   .     S
C573   H619    1.111   .     S
C573   H620    1.110   .     S
C573   C578    1.506   .     S
C573   H617    1.091   .     S
C574   C579    1.426   .     A
C575   H621    1.093   .     S
C575   H622    1.110   .     S
C575   H623    1.111   .     S
C575   C579    1.512   .     S
C576   C580    1.501   .     S
C576   H626    1.109   .     S
C576   H625    1.111   .     S
C576   H624    1.094   .     S
C577   H628    1.109   .     S
C577   H630    1.111   .     S
C577   H627    1.099   .     S
C577   C581    1.507   .     S
C578   N635    1.388   .     A
C579   N636    1.387   .     A
C580   N635    1.382   .     A
C580   C582    1.409   .     A
C581   N636    1.382   .     A
C582   H607    1.074   .     S
Cu583  O645    1.978   .     S
Cu583  O644    1.952   .     S
Cu583  Cu584   2.714   .     S
Cu583  O641    1.951   .     S
Cu583  N636    2.039   .     S
Cu583  O648    1.980   .     S
Cu584  O643    1.952   .     S
Cu584  O647    1.980   .     S
Cu584  O642    1.951   .     S
Cu584  O646    1.978   .     S
Cu584  N635    2.039   .     S
H588   C348    1.111   1_655 S
H602   N639    1.030   .     S
H603   C245    1.110   1_565 S
H604   C245    1.110   1_565 S
H606   N640    1.030   .     S
H634   N422    1.032   1_655 S
N637   C331    1.432   1_655 S
N637   H413    1.031   1_655 S
C649   O751    1.303   .     A
C649   O749    1.299   .     A
C649   C662    1.454   .     S
C650   C689    1.409   .     A
C650   H726    1.074   .     S
C650   C652    1.403   .     A
C651   C690    1.402   .     A
C651   C671    1.420   .     A
C652   C682    1.421   .     A
C652   C3      1.548   1_556 S
C653   O753    1.296   .     A
C653   C655    1.447   .     S
C653   O755    1.304   .     A
C654   O756    1.304   .     A
C654   C656    1.444   .     S
C654   O754    1.294   .     A
C655   C872    1.366   1_455 S
C655   N961    1.432   1_455 S
C656   C763    1.366   .     S
C656   N854    1.430   .     S
C657   H693    1.084   .     S
C657   C668    1.399   .     A
C657   C659    1.390   .     A
C658   H704    1.084   .     S
C658   C669    1.399   .     A
C658   C661    1.390   .     A
C659   C662    1.409   .     A
C659   C673    1.511   .     S
C660   O752    1.299   .     A
C660   O750    1.304   .     A
C660   C663    1.457   .     S
C661   C663    1.409   .     A
C661   C674    1.509   .     S
C662   C664    1.417   .     A
C663   C665    1.417   .     A
C664   C675    1.516   .     S
C664   C666    1.412   .     A
C665   C676    1.515   .     S
C665   C667    1.413   .     A
C666   N747    1.429   .     S
C666   C668    1.414   .     A
C667   C669    1.413   .     A
C667   N748    1.429   .     S
C668   C993    1.476   1_545 S
C669   C992    1.476   .     S
C670   H739    1.111   .     S
C670   N745    1.449   .     S
C670   H741    1.110   .     S
C670   H848    1.106   .     S
C671   C686    1.426   .     A
C671   C679    1.518   .     S
C672   N746    1.450   .     S
C672   H695    1.110   .     S
C672   H694    1.112   .     S
C672   H912    1.111   1_455 S
C673   H699    1.111   .     S
C673   H698    1.110   .     S
C673   H697    1.110   .     S
C674   H702    1.111   .     S
C674   H700    1.109   .     S
C674   H701    1.110   .     S
C675   H703    1.110   .     S
C675   H705    1.110   .     S
C675   H706    1.106   .     S
C676   H709    1.110   .     S
C676   H708    1.106   .     S
C676   H707    1.109   .     S
C677   N747    1.445   .     S
C677   H713    1.111   .     S
C677   H1035   1.110   1_545 S
C677   H1036   1.110   1_545 S
C678   N748    1.446   .     S
C678   H718    1.111   .     S
C678   H1040   1.111   .     S
C678   H1041   1.110   .     S
C679   H721    1.110   .     S
C679   H719    1.109   .     S
C679   H720    1.110   .     S
C680   H723    1.110   .     S
C680   H722    1.109   .     S
C680   C682    1.518   .     S
C680   H724    1.110   .     S
C681   H727    1.111   .     S
C681   H728    1.110   .     S
C681   C686    1.506   .     S
C681   H725    1.091   .     S
C682   C687    1.426   .     A
C683   H729    1.093   .     S
C683   H730    1.110   .     S
C683   H731    1.111   .     S
C683   C687    1.512   .     S
C684   C688    1.501   .     S
C684   H734    1.109   .     S
C684   H733    1.111   .     S
C684   H732    1.094   .     S
C685   H736    1.109   .     S
C685   H738    1.111   .     S
C685   H735    1.099   .     S
C685   C689    1.507   .     S
C686   N743    1.388   .     A
C687   N744    1.387   .     A
C688   N743    1.382   .     A
C688   C690    1.409   .     A
C689   N744    1.382   .     A
C690   H715    1.074   .     S
Cu691  O753    1.978   .     S
Cu691  O752    1.952   .     S
Cu691  Cu692   2.714   .     S
Cu691  O749    1.951   .     S
Cu691  N744    2.039   .     S
Cu691  O756    1.980   .     S
Cu692  O751    1.952   .     S
Cu692  O755    1.980   .     S
Cu692  O750    1.951   .     S
Cu692  O754    1.978   .     S
Cu692  N743    2.039   .     S
H696   C780    1.111   .     S
H710   N747    1.030   .     S
H711   C1001   1.110   .     S
H712   C1001   1.110   .     S
H714   N748    1.030   .     S
H716   C1002   1.111   1_545 S
H717   C1002   1.110   1_545 S
H737   N961    1.031   1_455 S
H740   C886    1.106   1_455 S
H742   N854    1.032   .     S
N745   C763    1.432   .     S
N745   H845    1.031   .     S
N746   H958    1.032   1_455 S
N746   C872    1.430   1_455 S
C757   O859    1.303   .     A
C757   O857    1.299   .     A
C757   C770    1.454   .     S
C758   C797    1.409   .     A
C758   H834    1.074   .     S
C758   C760    1.403   .     A
C759   C798    1.402   .     A
C759   C779    1.420   .     A
C760   C790    1.421   .     A
C760   C111    1.548   1_556 S
C761   O861    1.296   .     A
C761   C763    1.447   .     S
C761   O863    1.304   .     A
C762   O864    1.304   .     A
C762   C764    1.444   .     S
C762   O862    1.294   .     A
C764   C871    1.366   .     S
C764   N962    1.430   .     S
C765   H801    1.084   .     S
C765   C776    1.399   .     A
C765   C767    1.390   .     A
C766   H812    1.084   .     S
C766   C777    1.399   .     A
C766   C769    1.390   .     A
C767   C770    1.409   .     A
C767   C781    1.511   .     S
C768   O860    1.299   .     A
C768   O858    1.304   .     A
C768   C771    1.457   .     S
C769   C771    1.409   .     A
C769   C782    1.509   .     S
C770   C772    1.417   .     A
C771   C773    1.417   .     A
C772   C783    1.516   .     S
C772   C774    1.412   .     A
C773   C784    1.515   .     S
C773   C775    1.413   .     A
C774   N855    1.429   .     S
C774   C776    1.414   .     A
C775   C777    1.413   .     A
C775   N856    1.429   .     S
C776   C1101   1.476   1_545 S
C777   C1100   1.476   .     S
C778   H847    1.111   .     S
C778   N853    1.449   .     S
C778   H849    1.110   .     S
C778   H956    1.106   .     S
C779   C794    1.426   .     A
C779   C787    1.518   .     S
C780   N854    1.450   .     S
C780   H803    1.110   .     S
C780   H802    1.112   .     S
C781   H807    1.111   .     S
C781   H806    1.110   .     S
C781   H805    1.110   .     S
C782   H810    1.111   .     S
C782   H808    1.109   .     S
C782   H809    1.110   .     S
C783   H811    1.110   .     S
C783   H813    1.110   .     S
C783   H814    1.106   .     S
C784   H817    1.110   .     S
C784   H816    1.106   .     S
C784   H815    1.109   .     S
C785   N855    1.445   .     S
C785   H821    1.111   .     S
C785   H1143   1.110   1_545 S
C785   H1144   1.110   1_545 S
C786   N856    1.446   .     S
C786   H826    1.111   .     S
C786   H1148   1.111   .     S
C786   H1149   1.110   .     S
C787   H829    1.110   .     S
C787   H827    1.109   .     S
C787   H828    1.110   .     S
C788   H831    1.110   .     S
C788   H830    1.109   .     S
C788   C790    1.518   .     S
C788   H832    1.110   .     S
C789   H835    1.111   .     S
C789   H836    1.110   .     S
C789   C794    1.506   .     S
C789   H833    1.091   .     S
C790   C795    1.426   .     A
C791   H837    1.093   .     S
C791   H838    1.110   .     S
C791   H839    1.111   .     S
C791   C795    1.512   .     S
C792   C796    1.501   .     S
C792   H842    1.109   .     S
C792   H841    1.111   .     S
C792   H840    1.094   .     S
C793   H844    1.109   .     S
C793   H846    1.111   .     S
C793   H843    1.099   .     S
C793   C797    1.507   .     S
C794   N851    1.388   .     A
C795   N852    1.387   .     A
C796   N851    1.382   .     A
C796   C798    1.409   .     A
C797   N852    1.382   .     A
C798   H823    1.074   .     S
Cu799  O861    1.978   .     S
Cu799  O860    1.952   .     S
Cu799  Cu800   2.714   .     S
Cu799  O857    1.951   .     S
Cu799  N852    2.039   .     S
Cu799  O864    1.980   .     S
Cu800  O859    1.952   .     S
Cu800  O863    1.980   .     S
Cu800  O858    1.951   .     S
Cu800  O862    1.978   .     S
Cu800  N851    2.039   .     S
H804   C888    1.111   .     S
H818   N855    1.030   .     S
H819   C1109   1.110   .     S
H820   C1109   1.110   .     S
H822   N856    1.030   .     S
H824   C1110   1.111   1_545 S
H825   C1110   1.110   1_545 S
H850   N962    1.032   .     S
N853   C871    1.432   .     S
N853   H953    1.031   .     S
C865   O967    1.303   .     A
C865   O965    1.299   .     A
C865   C878    1.454   .     S
C866   C905    1.409   .     A
C866   H942    1.074   .     S
C866   C868    1.403   .     A
C867   C906    1.402   .     A
C867   C887    1.420   .     A
C868   C898    1.421   .     A
C868   C219    1.548   1_556 S
C869   O969    1.296   .     A
C869   C871    1.447   .     S
C869   O971    1.304   .     A
C870   O972    1.304   .     A
C870   C872    1.444   .     S
C870   O970    1.294   .     A
C872   C655    1.366   1_655 S
C872   N746    1.430   1_655 S
C873   H909    1.084   .     S
C873   C884    1.399   .     A
C873   C875    1.390   .     A
C874   H920    1.084   .     S
C874   C885    1.399   .     A
C874   C877    1.390   .     A
C875   C878    1.409   .     A
C875   C889    1.511   .     S
C876   O968    1.299   .     A
C876   O966    1.304   .     A
C876   C879    1.457   .     S
C877   C879    1.409   .     A
C877   C890    1.509   .     S
C878   C880    1.417   .     A
C879   C881    1.417   .     A
C880   C891    1.516   .     S
C880   C882    1.412   .     A
C881   C892    1.515   .     S
C881   C883    1.413   .     A
C882   N963    1.429   .     S
C882   C884    1.414   .     A
C883   C885    1.413   .     A
C883   N964    1.429   .     S
C884   C1209   1.476   1_545 S
C885   C1208   1.476   .     S
C886   H955    1.111   .     S
C886   N961    1.449   .     S
C886   H957    1.110   .     S
C886   H740    1.106   1_655 S
C887   C902    1.426   .     A
C887   C895    1.518   .     S
C888   N962    1.450   .     S
C888   H911    1.110   .     S
C888   H910    1.112   .     S
C889   H915    1.111   .     S
C889   H914    1.110   .     S
C889   H913    1.110   .     S
C890   H918    1.111   .     S
C890   H916    1.109   .     S
C890   H917    1.110   .     S
C891   H919    1.110   .     S
C891   H921    1.110   .     S
C891   H922    1.106   .     S
C892   H925    1.110   .     S
C892   H924    1.106   .     S
C892   H923    1.109   .     S
C893   N963    1.445   .     S
C893   H929    1.111   .     S
C893   H1251   1.110   1_545 S
C893   H1252   1.110   1_545 S
C894   N964    1.446   .     S
C894   H934    1.111   .     S
C894   H1256   1.111   .     S
C894   H1257   1.110   .     S
C895   H937    1.110   .     S
C895   H935    1.109   .     S
C895   H936    1.110   .     S
C896   H939    1.110   .     S
C896   H938    1.109   .     S
C896   C898    1.518   .     S
C896   H940    1.110   .     S
C897   H943    1.111   .     S
C897   H944    1.110   .     S
C897   C902    1.506   .     S
C897   H941    1.091   .     S
C898   C903    1.426   .     A
C899   H945    1.093   .     S
C899   H946    1.110   .     S
C899   H947    1.111   .     S
C899   C903    1.512   .     S
C900   C904    1.501   .     S
C900   H950    1.109   .     S
C900   H949    1.111   .     S
C900   H948    1.094   .     S
C901   H952    1.109   .     S
C901   H954    1.111   .     S
C901   H951    1.099   .     S
C901   C905    1.507   .     S
C902   N959    1.388   .     A
C903   N960    1.387   .     A
C904   N959    1.382   .     A
C904   C906    1.409   .     A
C905   N960    1.382   .     A
C906   H931    1.074   .     S
Cu907  O969    1.978   .     S
Cu907  O968    1.952   .     S
Cu907  Cu908   2.714   .     S
Cu907  O965    1.951   .     S
Cu907  N960    2.039   .     S
Cu907  O972    1.980   .     S
Cu908  O967    1.952   .     S
Cu908  O971    1.980   .     S
Cu908  O966    1.951   .     S
Cu908  O970    1.978   .     S
Cu908  N959    2.039   .     S
H912   C672    1.111   1_655 S
H926   N963    1.030   .     S
H927   C1217   1.110   .     S
H928   C1217   1.110   .     S
H930   N964    1.030   .     S
H932   C1218   1.111   1_545 S
H933   C1218   1.110   1_545 S
H958   N746    1.032   1_655 S
N961   C655    1.432   1_655 S
N961   H737    1.031   1_655 S
C973   O1075   1.303   .     A
C973   O1073   1.299   .     A
C973   C986    1.454   .     S
C974   C1013   1.409   .     A
C974   H1050   1.074   .     S
C974   C976    1.403   .     A
C975   C1014   1.402   .     A
C975   C995    1.420   .     A
C976   C1006   1.421   .     A
C976   C327    1.548   1_556 S
C977   O1077   1.296   .     A
C977   C979    1.447   .     S
C977   O1079   1.304   .     A
C978   O1080   1.304   .     A
C978   C980    1.444   .     S
C978   O1078   1.294   .     A
C979   C1196   1.366   1_455 S
C979   N1285   1.432   1_455 S
C980   C1087   1.366   .     S
C980   N1178   1.430   .     S
C981   H1017   1.084   .     S
C981   C992    1.399   .     A
C981   C983    1.390   .     A
C982   H1028   1.084   .     S
C982   C993    1.399   .     A
C982   C985    1.390   .     A
C983   C986    1.409   .     A
C983   C997    1.511   .     S
C984   O1076   1.299   .     A
C984   O1074   1.304   .     A
C984   C987    1.457   .     S
C985   C987    1.409   .     A
C985   C998    1.509   .     S
C986   C988    1.417   .     A
C987   C989    1.417   .     A
C988   C999    1.516   .     S
C988   C990    1.412   .     A
C989   C1000   1.515   .     S
C989   C991    1.413   .     A
C990   N1071   1.429   .     S
C990   C992    1.414   .     A
C991   C993    1.413   .     A
C991   N1072   1.429   .     S
C993   C668    1.476   1_565 S
C994   H1063   1.111   .     S
C994   N1069   1.449   .     S
C994   H1065   1.110   .     S
C994   H1172   1.106   .     S
C995   C1010   1.426   .     A
C995   C1003   1.518   .     S
C996   N1070   1.450   .     S
C996   H1019   1.110   .     S
C996   H1018   1.112   .     S
C996   H1236   1.111   1_455 S
C997   H1023   1.111   .     S
C997   H1022   1.110   .     S
C997   H1021   1.110   .     S
C998   H1026   1.111   .     S
C998   H1024   1.109   .     S
C998   H1025   1.110   .     S
C999   H1027   1.110   .     S
C999   H1029   1.110   .     S
C999   H1030   1.106   .     S
C1000  H1033   1.110   .     S
C1000  H1032   1.106   .     S
C1000  H1031   1.109   .     S
C1001  N1071   1.445   .     S
C1001  H1037   1.111   .     S
C1002  N1072   1.446   .     S
C1002  H1042   1.111   .     S
C1002  H716    1.111   1_565 S
C1002  H717    1.110   1_565 S
C1003  H1045   1.110   .     S
C1003  H1043   1.109   .     S
C1003  H1044   1.110   .     S
C1004  H1047   1.110   .     S
C1004  H1046   1.109   .     S
C1004  C1006   1.518   .     S
C1004  H1048   1.110   .     S
C1005  H1051   1.111   .     S
C1005  H1052   1.110   .     S
C1005  C1010   1.506   .     S
C1005  H1049   1.091   .     S
C1006  C1011   1.426   .     A
C1007  H1053   1.093   .     S
C1007  H1054   1.110   .     S
C1007  H1055   1.111   .     S
C1007  C1011   1.512   .     S
C1008  C1012   1.501   .     S
C1008  H1058   1.109   .     S
C1008  H1057   1.111   .     S
C1008  H1056   1.094   .     S
C1009  H1060   1.109   .     S
C1009  H1062   1.111   .     S
C1009  H1059   1.099   .     S
C1009  C1013   1.507   .     S
C1010  N1067   1.388   .     A
C1011  N1068   1.387   .     A
C1012  N1067   1.382   .     A
C1012  C1014   1.409   .     A
C1013  N1068   1.382   .     A
C1014  H1039   1.074   .     S
Cu1015 O1077   1.978   .     S
Cu1015 O1076   1.952   .     S
Cu1015 Cu1016  2.714   .     S
Cu1015 O1073   1.951   .     S
Cu1015 N1068   2.039   .     S
Cu1015 O1080   1.980   .     S
Cu1016 O1075   1.952   .     S
Cu1016 O1079   1.980   .     S
Cu1016 O1074   1.951   .     S
Cu1016 O1078   1.978   .     S
Cu1016 N1067   2.039   .     S
H1020  C1104   1.111   .     S
H1034  N1071   1.030   .     S
H1035  C677    1.110   1_565 S
H1036  C677    1.110   1_565 S
H1038  N1072   1.030   .     S
H1061  N1285   1.031   1_455 S
H1064  C1210   1.106   1_455 S
H1066  N1178   1.032   .     S
N1069  C1087   1.432   .     S
N1069  H1169   1.031   .     S
N1070  H1282   1.032   1_455 S
N1070  C1196   1.430   1_455 S
C1081  O1183   1.303   .     A
C1081  O1181   1.299   .     A
C1081  C1094   1.454   .     S
C1082  C1121   1.409   .     A
C1082  H1158   1.074   .     S
C1082  C1084   1.403   .     A
C1083  C1122   1.402   .     A
C1083  C1103   1.420   .     A
C1084  C1114   1.421   .     A
C1084  C435    1.548   1_556 S
C1085  O1185   1.296   .     A
C1085  C1087   1.447   .     S
C1085  O1187   1.304   .     A
C1086  O1188   1.304   .     A
C1086  C1088   1.444   .     S
C1086  O1186   1.294   .     A
C1088  C1195   1.366   .     S
C1088  N1286   1.430   .     S
C1089  H1125   1.084   .     S
C1089  C1100   1.399   .     A
C1089  C1091   1.390   .     A
C1090  H1136   1.084   .     S
C1090  C1101   1.399   .     A
C1090  C1093   1.390   .     A
C1091  C1094   1.409   .     A
C1091  C1105   1.511   .     S
C1092  O1184   1.299   .     A
C1092  O1182   1.304   .     A
C1092  C1095   1.457   .     S
C1093  C1095   1.409   .     A
C1093  C1106   1.509   .     S
C1094  C1096   1.417   .     A
C1095  C1097   1.417   .     A
C1096  C1107   1.516   .     S
C1096  C1098   1.412   .     A
C1097  C1108   1.515   .     S
C1097  C1099   1.413   .     A
C1098  N1179   1.429   .     S
C1098  C1100   1.414   .     A
C1099  C1101   1.413   .     A
C1099  N1180   1.429   .     S
C1101  C776    1.476   1_565 S
C1102  H1171   1.111   .     S
C1102  N1177   1.449   .     S
C1102  H1173   1.110   .     S
C1102  H1280   1.106   .     S
C1103  C1118   1.426   .     A
C1103  C1111   1.518   .     S
C1104  N1178   1.450   .     S
C1104  H1127   1.110   .     S
C1104  H1126   1.112   .     S
C1105  H1131   1.111   .     S
C1105  H1130   1.110   .     S
C1105  H1129   1.110   .     S
C1106  H1134   1.111   .     S
C1106  H1132   1.109   .     S
C1106  H1133   1.110   .     S
C1107  H1135   1.110   .     S
C1107  H1137   1.110   .     S
C1107  H1138   1.106   .     S
C1108  H1141   1.110   .     S
C1108  H1140   1.106   .     S
C1108  H1139   1.109   .     S
C1109  N1179   1.445   .     S
C1109  H1145   1.111   .     S
C1110  N1180   1.446   .     S
C1110  H1150   1.111   .     S
C1110  H824    1.111   1_565 S
C1110  H825    1.110   1_565 S
C1111  H1153   1.110   .     S
C1111  H1151   1.109   .     S
C1111  H1152   1.110   .     S
C1112  H1155   1.110   .     S
C1112  H1154   1.109   .     S
C1112  C1114   1.518   .     S
C1112  H1156   1.110   .     S
C1113  H1159   1.111   .     S
C1113  H1160   1.110   .     S
C1113  C1118   1.506   .     S
C1113  H1157   1.091   .     S
C1114  C1119   1.426   .     A
C1115  H1161   1.093   .     S
C1115  H1162   1.110   .     S
C1115  H1163   1.111   .     S
C1115  C1119   1.512   .     S
C1116  C1120   1.501   .     S
C1116  H1166   1.109   .     S
C1116  H1165   1.111   .     S
C1116  H1164   1.094   .     S
C1117  H1168   1.109   .     S
C1117  H1170   1.111   .     S
C1117  H1167   1.099   .     S
C1117  C1121   1.507   .     S
C1118  N1175   1.388   .     A
C1119  N1176   1.387   .     A
C1120  N1175   1.382   .     A
C1120  C1122   1.409   .     A
C1121  N1176   1.382   .     A
C1122  H1147   1.074   .     S
Cu1123 O1185   1.978   .     S
Cu1123 O1184   1.952   .     S
Cu1123 Cu1124  2.714   .     S
Cu1123 O1181   1.951   .     S
Cu1123 N1176   2.039   .     S
Cu1123 O1188   1.980   .     S
Cu1124 O1183   1.952   .     S
Cu1124 O1187   1.980   .     S
Cu1124 O1182   1.951   .     S
Cu1124 O1186   1.978   .     S
Cu1124 N1175   2.039   .     S
H1128  C1212   1.111   .     S
H1142  N1179   1.030   .     S
H1143  C785    1.110   1_565 S
H1144  C785    1.110   1_565 S
H1146  N1180   1.030   .     S
H1174  N1286   1.032   .     S
N1177  C1195   1.432   .     S
N1177  H1277   1.031   .     S
C1189  O1291   1.303   .     A
C1189  O1289   1.299   .     A
C1189  C1202   1.454   .     S
C1190  C1229   1.409   .     A
C1190  H1266   1.074   .     S
C1190  C1192   1.403   .     A
C1191  C1230   1.402   .     A
C1191  C1211   1.420   .     A
C1192  C1222   1.421   .     A
C1192  C543    1.548   1_556 S
C1193  O1293   1.296   .     A
C1193  C1195   1.447   .     S
C1193  O1295   1.304   .     A
C1194  O1296   1.304   .     A
C1194  C1196   1.444   .     S
C1194  O1294   1.294   .     A
C1196  C979    1.366   1_655 S
C1196  N1070   1.430   1_655 S
C1197  H1233   1.084   .     S
C1197  C1208   1.399   .     A
C1197  C1199   1.390   .     A
C1198  H1244   1.084   .     S
C1198  C1209   1.399   .     A
C1198  C1201   1.390   .     A
C1199  C1202   1.409   .     A
C1199  C1213   1.511   .     S
C1200  O1292   1.299   .     A
C1200  O1290   1.304   .     A
C1200  C1203   1.457   .     S
C1201  C1203   1.409   .     A
C1201  C1214   1.509   .     S
C1202  C1204   1.417   .     A
C1203  C1205   1.417   .     A
C1204  C1215   1.516   .     S
C1204  C1206   1.412   .     A
C1205  C1216   1.515   .     S
C1205  C1207   1.413   .     A
C1206  N1287   1.429   .     S
C1206  C1208   1.414   .     A
C1207  C1209   1.413   .     A
C1207  N1288   1.429   .     S
C1209  C884    1.476   1_565 S
C1210  H1279   1.111   .     S
C1210  N1285   1.449   .     S
C1210  H1281   1.110   .     S
C1210  H1064   1.106   1_655 S
C1211  C1226   1.426   .     A
C1211  C1219   1.518   .     S
C1212  N1286   1.450   .     S
C1212  H1235   1.110   .     S
C1212  H1234   1.112   .     S
C1213  H1239   1.111   .     S
C1213  H1238   1.110   .     S
C1213  H1237   1.110   .     S
C1214  H1242   1.111   .     S
C1214  H1240   1.109   .     S
C1214  H1241   1.110   .     S
C1215  H1243   1.110   .     S
C1215  H1245   1.110   .     S
C1215  H1246   1.106   .     S
C1216  H1249   1.110   .     S
C1216  H1248   1.106   .     S
C1216  H1247   1.109   .     S
C1217  N1287   1.445   .     S
C1217  H1253   1.111   .     S
C1218  N1288   1.446   .     S
C1218  H1258   1.111   .     S
C1218  H932    1.111   1_565 S
C1218  H933    1.110   1_565 S
C1219  H1261   1.110   .     S
C1219  H1259   1.109   .     S
C1219  H1260   1.110   .     S
C1220  H1263   1.110   .     S
C1220  H1262   1.109   .     S
C1220  C1222   1.518   .     S
C1220  H1264   1.110   .     S
C1221  H1267   1.111   .     S
C1221  H1268   1.110   .     S
C1221  C1226   1.506   .     S
C1221  H1265   1.091   .     S
C1222  C1227   1.426   .     A
C1223  H1269   1.093   .     S
C1223  H1270   1.110   .     S
C1223  H1271   1.111   .     S
C1223  C1227   1.512   .     S
C1224  C1228   1.501   .     S
C1224  H1274   1.109   .     S
C1224  H1273   1.111   .     S
C1224  H1272   1.094   .     S
C1225  H1276   1.109   .     S
C1225  H1278   1.111   .     S
C1225  H1275   1.099   .     S
C1225  C1229   1.507   .     S
C1226  N1283   1.388   .     A
C1227  N1284   1.387   .     A
C1228  N1283   1.382   .     A
C1228  C1230   1.409   .     A
C1229  N1284   1.382   .     A
C1230  H1255   1.074   .     S
Cu1231 O1293   1.978   .     S
Cu1231 O1292   1.952   .     S
Cu1231 Cu1232  2.714   .     S
Cu1231 O1289   1.951   .     S
Cu1231 N1284   2.039   .     S
Cu1231 O1296   1.980   .     S
Cu1232 O1291   1.952   .     S
Cu1232 O1295   1.980   .     S
Cu1232 O1290   1.951   .     S
Cu1232 O1294   1.978   .     S
Cu1232 N1283   2.039   .     S
H1236  C996    1.111   1_655 S
H1250  N1287   1.030   .     S
H1251  C893    1.110   1_565 S
H1252  C893    1.110   1_565 S
H1254  N1288   1.030   .     S
H1282  N1070   1.032   1_655 S
N1285  C979    1.432   1_655 S
N1285  H1061   1.031   1_655 S
