data_str_m2_o1_o10_pcu_sym.47
_audit_creation_date              2020-01-03
_audit_creation_method            'Materials Studio'
_symmetry_space_group_name_H-M    'P1'
_symmetry_Int_Tables_number       1
_symmetry_cell_setting            triclinic
loop_
_symmetry_equiv_pos_as_xyz
  x,y,z
_cell_length_a                    26.1860
_cell_length_b                    32.4771
_cell_length_c                    28.6934
_cell_angle_alpha                 90.0876
_cell_angle_beta                  98.4375
_cell_angle_gamma                 90.7318
loop_
_atom_site_label
_atom_site_type_symbol
_atom_site_fract_x
_atom_site_fract_y
_atom_site_fract_z
_atom_site_U_iso_or_equiv
_atom_site_adp_type
_atom_site_occupancy
C1     C     0.16573   0.08745   0.16659   0.00000  Uiso   1.00
C2     C     0.14373   0.02054   0.20138   0.00000  Uiso   1.00
C3     C     0.16801   0.29053   0.16655   0.00000  Uiso   1.00
C4     C     0.16532   0.04280   0.16679   0.00000  Uiso   1.00
C5     C     0.13171   0.14310   0.01989   0.00000  Uiso   1.00
C6     C     0.20251   0.18953   0.31444   0.00000  Uiso   1.00
C7     C     0.13153   0.14355   0.30358   0.00000  Uiso   1.00
C8     C     0.20145   0.18984   0.03010   0.00000  Uiso   1.00
C9     C     0.16759   0.24589   0.16674   0.00000  Uiso   1.00
C10    C     0.06791   0.16663   0.15450   0.00000  Uiso   1.00
C11    C     0.26542   0.16670   0.17884   0.00000  Uiso   1.00
C12    C     0.01248   0.16665   0.14791   0.00000  Uiso   1.00
C13    C     0.32085   0.16669   0.18543   0.00000  Uiso   1.00
C14    C     0.18781   0.02219   0.13226   0.00000  Uiso   1.00
C15    C     0.14552   0.31114   0.20108   0.00000  Uiso   1.00
C16    C     0.18962   0.31280   0.13197   0.00000  Uiso   1.00
Cu17   Cu    0.16667   0.16667   0.21355   0.00000  Uiso   1.00
Cu18   Cu    0.16667   0.16666   0.11978   0.00000  Uiso   1.00
H19    H     0.32550   0.16666   0.11203   0.00000  Uiso   1.00
H20    H     0.13736   0.03274   0.26937   0.00000  Uiso   1.00
H21    H     0.05833   0.12602   0.02427   0.00000  Uiso   1.00
H22    H     0.10096   0.08708   0.02928   0.00000  Uiso   1.00
H23    H     0.27182   0.19209   0.29066   0.00000  Uiso   1.00
H24    H     0.23056   0.23147   0.27083   0.00000  Uiso   1.00
H25    H     0.00783   0.16668   0.22131   0.00000  Uiso   1.00
H26    H     0.20501   0.03925   0.10592   0.00000  Uiso   1.00
H27    H     0.12833   0.29409   0.22742   0.00000  Uiso   1.00
H28    H     0.10357   0.12493   0.28096   0.00000  Uiso   1.00
H29    H     0.22960   0.20810   0.05298   0.00000  Uiso   1.00
H30    H     0.19612   0.30062   0.06401   0.00000  Uiso   1.00
H31    H     0.25281   0.30306   0.10077   0.00000  Uiso   1.00
H32    H     0.08061   0.03026   0.23270   0.00000  Uiso   1.00
N33    N     0.16668   0.16668   0.28403   0.00000  Uiso   1.00
N34    N     0.16665   0.16666   0.04931   0.00000  Uiso   1.00
N35    N     0.21463   0.29231   0.09740   0.00000  Uiso   1.00
N36    N     0.11878   0.04102   0.23599   0.00000  Uiso   1.00
N37    N     0.09547   0.11748   0.03933   0.00000  Uiso   1.00
N38    N     0.24383   0.21234   0.29883   0.00000  Uiso   1.00
O39    O     0.16666   0.10655   0.20625   0.00000  Uiso   1.00
O40    O     0.16667   0.22678   0.12709   0.00000  Uiso   1.00
O41    O     0.16666   0.10654   0.12706   0.00000  Uiso   1.00
O42    O     0.16667   0.22679   0.20628   0.00000  Uiso   1.00
O43    O     0.09161   0.16667   0.19712   0.00000  Uiso   1.00
O44    O     0.24172   0.16666   0.13621   0.00000  Uiso   1.00
O45    O     0.09161   0.16666   0.11793   0.00000  Uiso   1.00
O46    O     0.24172   0.16667   0.21540   0.00000  Uiso   1.00
C47    C     0.49907   0.08745   0.16659   0.00000  Uiso   1.00
C48    C     0.47707   0.02054   0.20138   0.00000  Uiso   1.00
C49    C     0.50134   0.29053   0.16655   0.00000  Uiso   1.00
C50    C     0.49865   0.04280   0.16679   0.00000  Uiso   1.00
C51    C     0.46504   0.14310   0.01989   0.00000  Uiso   1.00
C52    C     0.53584   0.18953   0.31444   0.00000  Uiso   1.00
C53    C     0.46486   0.14355   0.30358   0.00000  Uiso   1.00
C54    C     0.53479   0.18984   0.03010   0.00000  Uiso   1.00
C55    C     0.50092   0.24589   0.16674   0.00000  Uiso   1.00
C56    C     0.40124   0.16663   0.15450   0.00000  Uiso   1.00
C57    C     0.59876   0.16670   0.17884   0.00000  Uiso   1.00
C58    C     0.34582   0.16665   0.14791   0.00000  Uiso   1.00
C59    C     0.65418   0.16669   0.18543   0.00000  Uiso   1.00
C60    C     0.52115   0.02219   0.13226   0.00000  Uiso   1.00
C61    C     0.47885   0.31114   0.20108   0.00000  Uiso   1.00
C62    C     0.52295   0.31280   0.13197   0.00000  Uiso   1.00
Cu63   Cu    0.50000   0.16667   0.21355   0.00000  Uiso   1.00
Cu64   Cu    0.50000   0.16666   0.11978   0.00000  Uiso   1.00
H65    H     0.65883   0.16666   0.11203   0.00000  Uiso   1.00
H66    H     0.47070   0.03274   0.26937   0.00000  Uiso   1.00
H67    H     0.39167   0.12602   0.02427   0.00000  Uiso   1.00
H68    H     0.43429   0.08708   0.02928   0.00000  Uiso   1.00
H69    H     0.60516   0.19209   0.29066   0.00000  Uiso   1.00
H70    H     0.56389   0.23147   0.27083   0.00000  Uiso   1.00
H71    H     0.34116   0.16668   0.22131   0.00000  Uiso   1.00
H72    H     0.53834   0.03925   0.10592   0.00000  Uiso   1.00
H73    H     0.46166   0.29409   0.22742   0.00000  Uiso   1.00
H74    H     0.43690   0.12493   0.28096   0.00000  Uiso   1.00
H75    H     0.56293   0.20810   0.05298   0.00000  Uiso   1.00
H76    H     0.52946   0.30062   0.06401   0.00000  Uiso   1.00
H77    H     0.58615   0.30306   0.10077   0.00000  Uiso   1.00
H78    H     0.41394   0.03026   0.23270   0.00000  Uiso   1.00
N79    N     0.50001   0.16668   0.28403   0.00000  Uiso   1.00
N80    N     0.49999   0.16666   0.04931   0.00000  Uiso   1.00
N81    N     0.54796   0.29231   0.09740   0.00000  Uiso   1.00
N82    N     0.45211   0.04102   0.23599   0.00000  Uiso   1.00
N83    N     0.42880   0.11748   0.03933   0.00000  Uiso   1.00
N84    N     0.57716   0.21234   0.29883   0.00000  Uiso   1.00
O85    O     0.50000   0.10655   0.20625   0.00000  Uiso   1.00
O86    O     0.50000   0.22678   0.12709   0.00000  Uiso   1.00
O87    O     0.50000   0.10654   0.12706   0.00000  Uiso   1.00
O88    O     0.50000   0.22679   0.20628   0.00000  Uiso   1.00
O89    O     0.42495   0.16667   0.19712   0.00000  Uiso   1.00
O90    O     0.57505   0.16666   0.13621   0.00000  Uiso   1.00
O91    O     0.42494   0.16666   0.11793   0.00000  Uiso   1.00
O92    O     0.57506   0.16667   0.21540   0.00000  Uiso   1.00
C93    C     0.83240   0.08745   0.16659   0.00000  Uiso   1.00
C94    C     0.81040   0.02054   0.20138   0.00000  Uiso   1.00
C95    C     0.83468   0.29053   0.16655   0.00000  Uiso   1.00
C96    C     0.83199   0.04280   0.16679   0.00000  Uiso   1.00
C97    C     0.79838   0.14310   0.01989   0.00000  Uiso   1.00
C98    C     0.86917   0.18953   0.31444   0.00000  Uiso   1.00
C99    C     0.79820   0.14355   0.30358   0.00000  Uiso   1.00
C100   C     0.86812   0.18984   0.03010   0.00000  Uiso   1.00
C101   C     0.83426   0.24589   0.16674   0.00000  Uiso   1.00
C102   C     0.73458   0.16663   0.15450   0.00000  Uiso   1.00
C103   C     0.93209   0.16670   0.17884   0.00000  Uiso   1.00
C104   C     0.67915   0.16665   0.14791   0.00000  Uiso   1.00
C105   C     0.98752   0.16669   0.18543   0.00000  Uiso   1.00
C106   C     0.85448   0.02219   0.13226   0.00000  Uiso   1.00
C107   C     0.81219   0.31114   0.20108   0.00000  Uiso   1.00
C108   C     0.85628   0.31280   0.13197   0.00000  Uiso   1.00
Cu109  Cu    0.83333   0.16667   0.21355   0.00000  Uiso   1.00
Cu110  Cu    0.83333   0.16666   0.11978   0.00000  Uiso   1.00
H111   H     0.99217   0.16666   0.11203   0.00000  Uiso   1.00
H112   H     0.80403   0.03274   0.26937   0.00000  Uiso   1.00
H113   H     0.72500   0.12602   0.02427   0.00000  Uiso   1.00
H114   H     0.76762   0.08708   0.02928   0.00000  Uiso   1.00
H115   H     0.93849   0.19209   0.29066   0.00000  Uiso   1.00
H116   H     0.89722   0.23147   0.27083   0.00000  Uiso   1.00
H117   H     0.67449   0.16668   0.22131   0.00000  Uiso   1.00
H118   H     0.87167   0.03925   0.10592   0.00000  Uiso   1.00
H119   H     0.79500   0.29409   0.22742   0.00000  Uiso   1.00
H120   H     0.77023   0.12493   0.28096   0.00000  Uiso   1.00
H121   H     0.89627   0.20810   0.05298   0.00000  Uiso   1.00
H122   H     0.86279   0.30062   0.06401   0.00000  Uiso   1.00
H123   H     0.91948   0.30306   0.10077   0.00000  Uiso   1.00
H124   H     0.74728   0.03026   0.23270   0.00000  Uiso   1.00
N125   N     0.83335   0.16668   0.28403   0.00000  Uiso   1.00
N126   N     0.83332   0.16666   0.04931   0.00000  Uiso   1.00
N127   N     0.88130   0.29231   0.09740   0.00000  Uiso   1.00
N128   N     0.78545   0.04102   0.23599   0.00000  Uiso   1.00
N129   N     0.76213   0.11748   0.03933   0.00000  Uiso   1.00
N130   N     0.91049   0.21234   0.29883   0.00000  Uiso   1.00
O131   O     0.83333   0.10655   0.20625   0.00000  Uiso   1.00
O132   O     0.83334   0.22678   0.12709   0.00000  Uiso   1.00
O133   O     0.83333   0.10654   0.12706   0.00000  Uiso   1.00
O134   O     0.83334   0.22679   0.20628   0.00000  Uiso   1.00
O135   O     0.75828   0.16667   0.19712   0.00000  Uiso   1.00
O136   O     0.90839   0.16666   0.13621   0.00000  Uiso   1.00
O137   O     0.75828   0.16666   0.11793   0.00000  Uiso   1.00
O138   O     0.90839   0.16667   0.21540   0.00000  Uiso   1.00
C139   C     0.16573   0.42078   0.16659   0.00000  Uiso   1.00
C140   C     0.14373   0.35387   0.20138   0.00000  Uiso   1.00
C141   C     0.16801   0.62386   0.16655   0.00000  Uiso   1.00
C142   C     0.16532   0.37614   0.16679   0.00000  Uiso   1.00
C143   C     0.13171   0.47643   0.01989   0.00000  Uiso   1.00
C144   C     0.20251   0.52286   0.31444   0.00000  Uiso   1.00
C145   C     0.13153   0.47688   0.30358   0.00000  Uiso   1.00
C146   C     0.20145   0.52318   0.03010   0.00000  Uiso   1.00
C147   C     0.16759   0.57922   0.16674   0.00000  Uiso   1.00
C148   C     0.06791   0.49997   0.15450   0.00000  Uiso   1.00
C149   C     0.26542   0.50004   0.17884   0.00000  Uiso   1.00
C150   C     0.01248   0.49999   0.14791   0.00000  Uiso   1.00
C151   C     0.32085   0.50002   0.18543   0.00000  Uiso   1.00
C152   C     0.18781   0.35552   0.13226   0.00000  Uiso   1.00
C153   C     0.14552   0.64448   0.20108   0.00000  Uiso   1.00
C154   C     0.18962   0.64613   0.13197   0.00000  Uiso   1.00
Cu155  Cu    0.16667   0.50001   0.21355   0.00000  Uiso   1.00
Cu156  Cu    0.16667   0.49999   0.11978   0.00000  Uiso   1.00
H157   H     0.32550   0.49999   0.11203   0.00000  Uiso   1.00
H158   H     0.13736   0.36608   0.26937   0.00000  Uiso   1.00
H159   H     0.05833   0.45935   0.02427   0.00000  Uiso   1.00
H160   H     0.10096   0.42041   0.02928   0.00000  Uiso   1.00
H161   H     0.27182   0.52543   0.29066   0.00000  Uiso   1.00
H162   H     0.23056   0.56481   0.27083   0.00000  Uiso   1.00
H163   H     0.00783   0.50002   0.22131   0.00000  Uiso   1.00
H164   H     0.20501   0.37258   0.10592   0.00000  Uiso   1.00
H165   H     0.12833   0.62742   0.22742   0.00000  Uiso   1.00
H166   H     0.10357   0.45826   0.28096   0.00000  Uiso   1.00
H167   H     0.22960   0.54144   0.05298   0.00000  Uiso   1.00
H168   H     0.19612   0.63395   0.06401   0.00000  Uiso   1.00
H169   H     0.25281   0.63639   0.10077   0.00000  Uiso   1.00
H170   H     0.08061   0.36360   0.23270   0.00000  Uiso   1.00
N171   N     0.16668   0.50001   0.28403   0.00000  Uiso   1.00
N172   N     0.16665   0.49999   0.04931   0.00000  Uiso   1.00
N173   N     0.21463   0.62564   0.09740   0.00000  Uiso   1.00
N174   N     0.11878   0.37436   0.23599   0.00000  Uiso   1.00
N175   N     0.09547   0.45081   0.03933   0.00000  Uiso   1.00
N176   N     0.24383   0.54567   0.29883   0.00000  Uiso   1.00
O177   O     0.16666   0.43989   0.20625   0.00000  Uiso   1.00
O178   O     0.16667   0.56011   0.12709   0.00000  Uiso   1.00
O179   O     0.16666   0.43988   0.12706   0.00000  Uiso   1.00
O180   O     0.16667   0.56012   0.20628   0.00000  Uiso   1.00
O181   O     0.09161   0.50000   0.19712   0.00000  Uiso   1.00
O182   O     0.24172   0.50000   0.13621   0.00000  Uiso   1.00
O183   O     0.09161   0.49999   0.11793   0.00000  Uiso   1.00
O184   O     0.24172   0.50001   0.21540   0.00000  Uiso   1.00
C185   C     0.49907   0.42078   0.16659   0.00000  Uiso   1.00
C186   C     0.47707   0.35387   0.20138   0.00000  Uiso   1.00
C187   C     0.50134   0.62386   0.16655   0.00000  Uiso   1.00
C188   C     0.49865   0.37614   0.16679   0.00000  Uiso   1.00
C189   C     0.46504   0.47643   0.01989   0.00000  Uiso   1.00
C190   C     0.53584   0.52286   0.31444   0.00000  Uiso   1.00
C191   C     0.46486   0.47688   0.30358   0.00000  Uiso   1.00
C192   C     0.53479   0.52318   0.03010   0.00000  Uiso   1.00
C193   C     0.50092   0.57922   0.16674   0.00000  Uiso   1.00
C194   C     0.40124   0.49997   0.15450   0.00000  Uiso   1.00
C195   C     0.59876   0.50004   0.17884   0.00000  Uiso   1.00
C196   C     0.34582   0.49999   0.14791   0.00000  Uiso   1.00
C197   C     0.65418   0.50002   0.18543   0.00000  Uiso   1.00
C198   C     0.52115   0.35552   0.13226   0.00000  Uiso   1.00
C199   C     0.47885   0.64448   0.20108   0.00000  Uiso   1.00
C200   C     0.52295   0.64613   0.13197   0.00000  Uiso   1.00
Cu201  Cu    0.50000   0.50001   0.21355   0.00000  Uiso   1.00
Cu202  Cu    0.50000   0.49999   0.11978   0.00000  Uiso   1.00
H203   H     0.65883   0.49999   0.11203   0.00000  Uiso   1.00
H204   H     0.47070   0.36608   0.26937   0.00000  Uiso   1.00
H205   H     0.39167   0.45935   0.02427   0.00000  Uiso   1.00
H206   H     0.43429   0.42041   0.02928   0.00000  Uiso   1.00
H207   H     0.60516   0.52543   0.29066   0.00000  Uiso   1.00
H208   H     0.56389   0.56481   0.27083   0.00000  Uiso   1.00
H209   H     0.34116   0.50002   0.22131   0.00000  Uiso   1.00
H210   H     0.53834   0.37258   0.10592   0.00000  Uiso   1.00
H211   H     0.46166   0.62742   0.22742   0.00000  Uiso   1.00
H212   H     0.43690   0.45826   0.28096   0.00000  Uiso   1.00
H213   H     0.56293   0.54144   0.05298   0.00000  Uiso   1.00
H214   H     0.52946   0.63395   0.06401   0.00000  Uiso   1.00
H215   H     0.58615   0.63639   0.10077   0.00000  Uiso   1.00
H216   H     0.41394   0.36360   0.23270   0.00000  Uiso   1.00
N217   N     0.50001   0.50001   0.28403   0.00000  Uiso   1.00
N218   N     0.49999   0.49999   0.04931   0.00000  Uiso   1.00
N219   N     0.54796   0.62564   0.09740   0.00000  Uiso   1.00
N220   N     0.45211   0.37436   0.23599   0.00000  Uiso   1.00
N221   N     0.42880   0.45081   0.03933   0.00000  Uiso   1.00
N222   N     0.57716   0.54567   0.29883   0.00000  Uiso   1.00
O223   O     0.50000   0.43989   0.20625   0.00000  Uiso   1.00
O224   O     0.50000   0.56011   0.12709   0.00000  Uiso   1.00
O225   O     0.50000   0.43988   0.12706   0.00000  Uiso   1.00
O226   O     0.50000   0.56012   0.20628   0.00000  Uiso   1.00
O227   O     0.42495   0.50000   0.19712   0.00000  Uiso   1.00
O228   O     0.57505   0.50000   0.13621   0.00000  Uiso   1.00
O229   O     0.42494   0.49999   0.11793   0.00000  Uiso   1.00
O230   O     0.57506   0.50001   0.21540   0.00000  Uiso   1.00
C231   C     0.83240   0.42078   0.16659   0.00000  Uiso   1.00
C232   C     0.81040   0.35387   0.20138   0.00000  Uiso   1.00
C233   C     0.83468   0.62386   0.16655   0.00000  Uiso   1.00
C234   C     0.83199   0.37614   0.16679   0.00000  Uiso   1.00
C235   C     0.79838   0.47643   0.01989   0.00000  Uiso   1.00
C236   C     0.86917   0.52286   0.31444   0.00000  Uiso   1.00
C237   C     0.79820   0.47688   0.30358   0.00000  Uiso   1.00
C238   C     0.86812   0.52318   0.03010   0.00000  Uiso   1.00
C239   C     0.83426   0.57922   0.16674   0.00000  Uiso   1.00
C240   C     0.73458   0.49997   0.15450   0.00000  Uiso   1.00
C241   C     0.93209   0.50004   0.17884   0.00000  Uiso   1.00
C242   C     0.67915   0.49999   0.14791   0.00000  Uiso   1.00
C243   C     0.98752   0.50002   0.18543   0.00000  Uiso   1.00
C244   C     0.85448   0.35552   0.13226   0.00000  Uiso   1.00
C245   C     0.81219   0.64448   0.20108   0.00000  Uiso   1.00
C246   C     0.85628   0.64613   0.13197   0.00000  Uiso   1.00
Cu247  Cu    0.83333   0.50001   0.21355   0.00000  Uiso   1.00
Cu248  Cu    0.83333   0.49999   0.11978   0.00000  Uiso   1.00
H249   H     0.99217   0.49999   0.11203   0.00000  Uiso   1.00
H250   H     0.80403   0.36608   0.26937   0.00000  Uiso   1.00
H251   H     0.72500   0.45935   0.02427   0.00000  Uiso   1.00
H252   H     0.76762   0.42041   0.02928   0.00000  Uiso   1.00
H253   H     0.93849   0.52543   0.29066   0.00000  Uiso   1.00
H254   H     0.89722   0.56481   0.27083   0.00000  Uiso   1.00
H255   H     0.67449   0.50002   0.22131   0.00000  Uiso   1.00
H256   H     0.87167   0.37258   0.10592   0.00000  Uiso   1.00
H257   H     0.79500   0.62742   0.22742   0.00000  Uiso   1.00
H258   H     0.77023   0.45826   0.28096   0.00000  Uiso   1.00
H259   H     0.89627   0.54144   0.05298   0.00000  Uiso   1.00
H260   H     0.86279   0.63395   0.06401   0.00000  Uiso   1.00
H261   H     0.91948   0.63639   0.10077   0.00000  Uiso   1.00
H262   H     0.74728   0.36360   0.23270   0.00000  Uiso   1.00
N263   N     0.83335   0.50001   0.28403   0.00000  Uiso   1.00
N264   N     0.83332   0.49999   0.04931   0.00000  Uiso   1.00
N265   N     0.88130   0.62564   0.09740   0.00000  Uiso   1.00
N266   N     0.78545   0.37436   0.23599   0.00000  Uiso   1.00
N267   N     0.76213   0.45081   0.03933   0.00000  Uiso   1.00
N268   N     0.91049   0.54567   0.29883   0.00000  Uiso   1.00
O269   O     0.83333   0.43989   0.20625   0.00000  Uiso   1.00
O270   O     0.83334   0.56011   0.12709   0.00000  Uiso   1.00
O271   O     0.83333   0.43988   0.12706   0.00000  Uiso   1.00
O272   O     0.83334   0.56012   0.20628   0.00000  Uiso   1.00
O273   O     0.75828   0.50000   0.19712   0.00000  Uiso   1.00
O274   O     0.90839   0.50000   0.13621   0.00000  Uiso   1.00
O275   O     0.75828   0.49999   0.11793   0.00000  Uiso   1.00
O276   O     0.90839   0.50001   0.21540   0.00000  Uiso   1.00
C277   C     0.16573   0.75411   0.16659   0.00000  Uiso   1.00
C278   C     0.14373   0.68720   0.20138   0.00000  Uiso   1.00
C279   C     0.16801   0.95720   0.16655   0.00000  Uiso   1.00
C280   C     0.16532   0.70947   0.16679   0.00000  Uiso   1.00
C281   C     0.13171   0.80976   0.01989   0.00000  Uiso   1.00
C282   C     0.20251   0.85620   0.31444   0.00000  Uiso   1.00
C283   C     0.13153   0.81022   0.30358   0.00000  Uiso   1.00
C284   C     0.20145   0.85651   0.03010   0.00000  Uiso   1.00
C285   C     0.16759   0.91255   0.16674   0.00000  Uiso   1.00
C286   C     0.06791   0.83330   0.15450   0.00000  Uiso   1.00
C287   C     0.26542   0.83337   0.17884   0.00000  Uiso   1.00
C288   C     0.01248   0.83332   0.14791   0.00000  Uiso   1.00
C289   C     0.32085   0.83335   0.18543   0.00000  Uiso   1.00
C290   C     0.18781   0.68886   0.13226   0.00000  Uiso   1.00
C291   C     0.14552   0.97781   0.20108   0.00000  Uiso   1.00
C292   C     0.18962   0.97947   0.13197   0.00000  Uiso   1.00
Cu293  Cu    0.16667   0.83334   0.21355   0.00000  Uiso   1.00
Cu294  Cu    0.16667   0.83333   0.11978   0.00000  Uiso   1.00
H295   H     0.32550   0.83332   0.11203   0.00000  Uiso   1.00
H296   H     0.13736   0.69941   0.26937   0.00000  Uiso   1.00
H297   H     0.05833   0.79268   0.02427   0.00000  Uiso   1.00
H298   H     0.10096   0.75375   0.02928   0.00000  Uiso   1.00
H299   H     0.27182   0.85876   0.29066   0.00000  Uiso   1.00
H300   H     0.23056   0.89814   0.27083   0.00000  Uiso   1.00
H301   H     0.00783   0.83335   0.22131   0.00000  Uiso   1.00
H302   H     0.20501   0.70592   0.10592   0.00000  Uiso   1.00
H303   H     0.12833   0.96075   0.22742   0.00000  Uiso   1.00
H304   H     0.10357   0.79159   0.28096   0.00000  Uiso   1.00
H305   H     0.22960   0.87477   0.05298   0.00000  Uiso   1.00
H306   H     0.19612   0.96728   0.06401   0.00000  Uiso   1.00
H307   H     0.25281   0.96972   0.10077   0.00000  Uiso   1.00
H308   H     0.08061   0.69693   0.23270   0.00000  Uiso   1.00
N309   N     0.16668   0.83334   0.28403   0.00000  Uiso   1.00
N310   N     0.16665   0.83332   0.04931   0.00000  Uiso   1.00
N311   N     0.21463   0.95898   0.09740   0.00000  Uiso   1.00
N312   N     0.11878   0.70769   0.23599   0.00000  Uiso   1.00
N313   N     0.09547   0.78414   0.03933   0.00000  Uiso   1.00
N314   N     0.24383   0.87901   0.29883   0.00000  Uiso   1.00
O315   O     0.16666   0.77322   0.20625   0.00000  Uiso   1.00
O316   O     0.16667   0.89345   0.12709   0.00000  Uiso   1.00
O317   O     0.16666   0.77321   0.12706   0.00000  Uiso   1.00
O318   O     0.16667   0.89346   0.20628   0.00000  Uiso   1.00
O319   O     0.09161   0.83334   0.19712   0.00000  Uiso   1.00
O320   O     0.24172   0.83333   0.13621   0.00000  Uiso   1.00
O321   O     0.09161   0.83333   0.11793   0.00000  Uiso   1.00
O322   O     0.24172   0.83334   0.21540   0.00000  Uiso   1.00
C323   C     0.49907   0.75411   0.16659   0.00000  Uiso   1.00
C324   C     0.47707   0.68720   0.20138   0.00000  Uiso   1.00
C325   C     0.50134   0.95720   0.16655   0.00000  Uiso   1.00
C326   C     0.49865   0.70947   0.16679   0.00000  Uiso   1.00
C327   C     0.46504   0.80976   0.01989   0.00000  Uiso   1.00
C328   C     0.53584   0.85620   0.31444   0.00000  Uiso   1.00
C329   C     0.46486   0.81022   0.30358   0.00000  Uiso   1.00
C330   C     0.53479   0.85651   0.03010   0.00000  Uiso   1.00
C331   C     0.50092   0.91255   0.16674   0.00000  Uiso   1.00
C332   C     0.40124   0.83330   0.15450   0.00000  Uiso   1.00
C333   C     0.59876   0.83337   0.17884   0.00000  Uiso   1.00
C334   C     0.34582   0.83332   0.14791   0.00000  Uiso   1.00
C335   C     0.65418   0.83335   0.18543   0.00000  Uiso   1.00
C336   C     0.52115   0.68886   0.13226   0.00000  Uiso   1.00
C337   C     0.47885   0.97781   0.20108   0.00000  Uiso   1.00
C338   C     0.52295   0.97947   0.13197   0.00000  Uiso   1.00
Cu339  Cu    0.50000   0.83334   0.21355   0.00000  Uiso   1.00
Cu340  Cu    0.50000   0.83333   0.11978   0.00000  Uiso   1.00
H341   H     0.65883   0.83332   0.11203   0.00000  Uiso   1.00
H342   H     0.47070   0.69941   0.26937   0.00000  Uiso   1.00
H343   H     0.39167   0.79268   0.02427   0.00000  Uiso   1.00
H344   H     0.43429   0.75375   0.02928   0.00000  Uiso   1.00
H345   H     0.60516   0.85876   0.29066   0.00000  Uiso   1.00
H346   H     0.56389   0.89814   0.27083   0.00000  Uiso   1.00
H347   H     0.34116   0.83335   0.22131   0.00000  Uiso   1.00
H348   H     0.53834   0.70592   0.10592   0.00000  Uiso   1.00
H349   H     0.46166   0.96075   0.22742   0.00000  Uiso   1.00
H350   H     0.43690   0.79159   0.28096   0.00000  Uiso   1.00
H351   H     0.56293   0.87477   0.05298   0.00000  Uiso   1.00
H352   H     0.52946   0.96728   0.06401   0.00000  Uiso   1.00
H353   H     0.58615   0.96972   0.10077   0.00000  Uiso   1.00
H354   H     0.41394   0.69693   0.23270   0.00000  Uiso   1.00
N355   N     0.50001   0.83334   0.28403   0.00000  Uiso   1.00
N356   N     0.49999   0.83332   0.04931   0.00000  Uiso   1.00
N357   N     0.54796   0.95898   0.09740   0.00000  Uiso   1.00
N358   N     0.45211   0.70769   0.23599   0.00000  Uiso   1.00
N359   N     0.42880   0.78414   0.03933   0.00000  Uiso   1.00
N360   N     0.57716   0.87901   0.29883   0.00000  Uiso   1.00
O361   O     0.50000   0.77322   0.20625   0.00000  Uiso   1.00
O362   O     0.50000   0.89345   0.12709   0.00000  Uiso   1.00
O363   O     0.50000   0.77321   0.12706   0.00000  Uiso   1.00
O364   O     0.50000   0.89346   0.20628   0.00000  Uiso   1.00
O365   O     0.42495   0.83334   0.19712   0.00000  Uiso   1.00
O366   O     0.57505   0.83333   0.13621   0.00000  Uiso   1.00
O367   O     0.42494   0.83333   0.11793   0.00000  Uiso   1.00
O368   O     0.57506   0.83334   0.21540   0.00000  Uiso   1.00
C369   C     0.83240   0.75411   0.16659   0.00000  Uiso   1.00
C370   C     0.81040   0.68720   0.20138   0.00000  Uiso   1.00
C371   C     0.83468   0.95720   0.16655   0.00000  Uiso   1.00
C372   C     0.83199   0.70947   0.16679   0.00000  Uiso   1.00
C373   C     0.79838   0.80976   0.01989   0.00000  Uiso   1.00
C374   C     0.86917   0.85620   0.31444   0.00000  Uiso   1.00
C375   C     0.79820   0.81022   0.30358   0.00000  Uiso   1.00
C376   C     0.86812   0.85651   0.03010   0.00000  Uiso   1.00
C377   C     0.83426   0.91255   0.16674   0.00000  Uiso   1.00
C378   C     0.73458   0.83330   0.15450   0.00000  Uiso   1.00
C379   C     0.93209   0.83337   0.17884   0.00000  Uiso   1.00
C380   C     0.67915   0.83332   0.14791   0.00000  Uiso   1.00
C381   C     0.98752   0.83335   0.18543   0.00000  Uiso   1.00
C382   C     0.85448   0.68886   0.13226   0.00000  Uiso   1.00
C383   C     0.81219   0.97781   0.20108   0.00000  Uiso   1.00
C384   C     0.85628   0.97947   0.13197   0.00000  Uiso   1.00
Cu385  Cu    0.83333   0.83334   0.21355   0.00000  Uiso   1.00
Cu386  Cu    0.83333   0.83333   0.11978   0.00000  Uiso   1.00
H387   H     0.99217   0.83332   0.11203   0.00000  Uiso   1.00
H388   H     0.80403   0.69941   0.26937   0.00000  Uiso   1.00
H389   H     0.72500   0.79268   0.02427   0.00000  Uiso   1.00
H390   H     0.76762   0.75375   0.02928   0.00000  Uiso   1.00
H391   H     0.93849   0.85876   0.29066   0.00000  Uiso   1.00
H392   H     0.89722   0.89814   0.27083   0.00000  Uiso   1.00
H393   H     0.67449   0.83335   0.22131   0.00000  Uiso   1.00
H394   H     0.87167   0.70592   0.10592   0.00000  Uiso   1.00
H395   H     0.79500   0.96075   0.22742   0.00000  Uiso   1.00
H396   H     0.77023   0.79159   0.28096   0.00000  Uiso   1.00
H397   H     0.89627   0.87477   0.05298   0.00000  Uiso   1.00
H398   H     0.86279   0.96728   0.06401   0.00000  Uiso   1.00
H399   H     0.91948   0.96972   0.10077   0.00000  Uiso   1.00
H400   H     0.74728   0.69693   0.23270   0.00000  Uiso   1.00
N401   N     0.83335   0.83334   0.28403   0.00000  Uiso   1.00
N402   N     0.83332   0.83332   0.04931   0.00000  Uiso   1.00
N403   N     0.88130   0.95898   0.09740   0.00000  Uiso   1.00
N404   N     0.78545   0.70769   0.23599   0.00000  Uiso   1.00
N405   N     0.76213   0.78414   0.03933   0.00000  Uiso   1.00
N406   N     0.91049   0.87901   0.29883   0.00000  Uiso   1.00
O407   O     0.83333   0.77322   0.20625   0.00000  Uiso   1.00
O408   O     0.83334   0.89345   0.12709   0.00000  Uiso   1.00
O409   O     0.83333   0.77321   0.12706   0.00000  Uiso   1.00
O410   O     0.83334   0.89346   0.20628   0.00000  Uiso   1.00
O411   O     0.75828   0.83334   0.19712   0.00000  Uiso   1.00
O412   O     0.90839   0.83333   0.13621   0.00000  Uiso   1.00
O413   O     0.75828   0.83333   0.11793   0.00000  Uiso   1.00
O414   O     0.90839   0.83334   0.21540   0.00000  Uiso   1.00
C415   C     0.16573   0.08745   0.49993   0.00000  Uiso   1.00
C416   C     0.14373   0.02054   0.53471   0.00000  Uiso   1.00
C417   C     0.16801   0.29053   0.49988   0.00000  Uiso   1.00
C418   C     0.16532   0.04280   0.50012   0.00000  Uiso   1.00
C419   C     0.13171   0.14310   0.35322   0.00000  Uiso   1.00
C420   C     0.20251   0.18953   0.64778   0.00000  Uiso   1.00
C421   C     0.13153   0.14355   0.63691   0.00000  Uiso   1.00
C422   C     0.20145   0.18984   0.36343   0.00000  Uiso   1.00
C423   C     0.16759   0.24589   0.50007   0.00000  Uiso   1.00
C424   C     0.06791   0.16663   0.48783   0.00000  Uiso   1.00
C425   C     0.26542   0.16670   0.51217   0.00000  Uiso   1.00
C426   C     0.01248   0.16665   0.48124   0.00000  Uiso   1.00
C427   C     0.32085   0.16669   0.51876   0.00000  Uiso   1.00
C428   C     0.18781   0.02219   0.46559   0.00000  Uiso   1.00
C429   C     0.14552   0.31114   0.53441   0.00000  Uiso   1.00
C430   C     0.18962   0.31280   0.46531   0.00000  Uiso   1.00
Cu431  Cu    0.16667   0.16667   0.54689   0.00000  Uiso   1.00
Cu432  Cu    0.16667   0.16666   0.45311   0.00000  Uiso   1.00
H433   H     0.32550   0.16666   0.44536   0.00000  Uiso   1.00
H434   H     0.13736   0.03274   0.60270   0.00000  Uiso   1.00
H435   H     0.05833   0.12602   0.35760   0.00000  Uiso   1.00
H436   H     0.10096   0.08708   0.36262   0.00000  Uiso   1.00
H437   H     0.27182   0.19209   0.62399   0.00000  Uiso   1.00
H438   H     0.23056   0.23147   0.60416   0.00000  Uiso   1.00
H439   H     0.00783   0.16668   0.55464   0.00000  Uiso   1.00
H440   H     0.20501   0.03925   0.43926   0.00000  Uiso   1.00
H441   H     0.12833   0.29409   0.56075   0.00000  Uiso   1.00
H442   H     0.10357   0.12493   0.61430   0.00000  Uiso   1.00
H443   H     0.22960   0.20810   0.38631   0.00000  Uiso   1.00
H444   H     0.19612   0.30062   0.39735   0.00000  Uiso   1.00
H445   H     0.25281   0.30306   0.43410   0.00000  Uiso   1.00
H446   H     0.08061   0.03026   0.56603   0.00000  Uiso   1.00
N447   N     0.16668   0.16668   0.61736   0.00000  Uiso   1.00
N448   N     0.16665   0.16666   0.38264   0.00000  Uiso   1.00
N449   N     0.21463   0.29231   0.43074   0.00000  Uiso   1.00
N450   N     0.11878   0.04102   0.56933   0.00000  Uiso   1.00
N451   N     0.09547   0.11748   0.37267   0.00000  Uiso   1.00
N452   N     0.24383   0.21234   0.63217   0.00000  Uiso   1.00
O453   O     0.16666   0.10655   0.53958   0.00000  Uiso   1.00
O454   O     0.16667   0.22678   0.46042   0.00000  Uiso   1.00
O455   O     0.16666   0.10654   0.46039   0.00000  Uiso   1.00
O456   O     0.16667   0.22679   0.53961   0.00000  Uiso   1.00
O457   O     0.09161   0.16667   0.53046   0.00000  Uiso   1.00
O458   O     0.24172   0.16666   0.46954   0.00000  Uiso   1.00
O459   O     0.09161   0.16666   0.45127   0.00000  Uiso   1.00
O460   O     0.24172   0.16667   0.54873   0.00000  Uiso   1.00
C461   C     0.49907   0.08745   0.49993   0.00000  Uiso   1.00
C462   C     0.47707   0.02054   0.53471   0.00000  Uiso   1.00
C463   C     0.50134   0.29053   0.49988   0.00000  Uiso   1.00
C464   C     0.49865   0.04280   0.50012   0.00000  Uiso   1.00
C465   C     0.46504   0.14310   0.35322   0.00000  Uiso   1.00
C466   C     0.53584   0.18953   0.64778   0.00000  Uiso   1.00
C467   C     0.46486   0.14355   0.63691   0.00000  Uiso   1.00
C468   C     0.53479   0.18984   0.36343   0.00000  Uiso   1.00
C469   C     0.50092   0.24589   0.50007   0.00000  Uiso   1.00
C470   C     0.40124   0.16663   0.48783   0.00000  Uiso   1.00
C471   C     0.59876   0.16670   0.51217   0.00000  Uiso   1.00
C472   C     0.34582   0.16665   0.48124   0.00000  Uiso   1.00
C473   C     0.65418   0.16669   0.51876   0.00000  Uiso   1.00
C474   C     0.52115   0.02219   0.46559   0.00000  Uiso   1.00
C475   C     0.47885   0.31114   0.53441   0.00000  Uiso   1.00
C476   C     0.52295   0.31280   0.46531   0.00000  Uiso   1.00
Cu477  Cu    0.50000   0.16667   0.54689   0.00000  Uiso   1.00
Cu478  Cu    0.50000   0.16666   0.45311   0.00000  Uiso   1.00
H479   H     0.65883   0.16666   0.44536   0.00000  Uiso   1.00
H480   H     0.47070   0.03274   0.60270   0.00000  Uiso   1.00
H481   H     0.39167   0.12602   0.35760   0.00000  Uiso   1.00
H482   H     0.43429   0.08708   0.36262   0.00000  Uiso   1.00
H483   H     0.60516   0.19209   0.62399   0.00000  Uiso   1.00
H484   H     0.56389   0.23147   0.60416   0.00000  Uiso   1.00
H485   H     0.34116   0.16668   0.55464   0.00000  Uiso   1.00
H486   H     0.53834   0.03925   0.43926   0.00000  Uiso   1.00
H487   H     0.46166   0.29409   0.56075   0.00000  Uiso   1.00
H488   H     0.43690   0.12493   0.61430   0.00000  Uiso   1.00
H489   H     0.56293   0.20810   0.38631   0.00000  Uiso   1.00
H490   H     0.52946   0.30062   0.39735   0.00000  Uiso   1.00
H491   H     0.58615   0.30306   0.43410   0.00000  Uiso   1.00
H492   H     0.41394   0.03026   0.56603   0.00000  Uiso   1.00
N493   N     0.50001   0.16668   0.61736   0.00000  Uiso   1.00
N494   N     0.49999   0.16666   0.38264   0.00000  Uiso   1.00
N495   N     0.54796   0.29231   0.43074   0.00000  Uiso   1.00
N496   N     0.45211   0.04102   0.56933   0.00000  Uiso   1.00
N497   N     0.42880   0.11748   0.37267   0.00000  Uiso   1.00
N498   N     0.57716   0.21234   0.63217   0.00000  Uiso   1.00
O499   O     0.50000   0.10655   0.53958   0.00000  Uiso   1.00
O500   O     0.50000   0.22678   0.46042   0.00000  Uiso   1.00
O501   O     0.50000   0.10654   0.46039   0.00000  Uiso   1.00
O502   O     0.50000   0.22679   0.53961   0.00000  Uiso   1.00
O503   O     0.42495   0.16667   0.53046   0.00000  Uiso   1.00
O504   O     0.57505   0.16666   0.46954   0.00000  Uiso   1.00
O505   O     0.42494   0.16666   0.45127   0.00000  Uiso   1.00
O506   O     0.57506   0.16667   0.54873   0.00000  Uiso   1.00
C507   C     0.83240   0.08745   0.49993   0.00000  Uiso   1.00
C508   C     0.81040   0.02054   0.53471   0.00000  Uiso   1.00
C509   C     0.83468   0.29053   0.49988   0.00000  Uiso   1.00
C510   C     0.83199   0.04280   0.50012   0.00000  Uiso   1.00
C511   C     0.79838   0.14310   0.35322   0.00000  Uiso   1.00
C512   C     0.86917   0.18953   0.64778   0.00000  Uiso   1.00
C513   C     0.79820   0.14355   0.63691   0.00000  Uiso   1.00
C514   C     0.86812   0.18984   0.36343   0.00000  Uiso   1.00
C515   C     0.83426   0.24589   0.50007   0.00000  Uiso   1.00
C516   C     0.73458   0.16663   0.48783   0.00000  Uiso   1.00
C517   C     0.93209   0.16670   0.51217   0.00000  Uiso   1.00
C518   C     0.67915   0.16665   0.48124   0.00000  Uiso   1.00
C519   C     0.98752   0.16669   0.51876   0.00000  Uiso   1.00
C520   C     0.85448   0.02219   0.46559   0.00000  Uiso   1.00
C521   C     0.81219   0.31114   0.53441   0.00000  Uiso   1.00
C522   C     0.85628   0.31280   0.46531   0.00000  Uiso   1.00
Cu523  Cu    0.83333   0.16667   0.54689   0.00000  Uiso   1.00
Cu524  Cu    0.83333   0.16666   0.45311   0.00000  Uiso   1.00
H525   H     0.99217   0.16666   0.44536   0.00000  Uiso   1.00
H526   H     0.80403   0.03274   0.60270   0.00000  Uiso   1.00
H527   H     0.72500   0.12602   0.35760   0.00000  Uiso   1.00
H528   H     0.76762   0.08708   0.36262   0.00000  Uiso   1.00
H529   H     0.93849   0.19209   0.62399   0.00000  Uiso   1.00
H530   H     0.89722   0.23147   0.60416   0.00000  Uiso   1.00
H531   H     0.67449   0.16668   0.55464   0.00000  Uiso   1.00
H532   H     0.87167   0.03925   0.43926   0.00000  Uiso   1.00
H533   H     0.79500   0.29409   0.56075   0.00000  Uiso   1.00
H534   H     0.77023   0.12493   0.61430   0.00000  Uiso   1.00
H535   H     0.89627   0.20810   0.38631   0.00000  Uiso   1.00
H536   H     0.86279   0.30062   0.39735   0.00000  Uiso   1.00
H537   H     0.91948   0.30306   0.43410   0.00000  Uiso   1.00
H538   H     0.74728   0.03026   0.56603   0.00000  Uiso   1.00
N539   N     0.83335   0.16668   0.61736   0.00000  Uiso   1.00
N540   N     0.83332   0.16666   0.38264   0.00000  Uiso   1.00
N541   N     0.88130   0.29231   0.43074   0.00000  Uiso   1.00
N542   N     0.78545   0.04102   0.56933   0.00000  Uiso   1.00
N543   N     0.76213   0.11748   0.37267   0.00000  Uiso   1.00
N544   N     0.91049   0.21234   0.63217   0.00000  Uiso   1.00
O545   O     0.83333   0.10655   0.53958   0.00000  Uiso   1.00
O546   O     0.83334   0.22678   0.46042   0.00000  Uiso   1.00
O547   O     0.83333   0.10654   0.46039   0.00000  Uiso   1.00
O548   O     0.83334   0.22679   0.53961   0.00000  Uiso   1.00
O549   O     0.75828   0.16667   0.53046   0.00000  Uiso   1.00
O550   O     0.90839   0.16666   0.46954   0.00000  Uiso   1.00
O551   O     0.75828   0.16666   0.45127   0.00000  Uiso   1.00
O552   O     0.90839   0.16667   0.54873   0.00000  Uiso   1.00
C553   C     0.16573   0.42078   0.49993   0.00000  Uiso   1.00
C554   C     0.14373   0.35387   0.53471   0.00000  Uiso   1.00
C555   C     0.16801   0.62386   0.49988   0.00000  Uiso   1.00
C556   C     0.16532   0.37614   0.50012   0.00000  Uiso   1.00
C557   C     0.13171   0.47643   0.35322   0.00000  Uiso   1.00
C558   C     0.20251   0.52286   0.64778   0.00000  Uiso   1.00
C559   C     0.13153   0.47688   0.63691   0.00000  Uiso   1.00
C560   C     0.20145   0.52318   0.36343   0.00000  Uiso   1.00
C561   C     0.16759   0.57922   0.50007   0.00000  Uiso   1.00
C562   C     0.06791   0.49997   0.48783   0.00000  Uiso   1.00
C563   C     0.26542   0.50004   0.51217   0.00000  Uiso   1.00
C564   C     0.01248   0.49999   0.48124   0.00000  Uiso   1.00
C565   C     0.32085   0.50002   0.51876   0.00000  Uiso   1.00
C566   C     0.18781   0.35552   0.46559   0.00000  Uiso   1.00
C567   C     0.14552   0.64448   0.53441   0.00000  Uiso   1.00
C568   C     0.18962   0.64613   0.46531   0.00000  Uiso   1.00
Cu569  Cu    0.16667   0.50001   0.54689   0.00000  Uiso   1.00
Cu570  Cu    0.16667   0.49999   0.45311   0.00000  Uiso   1.00
H571   H     0.32550   0.49999   0.44536   0.00000  Uiso   1.00
H572   H     0.13736   0.36608   0.60270   0.00000  Uiso   1.00
H573   H     0.05833   0.45935   0.35760   0.00000  Uiso   1.00
H574   H     0.10096   0.42041   0.36262   0.00000  Uiso   1.00
H575   H     0.27182   0.52543   0.62399   0.00000  Uiso   1.00
H576   H     0.23056   0.56481   0.60416   0.00000  Uiso   1.00
H577   H     0.00783   0.50002   0.55464   0.00000  Uiso   1.00
H578   H     0.20501   0.37258   0.43926   0.00000  Uiso   1.00
H579   H     0.12833   0.62742   0.56075   0.00000  Uiso   1.00
H580   H     0.10357   0.45826   0.61430   0.00000  Uiso   1.00
H581   H     0.22960   0.54144   0.38631   0.00000  Uiso   1.00
H582   H     0.19612   0.63395   0.39735   0.00000  Uiso   1.00
H583   H     0.25281   0.63639   0.43410   0.00000  Uiso   1.00
H584   H     0.08061   0.36360   0.56603   0.00000  Uiso   1.00
N585   N     0.16668   0.50001   0.61736   0.00000  Uiso   1.00
N586   N     0.16665   0.49999   0.38264   0.00000  Uiso   1.00
N587   N     0.21463   0.62564   0.43074   0.00000  Uiso   1.00
N588   N     0.11878   0.37436   0.56933   0.00000  Uiso   1.00
N589   N     0.09547   0.45081   0.37267   0.00000  Uiso   1.00
N590   N     0.24383   0.54567   0.63217   0.00000  Uiso   1.00
O591   O     0.16666   0.43989   0.53958   0.00000  Uiso   1.00
O592   O     0.16667   0.56011   0.46042   0.00000  Uiso   1.00
O593   O     0.16666   0.43988   0.46039   0.00000  Uiso   1.00
O594   O     0.16667   0.56012   0.53961   0.00000  Uiso   1.00
O595   O     0.09161   0.50000   0.53046   0.00000  Uiso   1.00
O596   O     0.24172   0.50000   0.46954   0.00000  Uiso   1.00
O597   O     0.09161   0.49999   0.45127   0.00000  Uiso   1.00
O598   O     0.24172   0.50001   0.54873   0.00000  Uiso   1.00
C599   C     0.49907   0.42078   0.49993   0.00000  Uiso   1.00
C600   C     0.47707   0.35387   0.53471   0.00000  Uiso   1.00
C601   C     0.50134   0.62386   0.49988   0.00000  Uiso   1.00
C602   C     0.49865   0.37614   0.50012   0.00000  Uiso   1.00
C603   C     0.46504   0.47643   0.35322   0.00000  Uiso   1.00
C604   C     0.53584   0.52286   0.64778   0.00000  Uiso   1.00
C605   C     0.46486   0.47688   0.63691   0.00000  Uiso   1.00
C606   C     0.53479   0.52318   0.36343   0.00000  Uiso   1.00
C607   C     0.50092   0.57922   0.50007   0.00000  Uiso   1.00
C608   C     0.40124   0.49997   0.48783   0.00000  Uiso   1.00
C609   C     0.59876   0.50004   0.51217   0.00000  Uiso   1.00
C610   C     0.34582   0.49999   0.48124   0.00000  Uiso   1.00
C611   C     0.65418   0.50002   0.51876   0.00000  Uiso   1.00
C612   C     0.52115   0.35552   0.46559   0.00000  Uiso   1.00
C613   C     0.47885   0.64448   0.53441   0.00000  Uiso   1.00
C614   C     0.52295   0.64613   0.46531   0.00000  Uiso   1.00
Cu615  Cu    0.50000   0.50001   0.54689   0.00000  Uiso   1.00
Cu616  Cu    0.50000   0.49999   0.45311   0.00000  Uiso   1.00
H617   H     0.65883   0.49999   0.44536   0.00000  Uiso   1.00
H618   H     0.47070   0.36608   0.60270   0.00000  Uiso   1.00
H619   H     0.39167   0.45935   0.35760   0.00000  Uiso   1.00
H620   H     0.43429   0.42041   0.36262   0.00000  Uiso   1.00
H621   H     0.60516   0.52543   0.62399   0.00000  Uiso   1.00
H622   H     0.56389   0.56481   0.60416   0.00000  Uiso   1.00
H623   H     0.34116   0.50002   0.55464   0.00000  Uiso   1.00
H624   H     0.53834   0.37258   0.43926   0.00000  Uiso   1.00
H625   H     0.46166   0.62742   0.56075   0.00000  Uiso   1.00
H626   H     0.43690   0.45826   0.61430   0.00000  Uiso   1.00
H627   H     0.56293   0.54144   0.38631   0.00000  Uiso   1.00
H628   H     0.52946   0.63395   0.39735   0.00000  Uiso   1.00
H629   H     0.58615   0.63639   0.43410   0.00000  Uiso   1.00
H630   H     0.41394   0.36360   0.56603   0.00000  Uiso   1.00
N631   N     0.50001   0.50001   0.61736   0.00000  Uiso   1.00
N632   N     0.49999   0.49999   0.38264   0.00000  Uiso   1.00
N633   N     0.54796   0.62564   0.43074   0.00000  Uiso   1.00
N634   N     0.45211   0.37436   0.56933   0.00000  Uiso   1.00
N635   N     0.42880   0.45081   0.37267   0.00000  Uiso   1.00
N636   N     0.57716   0.54567   0.63217   0.00000  Uiso   1.00
O637   O     0.50000   0.43989   0.53958   0.00000  Uiso   1.00
O638   O     0.50000   0.56011   0.46042   0.00000  Uiso   1.00
O639   O     0.50000   0.43988   0.46039   0.00000  Uiso   1.00
O640   O     0.50000   0.56012   0.53961   0.00000  Uiso   1.00
O641   O     0.42495   0.50000   0.53046   0.00000  Uiso   1.00
O642   O     0.57505   0.50000   0.46954   0.00000  Uiso   1.00
O643   O     0.42494   0.49999   0.45127   0.00000  Uiso   1.00
O644   O     0.57506   0.50001   0.54873   0.00000  Uiso   1.00
C645   C     0.83240   0.42078   0.49993   0.00000  Uiso   1.00
C646   C     0.81040   0.35387   0.53471   0.00000  Uiso   1.00
C647   C     0.83468   0.62386   0.49988   0.00000  Uiso   1.00
C648   C     0.83199   0.37614   0.50012   0.00000  Uiso   1.00
C649   C     0.79838   0.47643   0.35322   0.00000  Uiso   1.00
C650   C     0.86917   0.52286   0.64778   0.00000  Uiso   1.00
C651   C     0.79820   0.47688   0.63691   0.00000  Uiso   1.00
C652   C     0.86812   0.52318   0.36343   0.00000  Uiso   1.00
C653   C     0.83426   0.57922   0.50007   0.00000  Uiso   1.00
C654   C     0.73458   0.49997   0.48783   0.00000  Uiso   1.00
C655   C     0.93209   0.50004   0.51217   0.00000  Uiso   1.00
C656   C     0.67915   0.49999   0.48124   0.00000  Uiso   1.00
C657   C     0.98752   0.50002   0.51876   0.00000  Uiso   1.00
C658   C     0.85448   0.35552   0.46559   0.00000  Uiso   1.00
C659   C     0.81219   0.64448   0.53441   0.00000  Uiso   1.00
C660   C     0.85628   0.64613   0.46531   0.00000  Uiso   1.00
Cu661  Cu    0.83333   0.50001   0.54689   0.00000  Uiso   1.00
Cu662  Cu    0.83333   0.49999   0.45311   0.00000  Uiso   1.00
H663   H     0.99217   0.49999   0.44536   0.00000  Uiso   1.00
H664   H     0.80403   0.36608   0.60270   0.00000  Uiso   1.00
H665   H     0.72500   0.45935   0.35760   0.00000  Uiso   1.00
H666   H     0.76762   0.42041   0.36262   0.00000  Uiso   1.00
H667   H     0.93849   0.52543   0.62399   0.00000  Uiso   1.00
H668   H     0.89722   0.56481   0.60416   0.00000  Uiso   1.00
H669   H     0.67449   0.50002   0.55464   0.00000  Uiso   1.00
H670   H     0.87167   0.37258   0.43926   0.00000  Uiso   1.00
H671   H     0.79500   0.62742   0.56075   0.00000  Uiso   1.00
H672   H     0.77023   0.45826   0.61430   0.00000  Uiso   1.00
H673   H     0.89627   0.54144   0.38631   0.00000  Uiso   1.00
H674   H     0.86279   0.63395   0.39735   0.00000  Uiso   1.00
H675   H     0.91948   0.63639   0.43410   0.00000  Uiso   1.00
H676   H     0.74728   0.36360   0.56603   0.00000  Uiso   1.00
N677   N     0.83335   0.50001   0.61736   0.00000  Uiso   1.00
N678   N     0.83332   0.49999   0.38264   0.00000  Uiso   1.00
N679   N     0.88130   0.62564   0.43074   0.00000  Uiso   1.00
N680   N     0.78545   0.37436   0.56933   0.00000  Uiso   1.00
N681   N     0.76213   0.45081   0.37267   0.00000  Uiso   1.00
N682   N     0.91049   0.54567   0.63217   0.00000  Uiso   1.00
O683   O     0.83333   0.43989   0.53958   0.00000  Uiso   1.00
O684   O     0.83334   0.56011   0.46042   0.00000  Uiso   1.00
O685   O     0.83333   0.43988   0.46039   0.00000  Uiso   1.00
O686   O     0.83334   0.56012   0.53961   0.00000  Uiso   1.00
O687   O     0.75828   0.50000   0.53046   0.00000  Uiso   1.00
O688   O     0.90839   0.50000   0.46954   0.00000  Uiso   1.00
O689   O     0.75828   0.49999   0.45127   0.00000  Uiso   1.00
O690   O     0.90839   0.50001   0.54873   0.00000  Uiso   1.00
C691   C     0.16573   0.75411   0.49993   0.00000  Uiso   1.00
C692   C     0.14373   0.68720   0.53471   0.00000  Uiso   1.00
C693   C     0.16801   0.95720   0.49988   0.00000  Uiso   1.00
C694   C     0.16532   0.70947   0.50012   0.00000  Uiso   1.00
C695   C     0.13171   0.80976   0.35322   0.00000  Uiso   1.00
C696   C     0.20251   0.85620   0.64778   0.00000  Uiso   1.00
C697   C     0.13153   0.81022   0.63691   0.00000  Uiso   1.00
C698   C     0.20145   0.85651   0.36343   0.00000  Uiso   1.00
C699   C     0.16759   0.91255   0.50007   0.00000  Uiso   1.00
C700   C     0.06791   0.83330   0.48783   0.00000  Uiso   1.00
C701   C     0.26542   0.83337   0.51217   0.00000  Uiso   1.00
C702   C     0.01248   0.83332   0.48124   0.00000  Uiso   1.00
C703   C     0.32085   0.83335   0.51876   0.00000  Uiso   1.00
C704   C     0.18781   0.68886   0.46559   0.00000  Uiso   1.00
C705   C     0.14552   0.97781   0.53441   0.00000  Uiso   1.00
C706   C     0.18962   0.97947   0.46531   0.00000  Uiso   1.00
Cu707  Cu    0.16667   0.83334   0.54689   0.00000  Uiso   1.00
Cu708  Cu    0.16667   0.83333   0.45311   0.00000  Uiso   1.00
H709   H     0.32550   0.83332   0.44536   0.00000  Uiso   1.00
H710   H     0.13736   0.69941   0.60270   0.00000  Uiso   1.00
H711   H     0.05833   0.79268   0.35760   0.00000  Uiso   1.00
H712   H     0.10096   0.75375   0.36262   0.00000  Uiso   1.00
H713   H     0.27182   0.85876   0.62399   0.00000  Uiso   1.00
H714   H     0.23056   0.89814   0.60416   0.00000  Uiso   1.00
H715   H     0.00783   0.83335   0.55464   0.00000  Uiso   1.00
H716   H     0.20501   0.70592   0.43926   0.00000  Uiso   1.00
H717   H     0.12833   0.96075   0.56075   0.00000  Uiso   1.00
H718   H     0.10357   0.79159   0.61430   0.00000  Uiso   1.00
H719   H     0.22960   0.87477   0.38631   0.00000  Uiso   1.00
H720   H     0.19612   0.96728   0.39735   0.00000  Uiso   1.00
H721   H     0.25281   0.96972   0.43410   0.00000  Uiso   1.00
H722   H     0.08061   0.69693   0.56603   0.00000  Uiso   1.00
N723   N     0.16668   0.83334   0.61736   0.00000  Uiso   1.00
N724   N     0.16665   0.83332   0.38264   0.00000  Uiso   1.00
N725   N     0.21463   0.95898   0.43074   0.00000  Uiso   1.00
N726   N     0.11878   0.70769   0.56933   0.00000  Uiso   1.00
N727   N     0.09547   0.78414   0.37267   0.00000  Uiso   1.00
N728   N     0.24383   0.87901   0.63217   0.00000  Uiso   1.00
O729   O     0.16666   0.77322   0.53958   0.00000  Uiso   1.00
O730   O     0.16667   0.89345   0.46042   0.00000  Uiso   1.00
O731   O     0.16666   0.77321   0.46039   0.00000  Uiso   1.00
O732   O     0.16667   0.89346   0.53961   0.00000  Uiso   1.00
O733   O     0.09161   0.83334   0.53046   0.00000  Uiso   1.00
O734   O     0.24172   0.83333   0.46954   0.00000  Uiso   1.00
O735   O     0.09161   0.83333   0.45127   0.00000  Uiso   1.00
O736   O     0.24172   0.83334   0.54873   0.00000  Uiso   1.00
C737   C     0.49907   0.75411   0.49993   0.00000  Uiso   1.00
C738   C     0.47707   0.68720   0.53471   0.00000  Uiso   1.00
C739   C     0.50134   0.95720   0.49988   0.00000  Uiso   1.00
C740   C     0.49865   0.70947   0.50012   0.00000  Uiso   1.00
C741   C     0.46504   0.80976   0.35322   0.00000  Uiso   1.00
C742   C     0.53584   0.85620   0.64778   0.00000  Uiso   1.00
C743   C     0.46486   0.81022   0.63691   0.00000  Uiso   1.00
C744   C     0.53479   0.85651   0.36343   0.00000  Uiso   1.00
C745   C     0.50092   0.91255   0.50007   0.00000  Uiso   1.00
C746   C     0.40124   0.83330   0.48783   0.00000  Uiso   1.00
C747   C     0.59876   0.83337   0.51217   0.00000  Uiso   1.00
C748   C     0.34582   0.83332   0.48124   0.00000  Uiso   1.00
C749   C     0.65418   0.83335   0.51876   0.00000  Uiso   1.00
C750   C     0.52115   0.68886   0.46559   0.00000  Uiso   1.00
C751   C     0.47885   0.97781   0.53441   0.00000  Uiso   1.00
C752   C     0.52295   0.97947   0.46531   0.00000  Uiso   1.00
Cu753  Cu    0.50000   0.83334   0.54689   0.00000  Uiso   1.00
Cu754  Cu    0.50000   0.83333   0.45311   0.00000  Uiso   1.00
H755   H     0.65883   0.83332   0.44536   0.00000  Uiso   1.00
H756   H     0.47070   0.69941   0.60270   0.00000  Uiso   1.00
H757   H     0.39167   0.79268   0.35760   0.00000  Uiso   1.00
H758   H     0.43429   0.75375   0.36262   0.00000  Uiso   1.00
H759   H     0.60516   0.85876   0.62399   0.00000  Uiso   1.00
H760   H     0.56389   0.89814   0.60416   0.00000  Uiso   1.00
H761   H     0.34116   0.83335   0.55464   0.00000  Uiso   1.00
H762   H     0.53834   0.70592   0.43926   0.00000  Uiso   1.00
H763   H     0.46166   0.96075   0.56075   0.00000  Uiso   1.00
H764   H     0.43690   0.79159   0.61430   0.00000  Uiso   1.00
H765   H     0.56293   0.87477   0.38631   0.00000  Uiso   1.00
H766   H     0.52946   0.96728   0.39735   0.00000  Uiso   1.00
H767   H     0.58615   0.96972   0.43410   0.00000  Uiso   1.00
H768   H     0.41394   0.69693   0.56603   0.00000  Uiso   1.00
N769   N     0.50001   0.83334   0.61736   0.00000  Uiso   1.00
N770   N     0.49999   0.83332   0.38264   0.00000  Uiso   1.00
N771   N     0.54796   0.95898   0.43074   0.00000  Uiso   1.00
N772   N     0.45211   0.70769   0.56933   0.00000  Uiso   1.00
N773   N     0.42880   0.78414   0.37267   0.00000  Uiso   1.00
N774   N     0.57716   0.87901   0.63217   0.00000  Uiso   1.00
O775   O     0.50000   0.77322   0.53958   0.00000  Uiso   1.00
O776   O     0.50000   0.89345   0.46042   0.00000  Uiso   1.00
O777   O     0.50000   0.77321   0.46039   0.00000  Uiso   1.00
O778   O     0.50000   0.89346   0.53961   0.00000  Uiso   1.00
O779   O     0.42495   0.83334   0.53046   0.00000  Uiso   1.00
O780   O     0.57505   0.83333   0.46954   0.00000  Uiso   1.00
O781   O     0.42494   0.83333   0.45127   0.00000  Uiso   1.00
O782   O     0.57506   0.83334   0.54873   0.00000  Uiso   1.00
C783   C     0.83240   0.75411   0.49993   0.00000  Uiso   1.00
C784   C     0.81040   0.68720   0.53471   0.00000  Uiso   1.00
C785   C     0.83468   0.95720   0.49988   0.00000  Uiso   1.00
C786   C     0.83199   0.70947   0.50012   0.00000  Uiso   1.00
C787   C     0.79838   0.80976   0.35322   0.00000  Uiso   1.00
C788   C     0.86917   0.85620   0.64778   0.00000  Uiso   1.00
C789   C     0.79820   0.81022   0.63691   0.00000  Uiso   1.00
C790   C     0.86812   0.85651   0.36343   0.00000  Uiso   1.00
C791   C     0.83426   0.91255   0.50007   0.00000  Uiso   1.00
C792   C     0.73458   0.83330   0.48783   0.00000  Uiso   1.00
C793   C     0.93209   0.83337   0.51217   0.00000  Uiso   1.00
C794   C     0.67915   0.83332   0.48124   0.00000  Uiso   1.00
C795   C     0.98752   0.83335   0.51876   0.00000  Uiso   1.00
C796   C     0.85448   0.68886   0.46559   0.00000  Uiso   1.00
C797   C     0.81219   0.97781   0.53441   0.00000  Uiso   1.00
C798   C     0.85628   0.97947   0.46531   0.00000  Uiso   1.00
Cu799  Cu    0.83333   0.83334   0.54689   0.00000  Uiso   1.00
Cu800  Cu    0.83333   0.83333   0.45311   0.00000  Uiso   1.00
H801   H     0.99217   0.83332   0.44536   0.00000  Uiso   1.00
H802   H     0.80403   0.69941   0.60270   0.00000  Uiso   1.00
H803   H     0.72500   0.79268   0.35760   0.00000  Uiso   1.00
H804   H     0.76762   0.75375   0.36262   0.00000  Uiso   1.00
H805   H     0.93849   0.85876   0.62399   0.00000  Uiso   1.00
H806   H     0.89722   0.89814   0.60416   0.00000  Uiso   1.00
H807   H     0.67449   0.83335   0.55464   0.00000  Uiso   1.00
H808   H     0.87167   0.70592   0.43926   0.00000  Uiso   1.00
H809   H     0.79500   0.96075   0.56075   0.00000  Uiso   1.00
H810   H     0.77023   0.79159   0.61430   0.00000  Uiso   1.00
H811   H     0.89627   0.87477   0.38631   0.00000  Uiso   1.00
H812   H     0.86279   0.96728   0.39735   0.00000  Uiso   1.00
H813   H     0.91948   0.96972   0.43410   0.00000  Uiso   1.00
H814   H     0.74728   0.69693   0.56603   0.00000  Uiso   1.00
N815   N     0.83335   0.83334   0.61736   0.00000  Uiso   1.00
N816   N     0.83332   0.83332   0.38264   0.00000  Uiso   1.00
N817   N     0.88130   0.95898   0.43074   0.00000  Uiso   1.00
N818   N     0.78545   0.70769   0.56933   0.00000  Uiso   1.00
N819   N     0.76213   0.78414   0.37267   0.00000  Uiso   1.00
N820   N     0.91049   0.87901   0.63217   0.00000  Uiso   1.00
O821   O     0.83333   0.77322   0.53958   0.00000  Uiso   1.00
O822   O     0.83334   0.89345   0.46042   0.00000  Uiso   1.00
O823   O     0.83333   0.77321   0.46039   0.00000  Uiso   1.00
O824   O     0.83334   0.89346   0.53961   0.00000  Uiso   1.00
O825   O     0.75828   0.83334   0.53046   0.00000  Uiso   1.00
O826   O     0.90839   0.83333   0.46954   0.00000  Uiso   1.00
O827   O     0.75828   0.83333   0.45127   0.00000  Uiso   1.00
O828   O     0.90839   0.83334   0.54873   0.00000  Uiso   1.00
C829   C     0.16573   0.08745   0.83326   0.00000  Uiso   1.00
C830   C     0.14373   0.02054   0.86804   0.00000  Uiso   1.00
C831   C     0.16801   0.29053   0.83322   0.00000  Uiso   1.00
C832   C     0.16532   0.04280   0.83345   0.00000  Uiso   1.00
C833   C     0.13171   0.14310   0.68656   0.00000  Uiso   1.00
C834   C     0.20251   0.18953   0.98111   0.00000  Uiso   1.00
C835   C     0.13153   0.14355   0.97024   0.00000  Uiso   1.00
C836   C     0.20145   0.18984   0.69676   0.00000  Uiso   1.00
C837   C     0.16759   0.24589   0.83340   0.00000  Uiso   1.00
C838   C     0.06791   0.16663   0.82116   0.00000  Uiso   1.00
C839   C     0.26542   0.16670   0.84550   0.00000  Uiso   1.00
C840   C     0.01248   0.16665   0.81458   0.00000  Uiso   1.00
C841   C     0.32085   0.16669   0.85210   0.00000  Uiso   1.00
C842   C     0.18781   0.02219   0.79893   0.00000  Uiso   1.00
C843   C     0.14552   0.31114   0.86775   0.00000  Uiso   1.00
C844   C     0.18962   0.31280   0.79864   0.00000  Uiso   1.00
Cu845  Cu    0.16667   0.16667   0.88022   0.00000  Uiso   1.00
Cu846  Cu    0.16667   0.16666   0.78645   0.00000  Uiso   1.00
H847   H     0.32550   0.16666   0.77870   0.00000  Uiso   1.00
H848   H     0.13736   0.03274   0.93603   0.00000  Uiso   1.00
H849   H     0.05833   0.12602   0.69093   0.00000  Uiso   1.00
H850   H     0.10096   0.08708   0.69595   0.00000  Uiso   1.00
H851   H     0.27182   0.19209   0.95732   0.00000  Uiso   1.00
H852   H     0.23056   0.23147   0.93749   0.00000  Uiso   1.00
H853   H     0.00783   0.16668   0.88797   0.00000  Uiso   1.00
H854   H     0.20501   0.03925   0.77259   0.00000  Uiso   1.00
H855   H     0.12833   0.29409   0.89409   0.00000  Uiso   1.00
H856   H     0.10357   0.12493   0.94763   0.00000  Uiso   1.00
H857   H     0.22960   0.20810   0.71965   0.00000  Uiso   1.00
H858   H     0.19612   0.30062   0.73068   0.00000  Uiso   1.00
H859   H     0.25281   0.30306   0.76744   0.00000  Uiso   1.00
H860   H     0.08061   0.03026   0.89937   0.00000  Uiso   1.00
N861   N     0.16668   0.16668   0.95069   0.00000  Uiso   1.00
N862   N     0.16665   0.16666   0.71597   0.00000  Uiso   1.00
N863   N     0.21463   0.29231   0.76407   0.00000  Uiso   1.00
N864   N     0.11878   0.04102   0.90266   0.00000  Uiso   1.00
N865   N     0.09547   0.11748   0.70600   0.00000  Uiso   1.00
N866   N     0.24383   0.21234   0.96550   0.00000  Uiso   1.00
O867   O     0.16666   0.10655   0.87291   0.00000  Uiso   1.00
O868   O     0.16667   0.22678   0.79375   0.00000  Uiso   1.00
O869   O     0.16666   0.10654   0.79372   0.00000  Uiso   1.00
O870   O     0.16667   0.22679   0.87294   0.00000  Uiso   1.00
O871   O     0.09161   0.16667   0.86379   0.00000  Uiso   1.00
O872   O     0.24172   0.16666   0.80288   0.00000  Uiso   1.00
O873   O     0.09161   0.16666   0.78460   0.00000  Uiso   1.00
O874   O     0.24172   0.16667   0.88207   0.00000  Uiso   1.00
C875   C     0.49907   0.08745   0.83326   0.00000  Uiso   1.00
C876   C     0.47707   0.02054   0.86804   0.00000  Uiso   1.00
C877   C     0.50134   0.29053   0.83322   0.00000  Uiso   1.00
C878   C     0.49865   0.04280   0.83345   0.00000  Uiso   1.00
C879   C     0.46504   0.14310   0.68656   0.00000  Uiso   1.00
C880   C     0.53584   0.18953   0.98111   0.00000  Uiso   1.00
C881   C     0.46486   0.14355   0.97024   0.00000  Uiso   1.00
C882   C     0.53479   0.18984   0.69676   0.00000  Uiso   1.00
C883   C     0.50092   0.24589   0.83340   0.00000  Uiso   1.00
C884   C     0.40124   0.16663   0.82116   0.00000  Uiso   1.00
C885   C     0.59876   0.16670   0.84550   0.00000  Uiso   1.00
C886   C     0.34582   0.16665   0.81458   0.00000  Uiso   1.00
C887   C     0.65418   0.16669   0.85210   0.00000  Uiso   1.00
C888   C     0.52115   0.02219   0.79893   0.00000  Uiso   1.00
C889   C     0.47885   0.31114   0.86775   0.00000  Uiso   1.00
C890   C     0.52295   0.31280   0.79864   0.00000  Uiso   1.00
Cu891  Cu    0.50000   0.16667   0.88022   0.00000  Uiso   1.00
Cu892  Cu    0.50000   0.16666   0.78645   0.00000  Uiso   1.00
H893   H     0.65883   0.16666   0.77870   0.00000  Uiso   1.00
H894   H     0.47070   0.03274   0.93603   0.00000  Uiso   1.00
H895   H     0.39167   0.12602   0.69093   0.00000  Uiso   1.00
H896   H     0.43429   0.08708   0.69595   0.00000  Uiso   1.00
H897   H     0.60516   0.19209   0.95732   0.00000  Uiso   1.00
H898   H     0.56389   0.23147   0.93749   0.00000  Uiso   1.00
H899   H     0.34116   0.16668   0.88797   0.00000  Uiso   1.00
H900   H     0.53834   0.03925   0.77259   0.00000  Uiso   1.00
H901   H     0.46166   0.29409   0.89409   0.00000  Uiso   1.00
H902   H     0.43690   0.12493   0.94763   0.00000  Uiso   1.00
H903   H     0.56293   0.20810   0.71965   0.00000  Uiso   1.00
H904   H     0.52946   0.30062   0.73068   0.00000  Uiso   1.00
H905   H     0.58615   0.30306   0.76744   0.00000  Uiso   1.00
H906   H     0.41394   0.03026   0.89937   0.00000  Uiso   1.00
N907   N     0.50001   0.16668   0.95069   0.00000  Uiso   1.00
N908   N     0.49999   0.16666   0.71597   0.00000  Uiso   1.00
N909   N     0.54796   0.29231   0.76407   0.00000  Uiso   1.00
N910   N     0.45211   0.04102   0.90266   0.00000  Uiso   1.00
N911   N     0.42880   0.11748   0.70600   0.00000  Uiso   1.00
N912   N     0.57716   0.21234   0.96550   0.00000  Uiso   1.00
O913   O     0.50000   0.10655   0.87291   0.00000  Uiso   1.00
O914   O     0.50000   0.22678   0.79375   0.00000  Uiso   1.00
O915   O     0.50000   0.10654   0.79372   0.00000  Uiso   1.00
O916   O     0.50000   0.22679   0.87294   0.00000  Uiso   1.00
O917   O     0.42495   0.16667   0.86379   0.00000  Uiso   1.00
O918   O     0.57505   0.16666   0.80288   0.00000  Uiso   1.00
O919   O     0.42494   0.16666   0.78460   0.00000  Uiso   1.00
O920   O     0.57506   0.16667   0.88207   0.00000  Uiso   1.00
C921   C     0.83240   0.08745   0.83326   0.00000  Uiso   1.00
C922   C     0.81040   0.02054   0.86804   0.00000  Uiso   1.00
C923   C     0.83468   0.29053   0.83322   0.00000  Uiso   1.00
C924   C     0.83199   0.04280   0.83345   0.00000  Uiso   1.00
C925   C     0.79838   0.14310   0.68656   0.00000  Uiso   1.00
C926   C     0.86917   0.18953   0.98111   0.00000  Uiso   1.00
C927   C     0.79820   0.14355   0.97024   0.00000  Uiso   1.00
C928   C     0.86812   0.18984   0.69676   0.00000  Uiso   1.00
C929   C     0.83426   0.24589   0.83340   0.00000  Uiso   1.00
C930   C     0.73458   0.16663   0.82116   0.00000  Uiso   1.00
C931   C     0.93209   0.16670   0.84550   0.00000  Uiso   1.00
C932   C     0.67915   0.16665   0.81458   0.00000  Uiso   1.00
C933   C     0.98752   0.16669   0.85210   0.00000  Uiso   1.00
C934   C     0.85448   0.02219   0.79893   0.00000  Uiso   1.00
C935   C     0.81219   0.31114   0.86775   0.00000  Uiso   1.00
C936   C     0.85628   0.31280   0.79864   0.00000  Uiso   1.00
Cu937  Cu    0.83333   0.16667   0.88022   0.00000  Uiso   1.00
Cu938  Cu    0.83333   0.16666   0.78645   0.00000  Uiso   1.00
H939   H     0.99217   0.16666   0.77870   0.00000  Uiso   1.00
H940   H     0.80403   0.03274   0.93603   0.00000  Uiso   1.00
H941   H     0.72500   0.12602   0.69093   0.00000  Uiso   1.00
H942   H     0.76762   0.08708   0.69595   0.00000  Uiso   1.00
H943   H     0.93849   0.19209   0.95732   0.00000  Uiso   1.00
H944   H     0.89722   0.23147   0.93749   0.00000  Uiso   1.00
H945   H     0.67449   0.16668   0.88797   0.00000  Uiso   1.00
H946   H     0.87167   0.03925   0.77259   0.00000  Uiso   1.00
H947   H     0.79500   0.29409   0.89409   0.00000  Uiso   1.00
H948   H     0.77023   0.12493   0.94763   0.00000  Uiso   1.00
H949   H     0.89627   0.20810   0.71965   0.00000  Uiso   1.00
H950   H     0.86279   0.30062   0.73068   0.00000  Uiso   1.00
H951   H     0.91948   0.30306   0.76744   0.00000  Uiso   1.00
H952   H     0.74728   0.03026   0.89937   0.00000  Uiso   1.00
N953   N     0.83335   0.16668   0.95069   0.00000  Uiso   1.00
N954   N     0.83332   0.16666   0.71597   0.00000  Uiso   1.00
N955   N     0.88130   0.29231   0.76407   0.00000  Uiso   1.00
N956   N     0.78545   0.04102   0.90266   0.00000  Uiso   1.00
N957   N     0.76213   0.11748   0.70600   0.00000  Uiso   1.00
N958   N     0.91049   0.21234   0.96550   0.00000  Uiso   1.00
O959   O     0.83333   0.10655   0.87291   0.00000  Uiso   1.00
O960   O     0.83334   0.22678   0.79375   0.00000  Uiso   1.00
O961   O     0.83333   0.10654   0.79372   0.00000  Uiso   1.00
O962   O     0.83334   0.22679   0.87294   0.00000  Uiso   1.00
O963   O     0.75828   0.16667   0.86379   0.00000  Uiso   1.00
O964   O     0.90839   0.16666   0.80288   0.00000  Uiso   1.00
O965   O     0.75828   0.16666   0.78460   0.00000  Uiso   1.00
O966   O     0.90839   0.16667   0.88207   0.00000  Uiso   1.00
C967   C     0.16573   0.42078   0.83326   0.00000  Uiso   1.00
C968   C     0.14373   0.35387   0.86804   0.00000  Uiso   1.00
C969   C     0.16801   0.62386   0.83322   0.00000  Uiso   1.00
C970   C     0.16532   0.37614   0.83345   0.00000  Uiso   1.00
C971   C     0.13171   0.47643   0.68656   0.00000  Uiso   1.00
C972   C     0.20251   0.52286   0.98111   0.00000  Uiso   1.00
C973   C     0.13153   0.47688   0.97024   0.00000  Uiso   1.00
C974   C     0.20145   0.52318   0.69676   0.00000  Uiso   1.00
C975   C     0.16759   0.57922   0.83340   0.00000  Uiso   1.00
C976   C     0.06791   0.49997   0.82116   0.00000  Uiso   1.00
C977   C     0.26542   0.50004   0.84550   0.00000  Uiso   1.00
C978   C     0.01248   0.49999   0.81458   0.00000  Uiso   1.00
C979   C     0.32085   0.50002   0.85210   0.00000  Uiso   1.00
C980   C     0.18781   0.35552   0.79893   0.00000  Uiso   1.00
C981   C     0.14552   0.64448   0.86775   0.00000  Uiso   1.00
C982   C     0.18962   0.64613   0.79864   0.00000  Uiso   1.00
Cu983  Cu    0.16667   0.50001   0.88022   0.00000  Uiso   1.00
Cu984  Cu    0.16667   0.49999   0.78645   0.00000  Uiso   1.00
H985   H     0.32550   0.49999   0.77870   0.00000  Uiso   1.00
H986   H     0.13736   0.36608   0.93603   0.00000  Uiso   1.00
H987   H     0.05833   0.45935   0.69093   0.00000  Uiso   1.00
H988   H     0.10096   0.42041   0.69595   0.00000  Uiso   1.00
H989   H     0.27182   0.52543   0.95732   0.00000  Uiso   1.00
H990   H     0.23056   0.56481   0.93749   0.00000  Uiso   1.00
H991   H     0.00783   0.50002   0.88797   0.00000  Uiso   1.00
H992   H     0.20501   0.37258   0.77259   0.00000  Uiso   1.00
H993   H     0.12833   0.62742   0.89409   0.00000  Uiso   1.00
H994   H     0.10357   0.45826   0.94763   0.00000  Uiso   1.00
H995   H     0.22960   0.54144   0.71965   0.00000  Uiso   1.00
H996   H     0.19612   0.63395   0.73068   0.00000  Uiso   1.00
H997   H     0.25281   0.63639   0.76744   0.00000  Uiso   1.00
H998   H     0.08061   0.36360   0.89937   0.00000  Uiso   1.00
N999   N     0.16668   0.50001   0.95069   0.00000  Uiso   1.00
N1000  N     0.16665   0.49999   0.71597   0.00000  Uiso   1.00
N1001  N     0.21463   0.62564   0.76407   0.00000  Uiso   1.00
N1002  N     0.11878   0.37436   0.90266   0.00000  Uiso   1.00
N1003  N     0.09547   0.45081   0.70600   0.00000  Uiso   1.00
N1004  N     0.24383   0.54567   0.96550   0.00000  Uiso   1.00
O1005  O     0.16666   0.43989   0.87291   0.00000  Uiso   1.00
O1006  O     0.16667   0.56011   0.79375   0.00000  Uiso   1.00
O1007  O     0.16666   0.43988   0.79372   0.00000  Uiso   1.00
O1008  O     0.16667   0.56012   0.87294   0.00000  Uiso   1.00
O1009  O     0.09161   0.50000   0.86379   0.00000  Uiso   1.00
O1010  O     0.24172   0.50000   0.80288   0.00000  Uiso   1.00
O1011  O     0.09161   0.49999   0.78460   0.00000  Uiso   1.00
O1012  O     0.24172   0.50001   0.88207   0.00000  Uiso   1.00
C1013  C     0.49907   0.42078   0.83326   0.00000  Uiso   1.00
C1014  C     0.47707   0.35387   0.86804   0.00000  Uiso   1.00
C1015  C     0.50134   0.62386   0.83322   0.00000  Uiso   1.00
C1016  C     0.49865   0.37614   0.83345   0.00000  Uiso   1.00
C1017  C     0.46504   0.47643   0.68656   0.00000  Uiso   1.00
C1018  C     0.53584   0.52286   0.98111   0.00000  Uiso   1.00
C1019  C     0.46486   0.47688   0.97024   0.00000  Uiso   1.00
C1020  C     0.53479   0.52318   0.69676   0.00000  Uiso   1.00
C1021  C     0.50092   0.57922   0.83340   0.00000  Uiso   1.00
C1022  C     0.40124   0.49997   0.82116   0.00000  Uiso   1.00
C1023  C     0.59876   0.50004   0.84550   0.00000  Uiso   1.00
C1024  C     0.34582   0.49999   0.81458   0.00000  Uiso   1.00
C1025  C     0.65418   0.50002   0.85210   0.00000  Uiso   1.00
C1026  C     0.52115   0.35552   0.79893   0.00000  Uiso   1.00
C1027  C     0.47885   0.64448   0.86775   0.00000  Uiso   1.00
C1028  C     0.52295   0.64613   0.79864   0.00000  Uiso   1.00
Cu1029 Cu    0.50000   0.50001   0.88022   0.00000  Uiso   1.00
Cu1030 Cu    0.50000   0.49999   0.78645   0.00000  Uiso   1.00
H1031  H     0.65883   0.49999   0.77870   0.00000  Uiso   1.00
H1032  H     0.47070   0.36608   0.93603   0.00000  Uiso   1.00
H1033  H     0.39167   0.45935   0.69093   0.00000  Uiso   1.00
H1034  H     0.43429   0.42041   0.69595   0.00000  Uiso   1.00
H1035  H     0.60516   0.52543   0.95732   0.00000  Uiso   1.00
H1036  H     0.56389   0.56481   0.93749   0.00000  Uiso   1.00
H1037  H     0.34116   0.50002   0.88797   0.00000  Uiso   1.00
H1038  H     0.53834   0.37258   0.77259   0.00000  Uiso   1.00
H1039  H     0.46166   0.62742   0.89409   0.00000  Uiso   1.00
H1040  H     0.43690   0.45826   0.94763   0.00000  Uiso   1.00
H1041  H     0.56293   0.54144   0.71965   0.00000  Uiso   1.00
H1042  H     0.52946   0.63395   0.73068   0.00000  Uiso   1.00
H1043  H     0.58615   0.63639   0.76744   0.00000  Uiso   1.00
H1044  H     0.41394   0.36360   0.89937   0.00000  Uiso   1.00
N1045  N     0.50001   0.50001   0.95069   0.00000  Uiso   1.00
N1046  N     0.49999   0.49999   0.71597   0.00000  Uiso   1.00
N1047  N     0.54796   0.62564   0.76407   0.00000  Uiso   1.00
N1048  N     0.45211   0.37436   0.90266   0.00000  Uiso   1.00
N1049  N     0.42880   0.45081   0.70600   0.00000  Uiso   1.00
N1050  N     0.57716   0.54567   0.96550   0.00000  Uiso   1.00
O1051  O     0.50000   0.43989   0.87291   0.00000  Uiso   1.00
O1052  O     0.50000   0.56011   0.79375   0.00000  Uiso   1.00
O1053  O     0.50000   0.43988   0.79372   0.00000  Uiso   1.00
O1054  O     0.50000   0.56012   0.87294   0.00000  Uiso   1.00
O1055  O     0.42495   0.50000   0.86379   0.00000  Uiso   1.00
O1056  O     0.57505   0.50000   0.80288   0.00000  Uiso   1.00
O1057  O     0.42494   0.49999   0.78460   0.00000  Uiso   1.00
O1058  O     0.57506   0.50001   0.88207   0.00000  Uiso   1.00
C1059  C     0.83240   0.42078   0.83326   0.00000  Uiso   1.00
C1060  C     0.81040   0.35387   0.86804   0.00000  Uiso   1.00
C1061  C     0.83468   0.62386   0.83322   0.00000  Uiso   1.00
C1062  C     0.83199   0.37614   0.83345   0.00000  Uiso   1.00
C1063  C     0.79838   0.47643   0.68656   0.00000  Uiso   1.00
C1064  C     0.86917   0.52286   0.98111   0.00000  Uiso   1.00
C1065  C     0.79820   0.47688   0.97024   0.00000  Uiso   1.00
C1066  C     0.86812   0.52318   0.69676   0.00000  Uiso   1.00
C1067  C     0.83426   0.57922   0.83340   0.00000  Uiso   1.00
C1068  C     0.73458   0.49997   0.82116   0.00000  Uiso   1.00
C1069  C     0.93209   0.50004   0.84550   0.00000  Uiso   1.00
C1070  C     0.67915   0.49999   0.81458   0.00000  Uiso   1.00
C1071  C     0.98752   0.50002   0.85210   0.00000  Uiso   1.00
C1072  C     0.85448   0.35552   0.79893   0.00000  Uiso   1.00
C1073  C     0.81219   0.64448   0.86775   0.00000  Uiso   1.00
C1074  C     0.85628   0.64613   0.79864   0.00000  Uiso   1.00
Cu1075 Cu    0.83333   0.50001   0.88022   0.00000  Uiso   1.00
Cu1076 Cu    0.83333   0.49999   0.78645   0.00000  Uiso   1.00
H1077  H     0.99217   0.49999   0.77870   0.00000  Uiso   1.00
H1078  H     0.80403   0.36608   0.93603   0.00000  Uiso   1.00
H1079  H     0.72500   0.45935   0.69093   0.00000  Uiso   1.00
H1080  H     0.76762   0.42041   0.69595   0.00000  Uiso   1.00
H1081  H     0.93849   0.52543   0.95732   0.00000  Uiso   1.00
H1082  H     0.89722   0.56481   0.93749   0.00000  Uiso   1.00
H1083  H     0.67449   0.50002   0.88797   0.00000  Uiso   1.00
H1084  H     0.87167   0.37258   0.77259   0.00000  Uiso   1.00
H1085  H     0.79500   0.62742   0.89409   0.00000  Uiso   1.00
H1086  H     0.77023   0.45826   0.94763   0.00000  Uiso   1.00
H1087  H     0.89627   0.54144   0.71965   0.00000  Uiso   1.00
H1088  H     0.86279   0.63395   0.73068   0.00000  Uiso   1.00
H1089  H     0.91948   0.63639   0.76744   0.00000  Uiso   1.00
H1090  H     0.74728   0.36360   0.89937   0.00000  Uiso   1.00
N1091  N     0.83335   0.50001   0.95069   0.00000  Uiso   1.00
N1092  N     0.83332   0.49999   0.71597   0.00000  Uiso   1.00
N1093  N     0.88130   0.62564   0.76407   0.00000  Uiso   1.00
N1094  N     0.78545   0.37436   0.90266   0.00000  Uiso   1.00
N1095  N     0.76213   0.45081   0.70600   0.00000  Uiso   1.00
N1096  N     0.91049   0.54567   0.96550   0.00000  Uiso   1.00
O1097  O     0.83333   0.43989   0.87291   0.00000  Uiso   1.00
O1098  O     0.83334   0.56011   0.79375   0.00000  Uiso   1.00
O1099  O     0.83333   0.43988   0.79372   0.00000  Uiso   1.00
O1100  O     0.83334   0.56012   0.87294   0.00000  Uiso   1.00
O1101  O     0.75828   0.50000   0.86379   0.00000  Uiso   1.00
O1102  O     0.90839   0.50000   0.80288   0.00000  Uiso   1.00
O1103  O     0.75828   0.49999   0.78460   0.00000  Uiso   1.00
O1104  O     0.90839   0.50001   0.88207   0.00000  Uiso   1.00
C1105  C     0.16573   0.75411   0.83326   0.00000  Uiso   1.00
C1106  C     0.14373   0.68720   0.86804   0.00000  Uiso   1.00
C1107  C     0.16801   0.95720   0.83322   0.00000  Uiso   1.00
C1108  C     0.16532   0.70947   0.83345   0.00000  Uiso   1.00
C1109  C     0.13171   0.80976   0.68656   0.00000  Uiso   1.00
C1110  C     0.20251   0.85620   0.98111   0.00000  Uiso   1.00
C1111  C     0.13153   0.81022   0.97024   0.00000  Uiso   1.00
C1112  C     0.20145   0.85651   0.69676   0.00000  Uiso   1.00
C1113  C     0.16759   0.91255   0.83340   0.00000  Uiso   1.00
C1114  C     0.06791   0.83330   0.82116   0.00000  Uiso   1.00
C1115  C     0.26542   0.83337   0.84550   0.00000  Uiso   1.00
C1116  C     0.01248   0.83332   0.81458   0.00000  Uiso   1.00
C1117  C     0.32085   0.83335   0.85210   0.00000  Uiso   1.00
C1118  C     0.18781   0.68886   0.79893   0.00000  Uiso   1.00
C1119  C     0.14552   0.97781   0.86775   0.00000  Uiso   1.00
C1120  C     0.18962   0.97947   0.79864   0.00000  Uiso   1.00
Cu1121 Cu    0.16667   0.83334   0.88022   0.00000  Uiso   1.00
Cu1122 Cu    0.16667   0.83333   0.78645   0.00000  Uiso   1.00
H1123  H     0.32550   0.83332   0.77870   0.00000  Uiso   1.00
H1124  H     0.13736   0.69941   0.93603   0.00000  Uiso   1.00
H1125  H     0.05833   0.79268   0.69093   0.00000  Uiso   1.00
H1126  H     0.10096   0.75375   0.69595   0.00000  Uiso   1.00
H1127  H     0.27182   0.85876   0.95732   0.00000  Uiso   1.00
H1128  H     0.23056   0.89814   0.93749   0.00000  Uiso   1.00
H1129  H     0.00783   0.83335   0.88797   0.00000  Uiso   1.00
H1130  H     0.20501   0.70592   0.77259   0.00000  Uiso   1.00
H1131  H     0.12833   0.96075   0.89409   0.00000  Uiso   1.00
H1132  H     0.10357   0.79159   0.94763   0.00000  Uiso   1.00
H1133  H     0.22960   0.87477   0.71965   0.00000  Uiso   1.00
H1134  H     0.19612   0.96728   0.73068   0.00000  Uiso   1.00
H1135  H     0.25281   0.96972   0.76744   0.00000  Uiso   1.00
H1136  H     0.08061   0.69693   0.89937   0.00000  Uiso   1.00
N1137  N     0.16668   0.83334   0.95069   0.00000  Uiso   1.00
N1138  N     0.16665   0.83332   0.71597   0.00000  Uiso   1.00
N1139  N     0.21463   0.95898   0.76407   0.00000  Uiso   1.00
N1140  N     0.11878   0.70769   0.90266   0.00000  Uiso   1.00
N1141  N     0.09547   0.78414   0.70600   0.00000  Uiso   1.00
N1142  N     0.24383   0.87901   0.96550   0.00000  Uiso   1.00
O1143  O     0.16666   0.77322   0.87291   0.00000  Uiso   1.00
O1144  O     0.16667   0.89345   0.79375   0.00000  Uiso   1.00
O1145  O     0.16666   0.77321   0.79372   0.00000  Uiso   1.00
O1146  O     0.16667   0.89346   0.87294   0.00000  Uiso   1.00
O1147  O     0.09161   0.83334   0.86379   0.00000  Uiso   1.00
O1148  O     0.24172   0.83333   0.80288   0.00000  Uiso   1.00
O1149  O     0.09161   0.83333   0.78460   0.00000  Uiso   1.00
O1150  O     0.24172   0.83334   0.88207   0.00000  Uiso   1.00
C1151  C     0.49907   0.75411   0.83326   0.00000  Uiso   1.00
C1152  C     0.47707   0.68720   0.86804   0.00000  Uiso   1.00
C1153  C     0.50134   0.95720   0.83322   0.00000  Uiso   1.00
C1154  C     0.49865   0.70947   0.83345   0.00000  Uiso   1.00
C1155  C     0.46504   0.80976   0.68656   0.00000  Uiso   1.00
C1156  C     0.53584   0.85620   0.98111   0.00000  Uiso   1.00
C1157  C     0.46486   0.81022   0.97024   0.00000  Uiso   1.00
C1158  C     0.53479   0.85651   0.69676   0.00000  Uiso   1.00
C1159  C     0.50092   0.91255   0.83340   0.00000  Uiso   1.00
C1160  C     0.40124   0.83330   0.82116   0.00000  Uiso   1.00
C1161  C     0.59876   0.83337   0.84550   0.00000  Uiso   1.00
C1162  C     0.34582   0.83332   0.81458   0.00000  Uiso   1.00
C1163  C     0.65418   0.83335   0.85210   0.00000  Uiso   1.00
C1164  C     0.52115   0.68886   0.79893   0.00000  Uiso   1.00
C1165  C     0.47885   0.97781   0.86775   0.00000  Uiso   1.00
C1166  C     0.52295   0.97947   0.79864   0.00000  Uiso   1.00
Cu1167 Cu    0.50000   0.83334   0.88022   0.00000  Uiso   1.00
Cu1168 Cu    0.50000   0.83333   0.78645   0.00000  Uiso   1.00
H1169  H     0.65883   0.83332   0.77870   0.00000  Uiso   1.00
H1170  H     0.47070   0.69941   0.93603   0.00000  Uiso   1.00
H1171  H     0.39167   0.79268   0.69093   0.00000  Uiso   1.00
H1172  H     0.43429   0.75375   0.69595   0.00000  Uiso   1.00
H1173  H     0.60516   0.85876   0.95732   0.00000  Uiso   1.00
H1174  H     0.56389   0.89814   0.93749   0.00000  Uiso   1.00
H1175  H     0.34116   0.83335   0.88797   0.00000  Uiso   1.00
H1176  H     0.53834   0.70592   0.77259   0.00000  Uiso   1.00
H1177  H     0.46166   0.96075   0.89409   0.00000  Uiso   1.00
H1178  H     0.43690   0.79159   0.94763   0.00000  Uiso   1.00
H1179  H     0.56293   0.87477   0.71965   0.00000  Uiso   1.00
H1180  H     0.52946   0.96728   0.73068   0.00000  Uiso   1.00
H1181  H     0.58615   0.96972   0.76744   0.00000  Uiso   1.00
H1182  H     0.41394   0.69693   0.89937   0.00000  Uiso   1.00
N1183  N     0.50001   0.83334   0.95069   0.00000  Uiso   1.00
N1184  N     0.49999   0.83332   0.71597   0.00000  Uiso   1.00
N1185  N     0.54796   0.95898   0.76407   0.00000  Uiso   1.00
N1186  N     0.45211   0.70769   0.90266   0.00000  Uiso   1.00
N1187  N     0.42880   0.78414   0.70600   0.00000  Uiso   1.00
N1188  N     0.57716   0.87901   0.96550   0.00000  Uiso   1.00
O1189  O     0.50000   0.77322   0.87291   0.00000  Uiso   1.00
O1190  O     0.50000   0.89345   0.79375   0.00000  Uiso   1.00
O1191  O     0.50000   0.77321   0.79372   0.00000  Uiso   1.00
O1192  O     0.50000   0.89346   0.87294   0.00000  Uiso   1.00
O1193  O     0.42495   0.83334   0.86379   0.00000  Uiso   1.00
O1194  O     0.57505   0.83333   0.80288   0.00000  Uiso   1.00
O1195  O     0.42494   0.83333   0.78460   0.00000  Uiso   1.00
O1196  O     0.57506   0.83334   0.88207   0.00000  Uiso   1.00
C1197  C     0.83240   0.75411   0.83326   0.00000  Uiso   1.00
C1198  C     0.81040   0.68720   0.86804   0.00000  Uiso   1.00
C1199  C     0.83468   0.95720   0.83322   0.00000  Uiso   1.00
C1200  C     0.83199   0.70947   0.83345   0.00000  Uiso   1.00
C1201  C     0.79838   0.80976   0.68656   0.00000  Uiso   1.00
C1202  C     0.86917   0.85620   0.98111   0.00000  Uiso   1.00
C1203  C     0.79820   0.81022   0.97024   0.00000  Uiso   1.00
C1204  C     0.86812   0.85651   0.69676   0.00000  Uiso   1.00
C1205  C     0.83426   0.91255   0.83340   0.00000  Uiso   1.00
C1206  C     0.73458   0.83330   0.82116   0.00000  Uiso   1.00
C1207  C     0.93209   0.83337   0.84550   0.00000  Uiso   1.00
C1208  C     0.67915   0.83332   0.81458   0.00000  Uiso   1.00
C1209  C     0.98752   0.83335   0.85210   0.00000  Uiso   1.00
C1210  C     0.85448   0.68886   0.79893   0.00000  Uiso   1.00
C1211  C     0.81219   0.97781   0.86775   0.00000  Uiso   1.00
C1212  C     0.85628   0.97947   0.79864   0.00000  Uiso   1.00
Cu1213 Cu    0.83333   0.83334   0.88022   0.00000  Uiso   1.00
Cu1214 Cu    0.83333   0.83333   0.78645   0.00000  Uiso   1.00
H1215  H     0.99217   0.83332   0.77870   0.00000  Uiso   1.00
H1216  H     0.80403   0.69941   0.93603   0.00000  Uiso   1.00
H1217  H     0.72500   0.79268   0.69093   0.00000  Uiso   1.00
H1218  H     0.76762   0.75375   0.69595   0.00000  Uiso   1.00
H1219  H     0.93849   0.85876   0.95732   0.00000  Uiso   1.00
H1220  H     0.89722   0.89814   0.93749   0.00000  Uiso   1.00
H1221  H     0.67449   0.83335   0.88797   0.00000  Uiso   1.00
H1222  H     0.87167   0.70592   0.77259   0.00000  Uiso   1.00
H1223  H     0.79500   0.96075   0.89409   0.00000  Uiso   1.00
H1224  H     0.77023   0.79159   0.94763   0.00000  Uiso   1.00
H1225  H     0.89627   0.87477   0.71965   0.00000  Uiso   1.00
H1226  H     0.86279   0.96728   0.73068   0.00000  Uiso   1.00
H1227  H     0.91948   0.96972   0.76744   0.00000  Uiso   1.00
H1228  H     0.74728   0.69693   0.89937   0.00000  Uiso   1.00
N1229  N     0.83335   0.83334   0.95069   0.00000  Uiso   1.00
N1230  N     0.83332   0.83332   0.71597   0.00000  Uiso   1.00
N1231  N     0.88130   0.95898   0.76407   0.00000  Uiso   1.00
N1232  N     0.78545   0.70769   0.90266   0.00000  Uiso   1.00
N1233  N     0.76213   0.78414   0.70600   0.00000  Uiso   1.00
N1234  N     0.91049   0.87901   0.96550   0.00000  Uiso   1.00
O1235  O     0.83333   0.77322   0.87291   0.00000  Uiso   1.00
O1236  O     0.83334   0.89345   0.79375   0.00000  Uiso   1.00
O1237  O     0.83333   0.77321   0.79372   0.00000  Uiso   1.00
O1238  O     0.83334   0.89346   0.87294   0.00000  Uiso   1.00
O1239  O     0.75828   0.83334   0.86379   0.00000  Uiso   1.00
O1240  O     0.90839   0.83333   0.80288   0.00000  Uiso   1.00
O1241  O     0.75828   0.83333   0.78460   0.00000  Uiso   1.00
O1242  O     0.90839   0.83334   0.88207   0.00000  Uiso   1.00
loop_
_geom_bond_atom_site_label_1
_geom_bond_atom_site_label_2
_geom_bond_distance
_geom_bond_site_symmetry_2
_ccdc_geom_bond_type
C1     O39     1.292   .     A
C1     C4      1.450   .     S
C1     O41     1.297   .     A
C2     C4      1.409   .     A
C2     N36     1.434   .     S
C2     C291    1.389   1_545 S
C3     C9      1.450   .     S
C3     C15     1.399   .     A
C3     C16     1.409   .     A
C4     C14     1.399   .     A
C5     N37     1.429   .     S
C5     N34     1.374   .     A
C5     C835    1.424   1_554 S
C6     N33     1.390   .     A
C6     N38     1.429   .     S
C6     C422    1.410   .     S
C7     H28     1.082   .     S
C7     N33     1.364   .     A
C7     C419    1.424   .     S
C8     N34     1.354   .     A
C8     H29     1.083   .     S
C8     C834    1.410   1_554 S
C9     O42     1.297   .     A
C9     O40     1.292   .     A
C10    O45     1.295   .     A
C10    C12     1.436   .     S
C10    O43     1.288   .     A
C11    C13     1.436   .     S
C11    O44     1.288   .     A
C11    O46     1.295   .     A
C12    C105    1.339   1_455 S
C12    H111    1.087   1_455 S
C13    C58     1.339   .     S
C13    H71     1.087   .     S
C14    H26     1.084   .     S
C14    C292    1.389   1_545 S
C15    H27     1.084   .     S
C15    C140    1.389   .     S
C16    N35     1.434   .     S
C16    C152    1.389   .     S
Cu17   O43     1.953   .     S
Cu17   Cu18    2.691   .     S
Cu17   N33     2.022   .     S
Cu17   O46     1.958   .     S
Cu17   O39     1.963   .     S
Cu17   O42     1.964   .     S
Cu18   N34     2.022   .     S
Cu18   O45     1.958   .     S
Cu18   O44     1.953   .     S
Cu18   O41     1.964   .     S
Cu18   O40     1.963   .     S
H19    C58     1.087   .     S
H20    N36     1.046   .     S
H21    N37     1.046   .     S
H22    N37     1.046   .     S
H23    N38     1.043   .     S
H24    N38     1.038   .     S
H25    C105    1.087   1_455 S
H30    N35     1.046   .     S
H31    N35     1.046   .     S
H32    N36     1.046   .     S
C47    O85     1.292   .     A
C47    C50     1.450   .     S
C47    O87     1.297   .     A
C48    C50     1.409   .     A
C48    N82     1.434   .     S
C48    C337    1.389   1_545 S
C49    C55     1.450   .     S
C49    C61     1.399   .     A
C49    C62     1.409   .     A
C50    C60     1.399   .     A
C51    N83     1.429   .     S
C51    N80     1.374   .     A
C51    C881    1.424   1_554 S
C52    N79     1.390   .     A
C52    N84     1.429   .     S
C52    C468    1.410   .     S
C53    H74     1.082   .     S
C53    N79     1.364   .     A
C53    C465    1.424   .     S
C54    N80     1.354   .     A
C54    H75     1.083   .     S
C54    C880    1.410   1_554 S
C55    O88     1.297   .     A
C55    O86     1.292   .     A
C56    O91     1.295   .     A
C56    C58     1.436   .     S
C56    O89     1.288   .     A
C57    C59     1.436   .     S
C57    O90     1.288   .     A
C57    O92     1.295   .     A
C59    C104    1.339   .     S
C59    H117    1.087   .     S
C60    H72     1.084   .     S
C60    C338    1.389   1_545 S
C61    H73     1.084   .     S
C61    C186    1.389   .     S
C62    N81     1.434   .     S
C62    C198    1.389   .     S
Cu63   O89     1.953   .     S
Cu63   Cu64    2.691   .     S
Cu63   N79     2.022   .     S
Cu63   O92     1.958   .     S
Cu63   O85     1.963   .     S
Cu63   O88     1.964   .     S
Cu64   N80     2.022   .     S
Cu64   O91     1.958   .     S
Cu64   O90     1.953   .     S
Cu64   O87     1.964   .     S
Cu64   O86     1.963   .     S
H65    C104    1.087   .     S
H66    N82     1.046   .     S
H67    N83     1.046   .     S
H68    N83     1.046   .     S
H69    N84     1.043   .     S
H70    N84     1.038   .     S
H76    N81     1.046   .     S
H77    N81     1.046   .     S
H78    N82     1.046   .     S
C93    O131    1.292   .     A
C93    C96     1.450   .     S
C93    O133    1.297   .     A
C94    C96     1.409   .     A
C94    N128    1.434   .     S
C94    C383    1.389   1_545 S
C95    C101    1.450   .     S
C95    C107    1.399   .     A
C95    C108    1.409   .     A
C96    C106    1.399   .     A
C97    N129    1.429   .     S
C97    N126    1.374   .     A
C97    C927    1.424   1_554 S
C98    N125    1.390   .     A
C98    N130    1.429   .     S
C98    C514    1.410   .     S
C99    H120    1.082   .     S
C99    N125    1.364   .     A
C99    C511    1.424   .     S
C100   N126    1.354   .     A
C100   H121    1.083   .     S
C100   C926    1.410   1_554 S
C101   O134    1.297   .     A
C101   O132    1.292   .     A
C102   O137    1.295   .     A
C102   C104    1.436   .     S
C102   O135    1.288   .     A
C103   C105    1.436   .     S
C103   O136    1.288   .     A
C103   O138    1.295   .     A
C105   C12     1.339   1_655 S
C105   H25     1.087   1_655 S
C106   H118    1.084   .     S
C106   C384    1.389   1_545 S
C107   H119    1.084   .     S
C107   C232    1.389   .     S
C108   N127    1.434   .     S
C108   C244    1.389   .     S
Cu109  O135    1.953   .     S
Cu109  Cu110   2.691   .     S
Cu109  N125    2.022   .     S
Cu109  O138    1.958   .     S
Cu109  O131    1.963   .     S
Cu109  O134    1.964   .     S
Cu110  N126    2.022   .     S
Cu110  O137    1.958   .     S
Cu110  O136    1.953   .     S
Cu110  O133    1.964   .     S
Cu110  O132    1.963   .     S
H111   C12     1.087   1_655 S
H112   N128    1.046   .     S
H113   N129    1.046   .     S
H114   N129    1.046   .     S
H115   N130    1.043   .     S
H116   N130    1.038   .     S
H122   N127    1.046   .     S
H123   N127    1.046   .     S
H124   N128    1.046   .     S
C139   O177    1.292   .     A
C139   C142    1.450   .     S
C139   O179    1.297   .     A
C140   C142    1.409   .     A
C140   N174    1.434   .     S
C141   C147    1.450   .     S
C141   C153    1.399   .     A
C141   C154    1.409   .     A
C142   C152    1.399   .     A
C143   N175    1.429   .     S
C143   N172    1.374   .     A
C143   C973    1.424   1_554 S
C144   N171    1.390   .     A
C144   N176    1.429   .     S
C144   C560    1.410   .     S
C145   H166    1.082   .     S
C145   N171    1.364   .     A
C145   C557    1.424   .     S
C146   N172    1.354   .     A
C146   H167    1.083   .     S
C146   C972    1.410   1_554 S
C147   O180    1.297   .     A
C147   O178    1.292   .     A
C148   O183    1.295   .     A
C148   C150    1.436   .     S
C148   O181    1.288   .     A
C149   C151    1.436   .     S
C149   O182    1.288   .     A
C149   O184    1.295   .     A
C150   C243    1.339   1_455 S
C150   H249    1.087   1_455 S
C151   C196    1.339   .     S
C151   H209    1.087   .     S
C152   H164    1.084   .     S
C153   H165    1.084   .     S
C153   C278    1.389   .     S
C154   N173    1.434   .     S
C154   C290    1.389   .     S
Cu155  O181    1.953   .     S
Cu155  Cu156   2.691   .     S
Cu155  N171    2.022   .     S
Cu155  O184    1.958   .     S
Cu155  O177    1.963   .     S
Cu155  O180    1.964   .     S
Cu156  N172    2.022   .     S
Cu156  O183    1.958   .     S
Cu156  O182    1.953   .     S
Cu156  O179    1.964   .     S
Cu156  O178    1.963   .     S
H157   C196    1.087   .     S
H158   N174    1.046   .     S
H159   N175    1.046   .     S
H160   N175    1.046   .     S
H161   N176    1.043   .     S
H162   N176    1.038   .     S
H163   C243    1.087   1_455 S
H168   N173    1.046   .     S
H169   N173    1.046   .     S
H170   N174    1.046   .     S
C185   O223    1.292   .     A
C185   C188    1.450   .     S
C185   O225    1.297   .     A
C186   C188    1.409   .     A
C186   N220    1.434   .     S
C187   C193    1.450   .     S
C187   C199    1.399   .     A
C187   C200    1.409   .     A
C188   C198    1.399   .     A
C189   N221    1.429   .     S
C189   N218    1.374   .     A
C189   C1019   1.424   1_554 S
C190   N217    1.390   .     A
C190   N222    1.429   .     S
C190   C606    1.410   .     S
C191   H212    1.082   .     S
C191   N217    1.364   .     A
C191   C603    1.424   .     S
C192   N218    1.354   .     A
C192   H213    1.083   .     S
C192   C1018   1.410   1_554 S
C193   O226    1.297   .     A
C193   O224    1.292   .     A
C194   O229    1.295   .     A
C194   C196    1.436   .     S
C194   O227    1.288   .     A
C195   C197    1.436   .     S
C195   O228    1.288   .     A
C195   O230    1.295   .     A
C197   C242    1.339   .     S
C197   H255    1.087   .     S
C198   H210    1.084   .     S
C199   H211    1.084   .     S
C199   C324    1.389   .     S
C200   N219    1.434   .     S
C200   C336    1.389   .     S
Cu201  O227    1.953   .     S
Cu201  Cu202   2.691   .     S
Cu201  N217    2.022   .     S
Cu201  O230    1.958   .     S
Cu201  O223    1.963   .     S
Cu201  O226    1.964   .     S
Cu202  N218    2.022   .     S
Cu202  O229    1.958   .     S
Cu202  O228    1.953   .     S
Cu202  O225    1.964   .     S
Cu202  O224    1.963   .     S
H203   C242    1.087   .     S
H204   N220    1.046   .     S
H205   N221    1.046   .     S
H206   N221    1.046   .     S
H207   N222    1.043   .     S
H208   N222    1.038   .     S
H214   N219    1.046   .     S
H215   N219    1.046   .     S
H216   N220    1.046   .     S
C231   O269    1.292   .     A
C231   C234    1.450   .     S
C231   O271    1.297   .     A
C232   C234    1.409   .     A
C232   N266    1.434   .     S
C233   C239    1.450   .     S
C233   C245    1.399   .     A
C233   C246    1.409   .     A
C234   C244    1.399   .     A
C235   N267    1.429   .     S
C235   N264    1.374   .     A
C235   C1065   1.424   1_554 S
C236   N263    1.390   .     A
C236   N268    1.429   .     S
C236   C652    1.410   .     S
C237   H258    1.082   .     S
C237   N263    1.364   .     A
C237   C649    1.424   .     S
C238   N264    1.354   .     A
C238   H259    1.083   .     S
C238   C1064   1.410   1_554 S
C239   O272    1.297   .     A
C239   O270    1.292   .     A
C240   O275    1.295   .     A
C240   C242    1.436   .     S
C240   O273    1.288   .     A
C241   C243    1.436   .     S
C241   O274    1.288   .     A
C241   O276    1.295   .     A
C243   C150    1.339   1_655 S
C243   H163    1.087   1_655 S
C244   H256    1.084   .     S
C245   H257    1.084   .     S
C245   C370    1.389   .     S
C246   N265    1.434   .     S
C246   C382    1.389   .     S
Cu247  O273    1.953   .     S
Cu247  Cu248   2.691   .     S
Cu247  N263    2.022   .     S
Cu247  O276    1.958   .     S
Cu247  O269    1.963   .     S
Cu247  O272    1.964   .     S
Cu248  N264    2.022   .     S
Cu248  O275    1.958   .     S
Cu248  O274    1.953   .     S
Cu248  O271    1.964   .     S
Cu248  O270    1.963   .     S
H249   C150    1.087   1_655 S
H250   N266    1.046   .     S
H251   N267    1.046   .     S
H252   N267    1.046   .     S
H253   N268    1.043   .     S
H254   N268    1.038   .     S
H260   N265    1.046   .     S
H261   N265    1.046   .     S
H262   N266    1.046   .     S
C277   O315    1.292   .     A
C277   C280    1.450   .     S
C277   O317    1.297   .     A
C278   C280    1.409   .     A
C278   N312    1.434   .     S
C279   C285    1.450   .     S
C279   C291    1.399   .     A
C279   C292    1.409   .     A
C280   C290    1.399   .     A
C281   N313    1.429   .     S
C281   N310    1.374   .     A
C281   C1111   1.424   1_554 S
C282   N309    1.390   .     A
C282   N314    1.429   .     S
C282   C698    1.410   .     S
C283   H304    1.082   .     S
C283   N309    1.364   .     A
C283   C695    1.424   .     S
C284   N310    1.354   .     A
C284   H305    1.083   .     S
C284   C1110   1.410   1_554 S
C285   O318    1.297   .     A
C285   O316    1.292   .     A
C286   O321    1.295   .     A
C286   C288    1.436   .     S
C286   O319    1.288   .     A
C287   C289    1.436   .     S
C287   O320    1.288   .     A
C287   O322    1.295   .     A
C288   C381    1.339   1_455 S
C288   H387    1.087   1_455 S
C289   C334    1.339   .     S
C289   H347    1.087   .     S
C290   H302    1.084   .     S
C291   H303    1.084   .     S
C291   C2      1.389   1_565 S
C292   N311    1.434   .     S
C292   C14     1.389   1_565 S
Cu293  O319    1.953   .     S
Cu293  Cu294   2.691   .     S
Cu293  N309    2.022   .     S
Cu293  O322    1.958   .     S
Cu293  O315    1.963   .     S
Cu293  O318    1.964   .     S
Cu294  N310    2.022   .     S
Cu294  O321    1.958   .     S
Cu294  O320    1.953   .     S
Cu294  O317    1.964   .     S
Cu294  O316    1.963   .     S
H295   C334    1.087   .     S
H296   N312    1.046   .     S
H297   N313    1.046   .     S
H298   N313    1.046   .     S
H299   N314    1.043   .     S
H300   N314    1.038   .     S
H301   C381    1.087   1_455 S
H306   N311    1.046   .     S
H307   N311    1.046   .     S
H308   N312    1.046   .     S
C323   O361    1.292   .     A
C323   C326    1.450   .     S
C323   O363    1.297   .     A
C324   C326    1.409   .     A
C324   N358    1.434   .     S
C325   C331    1.450   .     S
C325   C337    1.399   .     A
C325   C338    1.409   .     A
C326   C336    1.399   .     A
C327   N359    1.429   .     S
C327   N356    1.374   .     A
C327   C1157   1.424   1_554 S
C328   N355    1.390   .     A
C328   N360    1.429   .     S
C328   C744    1.410   .     S
C329   H350    1.082   .     S
C329   N355    1.364   .     A
C329   C741    1.424   .     S
C330   N356    1.354   .     A
C330   H351    1.083   .     S
C330   C1156   1.410   1_554 S
C331   O364    1.297   .     A
C331   O362    1.292   .     A
C332   O367    1.295   .     A
C332   C334    1.436   .     S
C332   O365    1.288   .     A
C333   C335    1.436   .     S
C333   O366    1.288   .     A
C333   O368    1.295   .     A
C335   C380    1.339   .     S
C335   H393    1.087   .     S
C336   H348    1.084   .     S
C337   H349    1.084   .     S
C337   C48     1.389   1_565 S
C338   N357    1.434   .     S
C338   C60     1.389   1_565 S
Cu339  O365    1.953   .     S
Cu339  Cu340   2.691   .     S
Cu339  N355    2.022   .     S
Cu339  O368    1.958   .     S
Cu339  O361    1.963   .     S
Cu339  O364    1.964   .     S
Cu340  N356    2.022   .     S
Cu340  O367    1.958   .     S
Cu340  O366    1.953   .     S
Cu340  O363    1.964   .     S
Cu340  O362    1.963   .     S
H341   C380    1.087   .     S
H342   N358    1.046   .     S
H343   N359    1.046   .     S
H344   N359    1.046   .     S
H345   N360    1.043   .     S
H346   N360    1.038   .     S
H352   N357    1.046   .     S
H353   N357    1.046   .     S
H354   N358    1.046   .     S
C369   O407    1.292   .     A
C369   C372    1.450   .     S
C369   O409    1.297   .     A
C370   C372    1.409   .     A
C370   N404    1.434   .     S
C371   C377    1.450   .     S
C371   C383    1.399   .     A
C371   C384    1.409   .     A
C372   C382    1.399   .     A
C373   N405    1.429   .     S
C373   N402    1.374   .     A
C373   C1203   1.424   1_554 S
C374   N401    1.390   .     A
C374   N406    1.429   .     S
C374   C790    1.410   .     S
C375   H396    1.082   .     S
C375   N401    1.364   .     A
C375   C787    1.424   .     S
C376   N402    1.354   .     A
C376   H397    1.083   .     S
C376   C1202   1.410   1_554 S
C377   O410    1.297   .     A
C377   O408    1.292   .     A
C378   O413    1.295   .     A
C378   C380    1.436   .     S
C378   O411    1.288   .     A
C379   C381    1.436   .     S
C379   O412    1.288   .     A
C379   O414    1.295   .     A
C381   C288    1.339   1_655 S
C381   H301    1.087   1_655 S
C382   H394    1.084   .     S
C383   H395    1.084   .     S
C383   C94     1.389   1_565 S
C384   N403    1.434   .     S
C384   C106    1.389   1_565 S
Cu385  O411    1.953   .     S
Cu385  Cu386   2.691   .     S
Cu385  N401    2.022   .     S
Cu385  O414    1.958   .     S
Cu385  O407    1.963   .     S
Cu385  O410    1.964   .     S
Cu386  N402    2.022   .     S
Cu386  O413    1.958   .     S
Cu386  O412    1.953   .     S
Cu386  O409    1.964   .     S
Cu386  O408    1.963   .     S
H387   C288    1.087   1_655 S
H388   N404    1.046   .     S
H389   N405    1.046   .     S
H390   N405    1.046   .     S
H391   N406    1.043   .     S
H392   N406    1.038   .     S
H398   N403    1.046   .     S
H399   N403    1.046   .     S
H400   N404    1.046   .     S
C415   O453    1.292   .     A
C415   C418    1.450   .     S
C415   O455    1.297   .     A
C416   C418    1.409   .     A
C416   N450    1.434   .     S
C416   C705    1.389   1_545 S
C417   C423    1.450   .     S
C417   C429    1.399   .     A
C417   C430    1.409   .     A
C418   C428    1.399   .     A
C419   N451    1.429   .     S
C419   N448    1.374   .     A
C420   N447    1.390   .     A
C420   N452    1.429   .     S
C420   C836    1.410   .     S
C421   H442    1.082   .     S
C421   N447    1.364   .     A
C421   C833    1.424   .     S
C422   N448    1.354   .     A
C422   H443    1.083   .     S
C423   O456    1.297   .     A
C423   O454    1.292   .     A
C424   O459    1.295   .     A
C424   C426    1.436   .     S
C424   O457    1.288   .     A
C425   C427    1.436   .     S
C425   O458    1.288   .     A
C425   O460    1.295   .     A
C426   C519    1.339   1_455 S
C426   H525    1.087   1_455 S
C427   C472    1.339   .     S
C427   H485    1.087   .     S
C428   H440    1.084   .     S
C428   C706    1.389   1_545 S
C429   H441    1.084   .     S
C429   C554    1.389   .     S
C430   N449    1.434   .     S
C430   C566    1.389   .     S
Cu431  O457    1.953   .     S
Cu431  Cu432   2.691   .     S
Cu431  N447    2.022   .     S
Cu431  O460    1.958   .     S
Cu431  O453    1.963   .     S
Cu431  O456    1.964   .     S
Cu432  N448    2.022   .     S
Cu432  O459    1.958   .     S
Cu432  O458    1.953   .     S
Cu432  O455    1.964   .     S
Cu432  O454    1.963   .     S
H433   C472    1.087   .     S
H434   N450    1.046   .     S
H435   N451    1.046   .     S
H436   N451    1.046   .     S
H437   N452    1.043   .     S
H438   N452    1.038   .     S
H439   C519    1.087   1_455 S
H444   N449    1.046   .     S
H445   N449    1.046   .     S
H446   N450    1.046   .     S
C461   O499    1.292   .     A
C461   C464    1.450   .     S
C461   O501    1.297   .     A
C462   C464    1.409   .     A
C462   N496    1.434   .     S
C462   C751    1.389   1_545 S
C463   C469    1.450   .     S
C463   C475    1.399   .     A
C463   C476    1.409   .     A
C464   C474    1.399   .     A
C465   N497    1.429   .     S
C465   N494    1.374   .     A
C466   N493    1.390   .     A
C466   N498    1.429   .     S
C466   C882    1.410   .     S
C467   H488    1.082   .     S
C467   N493    1.364   .     A
C467   C879    1.424   .     S
C468   N494    1.354   .     A
C468   H489    1.083   .     S
C469   O502    1.297   .     A
C469   O500    1.292   .     A
C470   O505    1.295   .     A
C470   C472    1.436   .     S
C470   O503    1.288   .     A
C471   C473    1.436   .     S
C471   O504    1.288   .     A
C471   O506    1.295   .     A
C473   C518    1.339   .     S
C473   H531    1.087   .     S
C474   H486    1.084   .     S
C474   C752    1.389   1_545 S
C475   H487    1.084   .     S
C475   C600    1.389   .     S
C476   N495    1.434   .     S
C476   C612    1.389   .     S
Cu477  O503    1.953   .     S
Cu477  Cu478   2.691   .     S
Cu477  N493    2.022   .     S
Cu477  O506    1.958   .     S
Cu477  O499    1.963   .     S
Cu477  O502    1.964   .     S
Cu478  N494    2.022   .     S
Cu478  O505    1.958   .     S
Cu478  O504    1.953   .     S
Cu478  O501    1.964   .     S
Cu478  O500    1.963   .     S
H479   C518    1.087   .     S
H480   N496    1.046   .     S
H481   N497    1.046   .     S
H482   N497    1.046   .     S
H483   N498    1.043   .     S
H484   N498    1.038   .     S
H490   N495    1.046   .     S
H491   N495    1.046   .     S
H492   N496    1.046   .     S
C507   O545    1.292   .     A
C507   C510    1.450   .     S
C507   O547    1.297   .     A
C508   C510    1.409   .     A
C508   N542    1.434   .     S
C508   C797    1.389   1_545 S
C509   C515    1.450   .     S
C509   C521    1.399   .     A
C509   C522    1.409   .     A
C510   C520    1.399   .     A
C511   N543    1.429   .     S
C511   N540    1.374   .     A
C512   N539    1.390   .     A
C512   N544    1.429   .     S
C512   C928    1.410   .     S
C513   H534    1.082   .     S
C513   N539    1.364   .     A
C513   C925    1.424   .     S
C514   N540    1.354   .     A
C514   H535    1.083   .     S
C515   O548    1.297   .     A
C515   O546    1.292   .     A
C516   O551    1.295   .     A
C516   C518    1.436   .     S
C516   O549    1.288   .     A
C517   C519    1.436   .     S
C517   O550    1.288   .     A
C517   O552    1.295   .     A
C519   C426    1.339   1_655 S
C519   H439    1.087   1_655 S
C520   H532    1.084   .     S
C520   C798    1.389   1_545 S
C521   H533    1.084   .     S
C521   C646    1.389   .     S
C522   N541    1.434   .     S
C522   C658    1.389   .     S
Cu523  O549    1.953   .     S
Cu523  Cu524   2.691   .     S
Cu523  N539    2.022   .     S
Cu523  O552    1.958   .     S
Cu523  O545    1.963   .     S
Cu523  O548    1.964   .     S
Cu524  N540    2.022   .     S
Cu524  O551    1.958   .     S
Cu524  O550    1.953   .     S
Cu524  O547    1.964   .     S
Cu524  O546    1.963   .     S
H525   C426    1.087   1_655 S
H526   N542    1.046   .     S
H527   N543    1.046   .     S
H528   N543    1.046   .     S
H529   N544    1.043   .     S
H530   N544    1.038   .     S
H536   N541    1.046   .     S
H537   N541    1.046   .     S
H538   N542    1.046   .     S
C553   O591    1.292   .     A
C553   C556    1.450   .     S
C553   O593    1.297   .     A
C554   C556    1.409   .     A
C554   N588    1.434   .     S
C555   C561    1.450   .     S
C555   C567    1.399   .     A
C555   C568    1.409   .     A
C556   C566    1.399   .     A
C557   N589    1.429   .     S
C557   N586    1.374   .     A
C558   N585    1.390   .     A
C558   N590    1.429   .     S
C558   C974    1.410   .     S
C559   H580    1.082   .     S
C559   N585    1.364   .     A
C559   C971    1.424   .     S
C560   N586    1.354   .     A
C560   H581    1.083   .     S
C561   O594    1.297   .     A
C561   O592    1.292   .     A
C562   O597    1.295   .     A
C562   C564    1.436   .     S
C562   O595    1.288   .     A
C563   C565    1.436   .     S
C563   O596    1.288   .     A
C563   O598    1.295   .     A
C564   C657    1.339   1_455 S
C564   H663    1.087   1_455 S
C565   C610    1.339   .     S
C565   H623    1.087   .     S
C566   H578    1.084   .     S
C567   H579    1.084   .     S
C567   C692    1.389   .     S
C568   N587    1.434   .     S
C568   C704    1.389   .     S
Cu569  O595    1.953   .     S
Cu569  Cu570   2.691   .     S
Cu569  N585    2.022   .     S
Cu569  O598    1.958   .     S
Cu569  O591    1.963   .     S
Cu569  O594    1.964   .     S
Cu570  N586    2.022   .     S
Cu570  O597    1.958   .     S
Cu570  O596    1.953   .     S
Cu570  O593    1.964   .     S
Cu570  O592    1.963   .     S
H571   C610    1.087   .     S
H572   N588    1.046   .     S
H573   N589    1.046   .     S
H574   N589    1.046   .     S
H575   N590    1.043   .     S
H576   N590    1.038   .     S
H577   C657    1.087   1_455 S
H582   N587    1.046   .     S
H583   N587    1.046   .     S
H584   N588    1.046   .     S
C599   O637    1.292   .     A
C599   C602    1.450   .     S
C599   O639    1.297   .     A
C600   C602    1.409   .     A
C600   N634    1.434   .     S
C601   C607    1.450   .     S
C601   C613    1.399   .     A
C601   C614    1.409   .     A
C602   C612    1.399   .     A
C603   N635    1.429   .     S
C603   N632    1.374   .     A
C604   N631    1.390   .     A
C604   N636    1.429   .     S
C604   C1020   1.410   .     S
C605   H626    1.082   .     S
C605   N631    1.364   .     A
C605   C1017   1.424   .     S
C606   N632    1.354   .     A
C606   H627    1.083   .     S
C607   O640    1.297   .     A
C607   O638    1.292   .     A
C608   O643    1.295   .     A
C608   C610    1.436   .     S
C608   O641    1.288   .     A
C609   C611    1.436   .     S
C609   O642    1.288   .     A
C609   O644    1.295   .     A
C611   C656    1.339   .     S
C611   H669    1.087   .     S
C612   H624    1.084   .     S
C613   H625    1.084   .     S
C613   C738    1.389   .     S
C614   N633    1.434   .     S
C614   C750    1.389   .     S
Cu615  O641    1.953   .     S
Cu615  Cu616   2.691   .     S
Cu615  N631    2.022   .     S
Cu615  O644    1.958   .     S
Cu615  O637    1.963   .     S
Cu615  O640    1.964   .     S
Cu616  N632    2.022   .     S
Cu616  O643    1.958   .     S
Cu616  O642    1.953   .     S
Cu616  O639    1.964   .     S
Cu616  O638    1.963   .     S
H617   C656    1.087   .     S
H618   N634    1.046   .     S
H619   N635    1.046   .     S
H620   N635    1.046   .     S
H621   N636    1.043   .     S
H622   N636    1.038   .     S
H628   N633    1.046   .     S
H629   N633    1.046   .     S
H630   N634    1.046   .     S
C645   O683    1.292   .     A
C645   C648    1.450   .     S
C645   O685    1.297   .     A
C646   C648    1.409   .     A
C646   N680    1.434   .     S
C647   C653    1.450   .     S
C647   C659    1.399   .     A
C647   C660    1.409   .     A
C648   C658    1.399   .     A
C649   N681    1.429   .     S
C649   N678    1.374   .     A
C650   N677    1.390   .     A
C650   N682    1.429   .     S
C650   C1066   1.410   .     S
C651   H672    1.082   .     S
C651   N677    1.364   .     A
C651   C1063   1.424   .     S
C652   N678    1.354   .     A
C652   H673    1.083   .     S
C653   O686    1.297   .     A
C653   O684    1.292   .     A
C654   O689    1.295   .     A
C654   C656    1.436   .     S
C654   O687    1.288   .     A
C655   C657    1.436   .     S
C655   O688    1.288   .     A
C655   O690    1.295   .     A
C657   C564    1.339   1_655 S
C657   H577    1.087   1_655 S
C658   H670    1.084   .     S
C659   H671    1.084   .     S
C659   C784    1.389   .     S
C660   N679    1.434   .     S
C660   C796    1.389   .     S
Cu661  O687    1.953   .     S
Cu661  Cu662   2.691   .     S
Cu661  N677    2.022   .     S
Cu661  O690    1.958   .     S
Cu661  O683    1.963   .     S
Cu661  O686    1.964   .     S
Cu662  N678    2.022   .     S
Cu662  O689    1.958   .     S
Cu662  O688    1.953   .     S
Cu662  O685    1.964   .     S
Cu662  O684    1.963   .     S
H663   C564    1.087   1_655 S
H664   N680    1.046   .     S
H665   N681    1.046   .     S
H666   N681    1.046   .     S
H667   N682    1.043   .     S
H668   N682    1.038   .     S
H674   N679    1.046   .     S
H675   N679    1.046   .     S
H676   N680    1.046   .     S
C691   O729    1.292   .     A
C691   C694    1.450   .     S
C691   O731    1.297   .     A
C692   C694    1.409   .     A
C692   N726    1.434   .     S
C693   C699    1.450   .     S
C693   C705    1.399   .     A
C693   C706    1.409   .     A
C694   C704    1.399   .     A
C695   N727    1.429   .     S
C695   N724    1.374   .     A
C696   N723    1.390   .     A
C696   N728    1.429   .     S
C696   C1112   1.410   .     S
C697   H718    1.082   .     S
C697   N723    1.364   .     A
C697   C1109   1.424   .     S
C698   N724    1.354   .     A
C698   H719    1.083   .     S
C699   O732    1.297   .     A
C699   O730    1.292   .     A
C700   O735    1.295   .     A
C700   C702    1.436   .     S
C700   O733    1.288   .     A
C701   C703    1.436   .     S
C701   O734    1.288   .     A
C701   O736    1.295   .     A
C702   C795    1.339   1_455 S
C702   H801    1.087   1_455 S
C703   C748    1.339   .     S
C703   H761    1.087   .     S
C704   H716    1.084   .     S
C705   H717    1.084   .     S
C705   C416    1.389   1_565 S
C706   N725    1.434   .     S
C706   C428    1.389   1_565 S
Cu707  O733    1.953   .     S
Cu707  Cu708   2.691   .     S
Cu707  N723    2.022   .     S
Cu707  O736    1.958   .     S
Cu707  O729    1.963   .     S
Cu707  O732    1.964   .     S
Cu708  N724    2.022   .     S
Cu708  O735    1.958   .     S
Cu708  O734    1.953   .     S
Cu708  O731    1.964   .     S
Cu708  O730    1.963   .     S
H709   C748    1.087   .     S
H710   N726    1.046   .     S
H711   N727    1.046   .     S
H712   N727    1.046   .     S
H713   N728    1.043   .     S
H714   N728    1.038   .     S
H715   C795    1.087   1_455 S
H720   N725    1.046   .     S
H721   N725    1.046   .     S
H722   N726    1.046   .     S
C737   O775    1.292   .     A
C737   C740    1.450   .     S
C737   O777    1.297   .     A
C738   C740    1.409   .     A
C738   N772    1.434   .     S
C739   C745    1.450   .     S
C739   C751    1.399   .     A
C739   C752    1.409   .     A
C740   C750    1.399   .     A
C741   N773    1.429   .     S
C741   N770    1.374   .     A
C742   N769    1.390   .     A
C742   N774    1.429   .     S
C742   C1158   1.410   .     S
C743   H764    1.082   .     S
C743   N769    1.364   .     A
C743   C1155   1.424   .     S
C744   N770    1.354   .     A
C744   H765    1.083   .     S
C745   O778    1.297   .     A
C745   O776    1.292   .     A
C746   O781    1.295   .     A
C746   C748    1.436   .     S
C746   O779    1.288   .     A
C747   C749    1.436   .     S
C747   O780    1.288   .     A
C747   O782    1.295   .     A
C749   C794    1.339   .     S
C749   H807    1.087   .     S
C750   H762    1.084   .     S
C751   H763    1.084   .     S
C751   C462    1.389   1_565 S
C752   N771    1.434   .     S
C752   C474    1.389   1_565 S
Cu753  O779    1.953   .     S
Cu753  Cu754   2.691   .     S
Cu753  N769    2.022   .     S
Cu753  O782    1.958   .     S
Cu753  O775    1.963   .     S
Cu753  O778    1.964   .     S
Cu754  N770    2.022   .     S
Cu754  O781    1.958   .     S
Cu754  O780    1.953   .     S
Cu754  O777    1.964   .     S
Cu754  O776    1.963   .     S
H755   C794    1.087   .     S
H756   N772    1.046   .     S
H757   N773    1.046   .     S
H758   N773    1.046   .     S
H759   N774    1.043   .     S
H760   N774    1.038   .     S
H766   N771    1.046   .     S
H767   N771    1.046   .     S
H768   N772    1.046   .     S
C783   O821    1.292   .     A
C783   C786    1.450   .     S
C783   O823    1.297   .     A
C784   C786    1.409   .     A
C784   N818    1.434   .     S
C785   C791    1.450   .     S
C785   C797    1.399   .     A
C785   C798    1.409   .     A
C786   C796    1.399   .     A
C787   N819    1.429   .     S
C787   N816    1.374   .     A
C788   N815    1.390   .     A
C788   N820    1.429   .     S
C788   C1204   1.410   .     S
C789   H810    1.082   .     S
C789   N815    1.364   .     A
C789   C1201   1.424   .     S
C790   N816    1.354   .     A
C790   H811    1.083   .     S
C791   O824    1.297   .     A
C791   O822    1.292   .     A
C792   O827    1.295   .     A
C792   C794    1.436   .     S
C792   O825    1.288   .     A
C793   C795    1.436   .     S
C793   O826    1.288   .     A
C793   O828    1.295   .     A
C795   C702    1.339   1_655 S
C795   H715    1.087   1_655 S
C796   H808    1.084   .     S
C797   H809    1.084   .     S
C797   C508    1.389   1_565 S
C798   N817    1.434   .     S
C798   C520    1.389   1_565 S
Cu799  O825    1.953   .     S
Cu799  Cu800   2.691   .     S
Cu799  N815    2.022   .     S
Cu799  O828    1.958   .     S
Cu799  O821    1.963   .     S
Cu799  O824    1.964   .     S
Cu800  N816    2.022   .     S
Cu800  O827    1.958   .     S
Cu800  O826    1.953   .     S
Cu800  O823    1.964   .     S
Cu800  O822    1.963   .     S
H801   C702    1.087   1_655 S
H802   N818    1.046   .     S
H803   N819    1.046   .     S
H804   N819    1.046   .     S
H805   N820    1.043   .     S
H806   N820    1.038   .     S
H812   N817    1.046   .     S
H813   N817    1.046   .     S
H814   N818    1.046   .     S
C829   O867    1.292   .     A
C829   C832    1.450   .     S
C829   O869    1.297   .     A
C830   C832    1.409   .     A
C830   N864    1.434   .     S
C830   C1119   1.389   1_545 S
C831   C837    1.450   .     S
C831   C843    1.399   .     A
C831   C844    1.409   .     A
C832   C842    1.399   .     A
C833   N865    1.429   .     S
C833   N862    1.374   .     A
C834   N861    1.390   .     A
C834   N866    1.429   .     S
C834   C8      1.410   1_556 S
C835   H856    1.082   .     S
C835   N861    1.364   .     A
C835   C5      1.424   1_556 S
C836   N862    1.354   .     A
C836   H857    1.083   .     S
C837   O870    1.297   .     A
C837   O868    1.292   .     A
C838   O873    1.295   .     A
C838   C840    1.436   .     S
C838   O871    1.288   .     A
C839   C841    1.436   .     S
C839   O872    1.288   .     A
C839   O874    1.295   .     A
C840   C933    1.339   1_455 S
C840   H939    1.087   1_455 S
C841   C886    1.339   .     S
C841   H899    1.087   .     S
C842   H854    1.084   .     S
C842   C1120   1.389   1_545 S
C843   H855    1.084   .     S
C843   C968    1.389   .     S
C844   N863    1.434   .     S
C844   C980    1.389   .     S
Cu845  O871    1.953   .     S
Cu845  Cu846   2.691   .     S
Cu845  N861    2.022   .     S
Cu845  O874    1.958   .     S
Cu845  O867    1.963   .     S
Cu845  O870    1.964   .     S
Cu846  N862    2.022   .     S
Cu846  O873    1.958   .     S
Cu846  O872    1.953   .     S
Cu846  O869    1.964   .     S
Cu846  O868    1.963   .     S
H847   C886    1.087   .     S
H848   N864    1.046   .     S
H849   N865    1.046   .     S
H850   N865    1.046   .     S
H851   N866    1.043   .     S
H852   N866    1.038   .     S
H853   C933    1.087   1_455 S
H858   N863    1.046   .     S
H859   N863    1.046   .     S
H860   N864    1.046   .     S
C875   O913    1.292   .     A
C875   C878    1.450   .     S
C875   O915    1.297   .     A
C876   C878    1.409   .     A
C876   N910    1.434   .     S
C876   C1165   1.389   1_545 S
C877   C883    1.450   .     S
C877   C889    1.399   .     A
C877   C890    1.409   .     A
C878   C888    1.399   .     A
C879   N911    1.429   .     S
C879   N908    1.374   .     A
C880   N907    1.390   .     A
C880   N912    1.429   .     S
C880   C54     1.410   1_556 S
C881   H902    1.082   .     S
C881   N907    1.364   .     A
C881   C51     1.424   1_556 S
C882   N908    1.354   .     A
C882   H903    1.083   .     S
C883   O916    1.297   .     A
C883   O914    1.292   .     A
C884   O919    1.295   .     A
C884   C886    1.436   .     S
C884   O917    1.288   .     A
C885   C887    1.436   .     S
C885   O918    1.288   .     A
C885   O920    1.295   .     A
C887   C932    1.339   .     S
C887   H945    1.087   .     S
C888   H900    1.084   .     S
C888   C1166   1.389   1_545 S
C889   H901    1.084   .     S
C889   C1014   1.389   .     S
C890   N909    1.434   .     S
C890   C1026   1.389   .     S
Cu891  O917    1.953   .     S
Cu891  Cu892   2.691   .     S
Cu891  N907    2.022   .     S
Cu891  O920    1.958   .     S
Cu891  O913    1.963   .     S
Cu891  O916    1.964   .     S
Cu892  N908    2.022   .     S
Cu892  O919    1.958   .     S
Cu892  O918    1.953   .     S
Cu892  O915    1.964   .     S
Cu892  O914    1.963   .     S
H893   C932    1.087   .     S
H894   N910    1.046   .     S
H895   N911    1.046   .     S
H896   N911    1.046   .     S
H897   N912    1.043   .     S
H898   N912    1.038   .     S
H904   N909    1.046   .     S
H905   N909    1.046   .     S
H906   N910    1.046   .     S
C921   O959    1.292   .     A
C921   C924    1.450   .     S
C921   O961    1.297   .     A
C922   C924    1.409   .     A
C922   N956    1.434   .     S
C922   C1211   1.389   1_545 S
C923   C929    1.450   .     S
C923   C935    1.399   .     A
C923   C936    1.409   .     A
C924   C934    1.399   .     A
C925   N957    1.429   .     S
C925   N954    1.374   .     A
C926   N953    1.390   .     A
C926   N958    1.429   .     S
C926   C100    1.410   1_556 S
C927   H948    1.082   .     S
C927   N953    1.364   .     A
C927   C97     1.424   1_556 S
C928   N954    1.354   .     A
C928   H949    1.083   .     S
C929   O962    1.297   .     A
C929   O960    1.292   .     A
C930   O965    1.295   .     A
C930   C932    1.436   .     S
C930   O963    1.288   .     A
C931   C933    1.436   .     S
C931   O964    1.288   .     A
C931   O966    1.295   .     A
C933   C840    1.339   1_655 S
C933   H853    1.087   1_655 S
C934   H946    1.084   .     S
C934   C1212   1.389   1_545 S
C935   H947    1.084   .     S
C935   C1060   1.389   .     S
C936   N955    1.434   .     S
C936   C1072   1.389   .     S
Cu937  O963    1.953   .     S
Cu937  Cu938   2.691   .     S
Cu937  N953    2.022   .     S
Cu937  O966    1.958   .     S
Cu937  O959    1.963   .     S
Cu937  O962    1.964   .     S
Cu938  N954    2.022   .     S
Cu938  O965    1.958   .     S
Cu938  O964    1.953   .     S
Cu938  O961    1.964   .     S
Cu938  O960    1.963   .     S
H939   C840    1.087   1_655 S
H940   N956    1.046   .     S
H941   N957    1.046   .     S
H942   N957    1.046   .     S
H943   N958    1.043   .     S
H944   N958    1.038   .     S
H950   N955    1.046   .     S
H951   N955    1.046   .     S
H952   N956    1.046   .     S
C967   O1005   1.292   .     A
C967   C970    1.450   .     S
C967   O1007   1.297   .     A
C968   C970    1.409   .     A
C968   N1002   1.434   .     S
C969   C975    1.450   .     S
C969   C981    1.399   .     A
C969   C982    1.409   .     A
C970   C980    1.399   .     A
C971   N1003   1.429   .     S
C971   N1000   1.374   .     A
C972   N999    1.390   .     A
C972   N1004   1.429   .     S
C972   C146    1.410   1_556 S
C973   H994    1.082   .     S
C973   N999    1.364   .     A
C973   C143    1.424   1_556 S
C974   N1000   1.354   .     A
C974   H995    1.083   .     S
C975   O1008   1.297   .     A
C975   O1006   1.292   .     A
C976   O1011   1.295   .     A
C976   C978    1.436   .     S
C976   O1009   1.288   .     A
C977   C979    1.436   .     S
C977   O1010   1.288   .     A
C977   O1012   1.295   .     A
C978   C1071   1.339   1_455 S
C978   H1077   1.087   1_455 S
C979   C1024   1.339   .     S
C979   H1037   1.087   .     S
C980   H992    1.084   .     S
C981   H993    1.084   .     S
C981   C1106   1.389   .     S
C982   N1001   1.434   .     S
C982   C1118   1.389   .     S
Cu983  O1009   1.953   .     S
Cu983  Cu984   2.691   .     S
Cu983  N999    2.022   .     S
Cu983  O1012   1.958   .     S
Cu983  O1005   1.963   .     S
Cu983  O1008   1.964   .     S
Cu984  N1000   2.022   .     S
Cu984  O1011   1.958   .     S
Cu984  O1010   1.953   .     S
Cu984  O1007   1.964   .     S
Cu984  O1006   1.963   .     S
H985   C1024   1.087   .     S
H986   N1002   1.046   .     S
H987   N1003   1.046   .     S
H988   N1003   1.046   .     S
H989   N1004   1.043   .     S
H990   N1004   1.038   .     S
H991   C1071   1.087   1_455 S
H996   N1001   1.046   .     S
H997   N1001   1.046   .     S
H998   N1002   1.046   .     S
C1013  O1051   1.292   .     A
C1013  C1016   1.450   .     S
C1013  O1053   1.297   .     A
C1014  C1016   1.409   .     A
C1014  N1048   1.434   .     S
C1015  C1021   1.450   .     S
C1015  C1027   1.399   .     A
C1015  C1028   1.409   .     A
C1016  C1026   1.399   .     A
C1017  N1049   1.429   .     S
C1017  N1046   1.374   .     A
C1018  N1045   1.390   .     A
C1018  N1050   1.429   .     S
C1018  C192    1.410   1_556 S
C1019  H1040   1.082   .     S
C1019  N1045   1.364   .     A
C1019  C189    1.424   1_556 S
C1020  N1046   1.354   .     A
C1020  H1041   1.083   .     S
C1021  O1054   1.297   .     A
C1021  O1052   1.292   .     A
C1022  O1057   1.295   .     A
C1022  C1024   1.436   .     S
C1022  O1055   1.288   .     A
C1023  C1025   1.436   .     S
C1023  O1056   1.288   .     A
C1023  O1058   1.295   .     A
C1025  C1070   1.339   .     S
C1025  H1083   1.087   .     S
C1026  H1038   1.084   .     S
C1027  H1039   1.084   .     S
C1027  C1152   1.389   .     S
C1028  N1047   1.434   .     S
C1028  C1164   1.389   .     S
Cu1029 O1055   1.953   .     S
Cu1029 Cu1030  2.691   .     S
Cu1029 N1045   2.022   .     S
Cu1029 O1058   1.958   .     S
Cu1029 O1051   1.963   .     S
Cu1029 O1054   1.964   .     S
Cu1030 N1046   2.022   .     S
Cu1030 O1057   1.958   .     S
Cu1030 O1056   1.953   .     S
Cu1030 O1053   1.964   .     S
Cu1030 O1052   1.963   .     S
H1031  C1070   1.087   .     S
H1032  N1048   1.046   .     S
H1033  N1049   1.046   .     S
H1034  N1049   1.046   .     S
H1035  N1050   1.043   .     S
H1036  N1050   1.038   .     S
H1042  N1047   1.046   .     S
H1043  N1047   1.046   .     S
H1044  N1048   1.046   .     S
C1059  O1097   1.292   .     A
C1059  C1062   1.450   .     S
C1059  O1099   1.297   .     A
C1060  C1062   1.409   .     A
C1060  N1094   1.434   .     S
C1061  C1067   1.450   .     S
C1061  C1073   1.399   .     A
C1061  C1074   1.409   .     A
C1062  C1072   1.399   .     A
C1063  N1095   1.429   .     S
C1063  N1092   1.374   .     A
C1064  N1091   1.390   .     A
C1064  N1096   1.429   .     S
C1064  C238    1.410   1_556 S
C1065  H1086   1.082   .     S
C1065  N1091   1.364   .     A
C1065  C235    1.424   1_556 S
C1066  N1092   1.354   .     A
C1066  H1087   1.083   .     S
C1067  O1100   1.297   .     A
C1067  O1098   1.292   .     A
C1068  O1103   1.295   .     A
C1068  C1070   1.436   .     S
C1068  O1101   1.288   .     A
C1069  C1071   1.436   .     S
C1069  O1102   1.288   .     A
C1069  O1104   1.295   .     A
C1071  C978    1.339   1_655 S
C1071  H991    1.087   1_655 S
C1072  H1084   1.084   .     S
C1073  H1085   1.084   .     S
C1073  C1198   1.389   .     S
C1074  N1093   1.434   .     S
C1074  C1210   1.389   .     S
Cu1075 O1101   1.953   .     S
Cu1075 Cu1076  2.691   .     S
Cu1075 N1091   2.022   .     S
Cu1075 O1104   1.958   .     S
Cu1075 O1097   1.963   .     S
Cu1075 O1100   1.964   .     S
Cu1076 N1092   2.022   .     S
Cu1076 O1103   1.958   .     S
Cu1076 O1102   1.953   .     S
Cu1076 O1099   1.964   .     S
Cu1076 O1098   1.963   .     S
H1077  C978    1.087   1_655 S
H1078  N1094   1.046   .     S
H1079  N1095   1.046   .     S
H1080  N1095   1.046   .     S
H1081  N1096   1.043   .     S
H1082  N1096   1.038   .     S
H1088  N1093   1.046   .     S
H1089  N1093   1.046   .     S
H1090  N1094   1.046   .     S
C1105  O1143   1.292   .     A
C1105  C1108   1.450   .     S
C1105  O1145   1.297   .     A
C1106  C1108   1.409   .     A
C1106  N1140   1.434   .     S
C1107  C1113   1.450   .     S
C1107  C1119   1.399   .     A
C1107  C1120   1.409   .     A
C1108  C1118   1.399   .     A
C1109  N1141   1.429   .     S
C1109  N1138   1.374   .     A
C1110  N1137   1.390   .     A
C1110  N1142   1.429   .     S
C1110  C284    1.410   1_556 S
C1111  H1132   1.082   .     S
C1111  N1137   1.364   .     A
C1111  C281    1.424   1_556 S
C1112  N1138   1.354   .     A
C1112  H1133   1.083   .     S
C1113  O1146   1.297   .     A
C1113  O1144   1.292   .     A
C1114  O1149   1.295   .     A
C1114  C1116   1.436   .     S
C1114  O1147   1.288   .     A
C1115  C1117   1.436   .     S
C1115  O1148   1.288   .     A
C1115  O1150   1.295   .     A
C1116  C1209   1.339   1_455 S
C1116  H1215   1.087   1_455 S
C1117  C1162   1.339   .     S
C1117  H1175   1.087   .     S
C1118  H1130   1.084   .     S
C1119  H1131   1.084   .     S
C1119  C830    1.389   1_565 S
C1120  N1139   1.434   .     S
C1120  C842    1.389   1_565 S
Cu1121 O1147   1.953   .     S
Cu1121 Cu1122  2.691   .     S
Cu1121 N1137   2.022   .     S
Cu1121 O1150   1.958   .     S
Cu1121 O1143   1.963   .     S
Cu1121 O1146   1.964   .     S
Cu1122 N1138   2.022   .     S
Cu1122 O1149   1.958   .     S
Cu1122 O1148   1.953   .     S
Cu1122 O1145   1.964   .     S
Cu1122 O1144   1.963   .     S
H1123  C1162   1.087   .     S
H1124  N1140   1.046   .     S
H1125  N1141   1.046   .     S
H1126  N1141   1.046   .     S
H1127  N1142   1.043   .     S
H1128  N1142   1.038   .     S
H1129  C1209   1.087   1_455 S
H1134  N1139   1.046   .     S
H1135  N1139   1.046   .     S
H1136  N1140   1.046   .     S
C1151  O1189   1.292   .     A
C1151  C1154   1.450   .     S
C1151  O1191   1.297   .     A
C1152  C1154   1.409   .     A
C1152  N1186   1.434   .     S
C1153  C1159   1.450   .     S
C1153  C1165   1.399   .     A
C1153  C1166   1.409   .     A
C1154  C1164   1.399   .     A
C1155  N1187   1.429   .     S
C1155  N1184   1.374   .     A
C1156  N1183   1.390   .     A
C1156  N1188   1.429   .     S
C1156  C330    1.410   1_556 S
C1157  H1178   1.082   .     S
C1157  N1183   1.364   .     A
C1157  C327    1.424   1_556 S
C1158  N1184   1.354   .     A
C1158  H1179   1.083   .     S
C1159  O1192   1.297   .     A
C1159  O1190   1.292   .     A
C1160  O1195   1.295   .     A
C1160  C1162   1.436   .     S
C1160  O1193   1.288   .     A
C1161  C1163   1.436   .     S
C1161  O1194   1.288   .     A
C1161  O1196   1.295   .     A
C1163  C1208   1.339   .     S
C1163  H1221   1.087   .     S
C1164  H1176   1.084   .     S
C1165  H1177   1.084   .     S
C1165  C876    1.389   1_565 S
C1166  N1185   1.434   .     S
C1166  C888    1.389   1_565 S
Cu1167 O1193   1.953   .     S
Cu1167 Cu1168  2.691   .     S
Cu1167 N1183   2.022   .     S
Cu1167 O1196   1.958   .     S
Cu1167 O1189   1.963   .     S
Cu1167 O1192   1.964   .     S
Cu1168 N1184   2.022   .     S
Cu1168 O1195   1.958   .     S
Cu1168 O1194   1.953   .     S
Cu1168 O1191   1.964   .     S
Cu1168 O1190   1.963   .     S
H1169  C1208   1.087   .     S
H1170  N1186   1.046   .     S
H1171  N1187   1.046   .     S
H1172  N1187   1.046   .     S
H1173  N1188   1.043   .     S
H1174  N1188   1.038   .     S
H1180  N1185   1.046   .     S
H1181  N1185   1.046   .     S
H1182  N1186   1.046   .     S
C1197  O1235   1.292   .     A
C1197  C1200   1.450   .     S
C1197  O1237   1.297   .     A
C1198  C1200   1.409   .     A
C1198  N1232   1.434   .     S
C1199  C1205   1.450   .     S
C1199  C1211   1.399   .     A
C1199  C1212   1.409   .     A
C1200  C1210   1.399   .     A
C1201  N1233   1.429   .     S
C1201  N1230   1.374   .     A
C1202  N1229   1.390   .     A
C1202  N1234   1.429   .     S
C1202  C376    1.410   1_556 S
C1203  H1224   1.082   .     S
C1203  N1229   1.364   .     A
C1203  C373    1.424   1_556 S
C1204  N1230   1.354   .     A
C1204  H1225   1.083   .     S
C1205  O1238   1.297   .     A
C1205  O1236   1.292   .     A
C1206  O1241   1.295   .     A
C1206  C1208   1.436   .     S
C1206  O1239   1.288   .     A
C1207  C1209   1.436   .     S
C1207  O1240   1.288   .     A
C1207  O1242   1.295   .     A
C1209  C1116   1.339   1_655 S
C1209  H1129   1.087   1_655 S
C1210  H1222   1.084   .     S
C1211  H1223   1.084   .     S
C1211  C922    1.389   1_565 S
C1212  N1231   1.434   .     S
C1212  C934    1.389   1_565 S
Cu1213 O1239   1.953   .     S
Cu1213 Cu1214  2.691   .     S
Cu1213 N1229   2.022   .     S
Cu1213 O1242   1.958   .     S
Cu1213 O1235   1.963   .     S
Cu1213 O1238   1.964   .     S
Cu1214 N1230   2.022   .     S
Cu1214 O1241   1.958   .     S
Cu1214 O1240   1.953   .     S
Cu1214 O1237   1.964   .     S
Cu1214 O1236   1.963   .     S
H1215  C1116   1.087   1_655 S
H1216  N1232   1.046   .     S
H1217  N1233   1.046   .     S
H1218  N1233   1.046   .     S
H1219  N1234   1.043   .     S
H1220  N1234   1.038   .     S
H1226  N1231   1.046   .     S
H1227  N1231   1.046   .     S
H1228  N1232   1.046   .     S
