data_str_m2_o1_o16_pcu_sym.90
_audit_creation_date              2020-01-03
_audit_creation_method            'Materials Studio'
_symmetry_space_group_name_H-M    'P1'
_symmetry_Int_Tables_number       1
_symmetry_cell_setting            triclinic
loop_
_symmetry_equiv_pos_as_xyz
  x,y,z
_cell_length_a                    28.5414
_cell_length_b                    32.5021
_cell_length_c                    26.7957
_cell_angle_alpha                 90.1636
_cell_angle_beta                  72.5531
_cell_angle_gamma                 89.9939
loop_
_atom_site_label
_atom_site_type_symbol
_atom_site_fract_x
_atom_site_fract_y
_atom_site_fract_z
_atom_site_U_iso_or_equiv
_atom_site_adp_type
_atom_site_occupancy
C1     C     0.16666   0.24598   0.25008   0.00000  Uiso   1.00
C2     C     0.12372   0.17116   0.40795   0.00000  Uiso   1.00
C3     C     0.20903   0.31204   0.25078   0.00000  Uiso   1.00
C4     C     0.14035   0.16866   0.35024   0.00000  Uiso   1.00
C5     C     0.20905   0.02128   0.25071   0.00000  Uiso   1.00
C6     C     0.16666   0.04273   0.25003   0.00000  Uiso   1.00
C7     C     0.12425   0.02128   0.24945   0.00000  Uiso   1.00
C8     C     0.12423   0.31204   0.24951   0.00000  Uiso   1.00
C9     C     0.16663   0.29059   0.25014   0.00000  Uiso   1.00
C10    C     0.30029   0.19439   0.27953   0.00000  Uiso   1.00
C11    C     0.01646   0.19421   0.27981   0.00000  Uiso   1.00
C12    C     0.14154   0.17746   0.49164   0.00000  Uiso   1.00
C13    C     0.03326   0.13928   0.21989   0.00000  Uiso   1.00
C14    C     0.31695   0.13924   0.21998   0.00000  Uiso   1.00
C15    C     0.16666   0.08735   0.24999   0.00000  Uiso   1.00
C16    C     0.19289   0.16738   0.14988   0.00000  Uiso   1.00
C17    C     0.25980   0.20725   0.01610   0.00000  Uiso   1.00
C18    C     0.20749   0.17416   0.09338   0.00000  Uiso   1.00
C19    C     0.07630   0.15739   0.43462   0.00000  Uiso   1.00
C20    C     0.05993   0.15698   0.48883   0.00000  Uiso   1.00
C21    C     0.09160   0.16714   0.01793   0.00000  Uiso   1.00
C22    C     0.15492   0.18490   0.43698   0.00000  Uiso   1.00
C23    C     0.17851   0.18202   0.01717   0.00000  Uiso   1.00
C24    C     0.22364   0.20160   0.49089   0.00000  Uiso   1.00
C25    C     0.23204   0.21548   0.43987   0.00000  Uiso   1.00
C26    C     0.19828   0.20714   0.41324   0.00000  Uiso   1.00
C27    C     0.17317   0.16585   0.06696   0.00000  Uiso   1.00
C28    C     0.25138   0.19424   0.06753   0.00000  Uiso   1.00
Cu29   Cu    0.11978   0.16666   0.25000   0.00000  Uiso   1.00
Cu30   Cu    0.21355   0.16667   0.25000   0.00000  Uiso   1.00
H31    H     0.27838   0.20093   0.08748   0.00000  Uiso   1.00
H32    H     0.29407   0.22256   0.49642   0.00000  Uiso   1.00
H33    H     0.14281   0.14611   0.08605   0.00000  Uiso   1.00
H34    H     0.05132   0.14744   0.41351   0.00000  Uiso   1.00
H35    H     0.02217   0.14864   0.00856   0.00000  Uiso   1.00
H36    H     0.20571   0.21975   0.37448   0.00000  Uiso   1.00
H37    H     0.24216   0.29603   0.25134   0.00000  Uiso   1.00
H38    H     0.05472   0.14340   0.08843   0.00000  Uiso   1.00
H39    H     0.04320   0.19362   0.08094   0.00000  Uiso   1.00
H40    H     0.24219   0.03729   0.25119   0.00000  Uiso   1.00
H41    H     0.09111   0.03729   0.24890   0.00000  Uiso   1.00
H42    H     0.09109   0.29603   0.24903   0.00000  Uiso   1.00
H43    H     0.27524   0.21693   0.30272   0.00000  Uiso   1.00
H44    H     0.02845   0.21627   0.30371   0.00000  Uiso   1.00
H45    H     0.05875   0.11737   0.19573   0.00000  Uiso   1.00
H46    H     0.30500   0.11730   0.19591   0.00000  Uiso   1.00
H47    H     0.26537   0.23202   0.42001   0.00000  Uiso   1.00
N48    N     0.04931   0.16666   0.24998   0.00000  Uiso   1.00
N49    N     0.28402   0.16669   0.24999   0.00000  Uiso   1.00
N50    N     0.07096   0.17139   0.07348   0.00000  Uiso   1.00
O51    O     0.12708   0.22678   0.25000   0.00000  Uiso   1.00
O52    O     0.20627   0.22679   0.25000   0.00000  Uiso   1.00
O53    O     0.10775   0.16665   0.32549   0.00000  Uiso   1.00
O54    O     0.18694   0.16666   0.32549   0.00000  Uiso   1.00
O55    O     0.12706   0.10654   0.24999   0.00000  Uiso   1.00
O56    O     0.20625   0.10655   0.24999   0.00000  Uiso   1.00
O57    O     0.14640   0.16667   0.17451   0.00000  Uiso   1.00
O58    O     0.22559   0.16668   0.17451   0.00000  Uiso   1.00
C59    C     0.49999   0.24598   0.25008   0.00000  Uiso   1.00
C60    C     0.45706   0.17116   0.40795   0.00000  Uiso   1.00
C61    C     0.54236   0.31204   0.25078   0.00000  Uiso   1.00
C62    C     0.47368   0.16866   0.35024   0.00000  Uiso   1.00
C63    C     0.54238   0.02128   0.25071   0.00000  Uiso   1.00
C64    C     0.49999   0.04273   0.25003   0.00000  Uiso   1.00
C65    C     0.45758   0.02128   0.24945   0.00000  Uiso   1.00
C66    C     0.45757   0.31204   0.24951   0.00000  Uiso   1.00
C67    C     0.49997   0.29059   0.25014   0.00000  Uiso   1.00
C68    C     0.63362   0.19439   0.27953   0.00000  Uiso   1.00
C69    C     0.34980   0.19421   0.27981   0.00000  Uiso   1.00
C70    C     0.47488   0.17746   0.49164   0.00000  Uiso   1.00
C71    C     0.36659   0.13928   0.21989   0.00000  Uiso   1.00
C72    C     0.65028   0.13924   0.21998   0.00000  Uiso   1.00
C73    C     0.49999   0.08735   0.24999   0.00000  Uiso   1.00
C74    C     0.52622   0.16738   0.14988   0.00000  Uiso   1.00
C75    C     0.59313   0.20725   0.01610   0.00000  Uiso   1.00
C76    C     0.54082   0.17416   0.09338   0.00000  Uiso   1.00
C77    C     0.40963   0.15739   0.43462   0.00000  Uiso   1.00
C78    C     0.39326   0.15698   0.48883   0.00000  Uiso   1.00
C79    C     0.42493   0.16714   0.01793   0.00000  Uiso   1.00
C80    C     0.48825   0.18490   0.43698   0.00000  Uiso   1.00
C81    C     0.51184   0.18202   0.01717   0.00000  Uiso   1.00
C82    C     0.55697   0.20160   0.49089   0.00000  Uiso   1.00
C83    C     0.56537   0.21548   0.43987   0.00000  Uiso   1.00
C84    C     0.53161   0.20714   0.41324   0.00000  Uiso   1.00
C85    C     0.50651   0.16585   0.06696   0.00000  Uiso   1.00
C86    C     0.58471   0.19424   0.06753   0.00000  Uiso   1.00
Cu87   Cu    0.45311   0.16666   0.25000   0.00000  Uiso   1.00
Cu88   Cu    0.54689   0.16667   0.25000   0.00000  Uiso   1.00
H89    H     0.61171   0.20093   0.08748   0.00000  Uiso   1.00
H90    H     0.62740   0.22256   0.49642   0.00000  Uiso   1.00
H91    H     0.47614   0.14611   0.08605   0.00000  Uiso   1.00
H92    H     0.38466   0.14744   0.41351   0.00000  Uiso   1.00
H93    H     0.35550   0.14864   0.00856   0.00000  Uiso   1.00
H94    H     0.53905   0.21975   0.37448   0.00000  Uiso   1.00
H95    H     0.57549   0.29603   0.25134   0.00000  Uiso   1.00
H96    H     0.38805   0.14340   0.08843   0.00000  Uiso   1.00
H97    H     0.37654   0.19362   0.08094   0.00000  Uiso   1.00
H98    H     0.57553   0.03729   0.25119   0.00000  Uiso   1.00
H99    H     0.42445   0.03729   0.24890   0.00000  Uiso   1.00
H100   H     0.42442   0.29603   0.24903   0.00000  Uiso   1.00
H101   H     0.60857   0.21693   0.30272   0.00000  Uiso   1.00
H102   H     0.36178   0.21627   0.30371   0.00000  Uiso   1.00
H103   H     0.39208   0.11737   0.19573   0.00000  Uiso   1.00
H104   H     0.63834   0.11730   0.19591   0.00000  Uiso   1.00
H105   H     0.59871   0.23202   0.42001   0.00000  Uiso   1.00
N106   N     0.38265   0.16666   0.24998   0.00000  Uiso   1.00
N107   N     0.61735   0.16669   0.24999   0.00000  Uiso   1.00
N108   N     0.40430   0.17139   0.07348   0.00000  Uiso   1.00
O109   O     0.46042   0.22678   0.25000   0.00000  Uiso   1.00
O110   O     0.53961   0.22679   0.25000   0.00000  Uiso   1.00
O111   O     0.44108   0.16665   0.32549   0.00000  Uiso   1.00
O112   O     0.52027   0.16666   0.32549   0.00000  Uiso   1.00
O113   O     0.46039   0.10654   0.24999   0.00000  Uiso   1.00
O114   O     0.53958   0.10655   0.24999   0.00000  Uiso   1.00
O115   O     0.47973   0.16667   0.17451   0.00000  Uiso   1.00
O116   O     0.55892   0.16668   0.17451   0.00000  Uiso   1.00
C117   C     0.83332   0.24598   0.25008   0.00000  Uiso   1.00
C118   C     0.79039   0.17116   0.40795   0.00000  Uiso   1.00
C119   C     0.87569   0.31204   0.25078   0.00000  Uiso   1.00
C120   C     0.80701   0.16866   0.35024   0.00000  Uiso   1.00
C121   C     0.87571   0.02128   0.25071   0.00000  Uiso   1.00
C122   C     0.83332   0.04273   0.25003   0.00000  Uiso   1.00
C123   C     0.79092   0.02128   0.24945   0.00000  Uiso   1.00
C124   C     0.79090   0.31204   0.24951   0.00000  Uiso   1.00
C125   C     0.83330   0.29059   0.25014   0.00000  Uiso   1.00
C126   C     0.96696   0.19439   0.27953   0.00000  Uiso   1.00
C127   C     0.68313   0.19421   0.27981   0.00000  Uiso   1.00
C128   C     0.80821   0.17746   0.49164   0.00000  Uiso   1.00
C129   C     0.69993   0.13928   0.21989   0.00000  Uiso   1.00
C130   C     0.98361   0.13924   0.21998   0.00000  Uiso   1.00
C131   C     0.83333   0.08735   0.24999   0.00000  Uiso   1.00
C132   C     0.85955   0.16738   0.14988   0.00000  Uiso   1.00
C133   C     0.92646   0.20725   0.01610   0.00000  Uiso   1.00
C134   C     0.87415   0.17416   0.09338   0.00000  Uiso   1.00
C135   C     0.74297   0.15739   0.43462   0.00000  Uiso   1.00
C136   C     0.72659   0.15698   0.48883   0.00000  Uiso   1.00
C137   C     0.75826   0.16714   0.01793   0.00000  Uiso   1.00
C138   C     0.82159   0.18490   0.43698   0.00000  Uiso   1.00
C139   C     0.84518   0.18202   0.01717   0.00000  Uiso   1.00
C140   C     0.89030   0.20160   0.49089   0.00000  Uiso   1.00
C141   C     0.89871   0.21548   0.43987   0.00000  Uiso   1.00
C142   C     0.86494   0.20714   0.41324   0.00000  Uiso   1.00
C143   C     0.83984   0.16585   0.06696   0.00000  Uiso   1.00
C144   C     0.91805   0.19424   0.06753   0.00000  Uiso   1.00
Cu145  Cu    0.78645   0.16666   0.25000   0.00000  Uiso   1.00
Cu146  Cu    0.88022   0.16667   0.25000   0.00000  Uiso   1.00
H147   H     0.94504   0.20093   0.08748   0.00000  Uiso   1.00
H148   H     0.96074   0.22256   0.49642   0.00000  Uiso   1.00
H149   H     0.80947   0.14611   0.08605   0.00000  Uiso   1.00
H150   H     0.71799   0.14744   0.41351   0.00000  Uiso   1.00
H151   H     0.68883   0.14864   0.00856   0.00000  Uiso   1.00
H152   H     0.87238   0.21975   0.37448   0.00000  Uiso   1.00
H153   H     0.90882   0.29603   0.25134   0.00000  Uiso   1.00
H154   H     0.72139   0.14340   0.08843   0.00000  Uiso   1.00
H155   H     0.70987   0.19362   0.08094   0.00000  Uiso   1.00
H156   H     0.90886   0.03729   0.25119   0.00000  Uiso   1.00
H157   H     0.75778   0.03729   0.24890   0.00000  Uiso   1.00
H158   H     0.75775   0.29603   0.24903   0.00000  Uiso   1.00
H159   H     0.94190   0.21693   0.30272   0.00000  Uiso   1.00
H160   H     0.69512   0.21627   0.30371   0.00000  Uiso   1.00
H161   H     0.72541   0.11737   0.19573   0.00000  Uiso   1.00
H162   H     0.97167   0.11730   0.19591   0.00000  Uiso   1.00
H163   H     0.93204   0.23202   0.42001   0.00000  Uiso   1.00
N164   N     0.71598   0.16666   0.24998   0.00000  Uiso   1.00
N165   N     0.95069   0.16669   0.24999   0.00000  Uiso   1.00
N166   N     0.73763   0.17139   0.07348   0.00000  Uiso   1.00
O167   O     0.79375   0.22678   0.25000   0.00000  Uiso   1.00
O168   O     0.87294   0.22679   0.25000   0.00000  Uiso   1.00
O169   O     0.77441   0.16665   0.32549   0.00000  Uiso   1.00
O170   O     0.85360   0.16666   0.32549   0.00000  Uiso   1.00
O171   O     0.79373   0.10654   0.24999   0.00000  Uiso   1.00
O172   O     0.87292   0.10655   0.24999   0.00000  Uiso   1.00
O173   O     0.81306   0.16667   0.17451   0.00000  Uiso   1.00
O174   O     0.89225   0.16668   0.17451   0.00000  Uiso   1.00
C175   C     0.16666   0.57931   0.25008   0.00000  Uiso   1.00
C176   C     0.12372   0.50449   0.40795   0.00000  Uiso   1.00
C177   C     0.20903   0.64538   0.25078   0.00000  Uiso   1.00
C178   C     0.14035   0.50200   0.35024   0.00000  Uiso   1.00
C179   C     0.20905   0.35461   0.25071   0.00000  Uiso   1.00
C180   C     0.16666   0.37607   0.25003   0.00000  Uiso   1.00
C181   C     0.12425   0.35461   0.24945   0.00000  Uiso   1.00
C182   C     0.12423   0.64538   0.24951   0.00000  Uiso   1.00
C183   C     0.16663   0.62392   0.25014   0.00000  Uiso   1.00
C184   C     0.30029   0.52773   0.27953   0.00000  Uiso   1.00
C185   C     0.01646   0.52754   0.27981   0.00000  Uiso   1.00
C186   C     0.14154   0.51079   0.49164   0.00000  Uiso   1.00
C187   C     0.03326   0.47261   0.21989   0.00000  Uiso   1.00
C188   C     0.31695   0.47257   0.21998   0.00000  Uiso   1.00
C189   C     0.16666   0.42068   0.24999   0.00000  Uiso   1.00
C190   C     0.19289   0.50071   0.14988   0.00000  Uiso   1.00
C191   C     0.25980   0.54058   0.01610   0.00000  Uiso   1.00
C192   C     0.20749   0.50749   0.09338   0.00000  Uiso   1.00
C193   C     0.07630   0.49072   0.43462   0.00000  Uiso   1.00
C194   C     0.05993   0.49031   0.48883   0.00000  Uiso   1.00
C195   C     0.09160   0.50048   0.01793   0.00000  Uiso   1.00
C196   C     0.15492   0.51824   0.43698   0.00000  Uiso   1.00
C197   C     0.17851   0.51535   0.01717   0.00000  Uiso   1.00
C198   C     0.22364   0.53493   0.49089   0.00000  Uiso   1.00
C199   C     0.23204   0.54881   0.43987   0.00000  Uiso   1.00
C200   C     0.19828   0.54048   0.41324   0.00000  Uiso   1.00
C201   C     0.17317   0.49919   0.06696   0.00000  Uiso   1.00
C202   C     0.25138   0.52757   0.06753   0.00000  Uiso   1.00
Cu203  Cu    0.11978   0.49999   0.25000   0.00000  Uiso   1.00
Cu204  Cu    0.21355   0.50001   0.25000   0.00000  Uiso   1.00
H205   H     0.27838   0.53426   0.08748   0.00000  Uiso   1.00
H206   H     0.29407   0.55590   0.49642   0.00000  Uiso   1.00
H207   H     0.14281   0.47945   0.08605   0.00000  Uiso   1.00
H208   H     0.05132   0.48078   0.41351   0.00000  Uiso   1.00
H209   H     0.02217   0.48197   0.00856   0.00000  Uiso   1.00
H210   H     0.20571   0.55308   0.37448   0.00000  Uiso   1.00
H211   H     0.24216   0.62937   0.25134   0.00000  Uiso   1.00
H212   H     0.05472   0.47673   0.08843   0.00000  Uiso   1.00
H213   H     0.04320   0.52695   0.08094   0.00000  Uiso   1.00
H214   H     0.24219   0.37062   0.25119   0.00000  Uiso   1.00
H215   H     0.09111   0.37062   0.24890   0.00000  Uiso   1.00
H216   H     0.09109   0.62937   0.24903   0.00000  Uiso   1.00
H217   H     0.27524   0.55026   0.30272   0.00000  Uiso   1.00
H218   H     0.02845   0.54960   0.30371   0.00000  Uiso   1.00
H219   H     0.05875   0.45070   0.19573   0.00000  Uiso   1.00
H220   H     0.30500   0.45063   0.19591   0.00000  Uiso   1.00
H221   H     0.26537   0.56535   0.42001   0.00000  Uiso   1.00
N222   N     0.04931   0.49999   0.24998   0.00000  Uiso   1.00
N223   N     0.28402   0.50002   0.24999   0.00000  Uiso   1.00
N224   N     0.07096   0.50473   0.07348   0.00000  Uiso   1.00
O225   O     0.12708   0.56011   0.25000   0.00000  Uiso   1.00
O226   O     0.20627   0.56012   0.25000   0.00000  Uiso   1.00
O227   O     0.10775   0.49998   0.32549   0.00000  Uiso   1.00
O228   O     0.18694   0.49999   0.32549   0.00000  Uiso   1.00
O229   O     0.12706   0.43988   0.24999   0.00000  Uiso   1.00
O230   O     0.20625   0.43989   0.24999   0.00000  Uiso   1.00
O231   O     0.14640   0.50001   0.17451   0.00000  Uiso   1.00
O232   O     0.22559   0.50002   0.17451   0.00000  Uiso   1.00
C233   C     0.49999   0.57931   0.25008   0.00000  Uiso   1.00
C234   C     0.45706   0.50449   0.40795   0.00000  Uiso   1.00
C235   C     0.54236   0.64538   0.25078   0.00000  Uiso   1.00
C236   C     0.47368   0.50200   0.35024   0.00000  Uiso   1.00
C237   C     0.54238   0.35461   0.25071   0.00000  Uiso   1.00
C238   C     0.49999   0.37607   0.25003   0.00000  Uiso   1.00
C239   C     0.45758   0.35461   0.24945   0.00000  Uiso   1.00
C240   C     0.45757   0.64538   0.24951   0.00000  Uiso   1.00
C241   C     0.49997   0.62392   0.25014   0.00000  Uiso   1.00
C242   C     0.63362   0.52773   0.27953   0.00000  Uiso   1.00
C243   C     0.34980   0.52754   0.27981   0.00000  Uiso   1.00
C244   C     0.47488   0.51079   0.49164   0.00000  Uiso   1.00
C245   C     0.36659   0.47261   0.21989   0.00000  Uiso   1.00
C246   C     0.65028   0.47257   0.21998   0.00000  Uiso   1.00
C247   C     0.49999   0.42068   0.24999   0.00000  Uiso   1.00
C248   C     0.52622   0.50071   0.14988   0.00000  Uiso   1.00
C249   C     0.59313   0.54058   0.01610   0.00000  Uiso   1.00
C250   C     0.54082   0.50749   0.09338   0.00000  Uiso   1.00
C251   C     0.40963   0.49072   0.43462   0.00000  Uiso   1.00
C252   C     0.39326   0.49031   0.48883   0.00000  Uiso   1.00
C253   C     0.42493   0.50048   0.01793   0.00000  Uiso   1.00
C254   C     0.48825   0.51824   0.43698   0.00000  Uiso   1.00
C255   C     0.51184   0.51535   0.01717   0.00000  Uiso   1.00
C256   C     0.55697   0.53493   0.49089   0.00000  Uiso   1.00
C257   C     0.56537   0.54881   0.43987   0.00000  Uiso   1.00
C258   C     0.53161   0.54048   0.41324   0.00000  Uiso   1.00
C259   C     0.50651   0.49919   0.06696   0.00000  Uiso   1.00
C260   C     0.58471   0.52757   0.06753   0.00000  Uiso   1.00
Cu261  Cu    0.45311   0.49999   0.25000   0.00000  Uiso   1.00
Cu262  Cu    0.54689   0.50001   0.25000   0.00000  Uiso   1.00
H263   H     0.61171   0.53426   0.08748   0.00000  Uiso   1.00
H264   H     0.62740   0.55590   0.49642   0.00000  Uiso   1.00
H265   H     0.47614   0.47945   0.08605   0.00000  Uiso   1.00
H266   H     0.38466   0.48078   0.41351   0.00000  Uiso   1.00
H267   H     0.35550   0.48197   0.00856   0.00000  Uiso   1.00
H268   H     0.53905   0.55308   0.37448   0.00000  Uiso   1.00
H269   H     0.57549   0.62937   0.25134   0.00000  Uiso   1.00
H270   H     0.38805   0.47673   0.08843   0.00000  Uiso   1.00
H271   H     0.37654   0.52695   0.08094   0.00000  Uiso   1.00
H272   H     0.57553   0.37062   0.25119   0.00000  Uiso   1.00
H273   H     0.42445   0.37062   0.24890   0.00000  Uiso   1.00
H274   H     0.42442   0.62937   0.24903   0.00000  Uiso   1.00
H275   H     0.60857   0.55026   0.30272   0.00000  Uiso   1.00
H276   H     0.36178   0.54960   0.30371   0.00000  Uiso   1.00
H277   H     0.39208   0.45070   0.19573   0.00000  Uiso   1.00
H278   H     0.63834   0.45063   0.19591   0.00000  Uiso   1.00
H279   H     0.59871   0.56535   0.42001   0.00000  Uiso   1.00
N280   N     0.38265   0.49999   0.24998   0.00000  Uiso   1.00
N281   N     0.61735   0.50002   0.24999   0.00000  Uiso   1.00
N282   N     0.40430   0.50473   0.07348   0.00000  Uiso   1.00
O283   O     0.46042   0.56011   0.25000   0.00000  Uiso   1.00
O284   O     0.53961   0.56012   0.25000   0.00000  Uiso   1.00
O285   O     0.44108   0.49998   0.32549   0.00000  Uiso   1.00
O286   O     0.52027   0.49999   0.32549   0.00000  Uiso   1.00
O287   O     0.46039   0.43988   0.24999   0.00000  Uiso   1.00
O288   O     0.53958   0.43989   0.24999   0.00000  Uiso   1.00
O289   O     0.47973   0.50001   0.17451   0.00000  Uiso   1.00
O290   O     0.55892   0.50002   0.17451   0.00000  Uiso   1.00
C291   C     0.83332   0.57931   0.25008   0.00000  Uiso   1.00
C292   C     0.79039   0.50449   0.40795   0.00000  Uiso   1.00
C293   C     0.87569   0.64538   0.25078   0.00000  Uiso   1.00
C294   C     0.80701   0.50200   0.35024   0.00000  Uiso   1.00
C295   C     0.87571   0.35461   0.25071   0.00000  Uiso   1.00
C296   C     0.83332   0.37607   0.25003   0.00000  Uiso   1.00
C297   C     0.79092   0.35461   0.24945   0.00000  Uiso   1.00
C298   C     0.79090   0.64538   0.24951   0.00000  Uiso   1.00
C299   C     0.83330   0.62392   0.25014   0.00000  Uiso   1.00
C300   C     0.96696   0.52773   0.27953   0.00000  Uiso   1.00
C301   C     0.68313   0.52754   0.27981   0.00000  Uiso   1.00
C302   C     0.80821   0.51079   0.49164   0.00000  Uiso   1.00
C303   C     0.69993   0.47261   0.21989   0.00000  Uiso   1.00
C304   C     0.98361   0.47257   0.21998   0.00000  Uiso   1.00
C305   C     0.83333   0.42068   0.24999   0.00000  Uiso   1.00
C306   C     0.85955   0.50071   0.14988   0.00000  Uiso   1.00
C307   C     0.92646   0.54058   0.01610   0.00000  Uiso   1.00
C308   C     0.87415   0.50749   0.09338   0.00000  Uiso   1.00
C309   C     0.74297   0.49072   0.43462   0.00000  Uiso   1.00
C310   C     0.72659   0.49031   0.48883   0.00000  Uiso   1.00
C311   C     0.75826   0.50048   0.01793   0.00000  Uiso   1.00
C312   C     0.82159   0.51824   0.43698   0.00000  Uiso   1.00
C313   C     0.84518   0.51535   0.01717   0.00000  Uiso   1.00
C314   C     0.89030   0.53493   0.49089   0.00000  Uiso   1.00
C315   C     0.89871   0.54881   0.43987   0.00000  Uiso   1.00
C316   C     0.86494   0.54048   0.41324   0.00000  Uiso   1.00
C317   C     0.83984   0.49919   0.06696   0.00000  Uiso   1.00
C318   C     0.91805   0.52757   0.06753   0.00000  Uiso   1.00
Cu319  Cu    0.78645   0.49999   0.25000   0.00000  Uiso   1.00
Cu320  Cu    0.88022   0.50001   0.25000   0.00000  Uiso   1.00
H321   H     0.94504   0.53426   0.08748   0.00000  Uiso   1.00
H322   H     0.96074   0.55590   0.49642   0.00000  Uiso   1.00
H323   H     0.80947   0.47945   0.08605   0.00000  Uiso   1.00
H324   H     0.71799   0.48078   0.41351   0.00000  Uiso   1.00
H325   H     0.68883   0.48197   0.00856   0.00000  Uiso   1.00
H326   H     0.87238   0.55308   0.37448   0.00000  Uiso   1.00
H327   H     0.90882   0.62937   0.25134   0.00000  Uiso   1.00
H328   H     0.72139   0.47673   0.08843   0.00000  Uiso   1.00
H329   H     0.70987   0.52695   0.08094   0.00000  Uiso   1.00
H330   H     0.90886   0.37062   0.25119   0.00000  Uiso   1.00
H331   H     0.75778   0.37062   0.24890   0.00000  Uiso   1.00
H332   H     0.75775   0.62937   0.24903   0.00000  Uiso   1.00
H333   H     0.94190   0.55026   0.30272   0.00000  Uiso   1.00
H334   H     0.69512   0.54960   0.30371   0.00000  Uiso   1.00
H335   H     0.72541   0.45070   0.19573   0.00000  Uiso   1.00
H336   H     0.97167   0.45063   0.19591   0.00000  Uiso   1.00
H337   H     0.93204   0.56535   0.42001   0.00000  Uiso   1.00
N338   N     0.71598   0.49999   0.24998   0.00000  Uiso   1.00
N339   N     0.95069   0.50002   0.24999   0.00000  Uiso   1.00
N340   N     0.73763   0.50473   0.07348   0.00000  Uiso   1.00
O341   O     0.79375   0.56011   0.25000   0.00000  Uiso   1.00
O342   O     0.87294   0.56012   0.25000   0.00000  Uiso   1.00
O343   O     0.77441   0.49998   0.32549   0.00000  Uiso   1.00
O344   O     0.85360   0.49999   0.32549   0.00000  Uiso   1.00
O345   O     0.79373   0.43988   0.24999   0.00000  Uiso   1.00
O346   O     0.87292   0.43989   0.24999   0.00000  Uiso   1.00
O347   O     0.81306   0.50001   0.17451   0.00000  Uiso   1.00
O348   O     0.89225   0.50002   0.17451   0.00000  Uiso   1.00
C349   C     0.16666   0.91265   0.25008   0.00000  Uiso   1.00
C350   C     0.12372   0.83782   0.40795   0.00000  Uiso   1.00
C351   C     0.20903   0.97871   0.25078   0.00000  Uiso   1.00
C352   C     0.14035   0.83533   0.35024   0.00000  Uiso   1.00
C353   C     0.20905   0.68795   0.25071   0.00000  Uiso   1.00
C354   C     0.16666   0.70940   0.25003   0.00000  Uiso   1.00
C355   C     0.12425   0.68794   0.24945   0.00000  Uiso   1.00
C356   C     0.12423   0.97871   0.24951   0.00000  Uiso   1.00
C357   C     0.16663   0.95726   0.25014   0.00000  Uiso   1.00
C358   C     0.30029   0.86106   0.27953   0.00000  Uiso   1.00
C359   C     0.01646   0.86087   0.27981   0.00000  Uiso   1.00
C360   C     0.14154   0.84412   0.49164   0.00000  Uiso   1.00
C361   C     0.03326   0.80594   0.21989   0.00000  Uiso   1.00
C362   C     0.31695   0.80590   0.21998   0.00000  Uiso   1.00
C363   C     0.16666   0.75402   0.24999   0.00000  Uiso   1.00
C364   C     0.19289   0.83404   0.14988   0.00000  Uiso   1.00
C365   C     0.25980   0.87392   0.01610   0.00000  Uiso   1.00
C366   C     0.20749   0.84082   0.09338   0.00000  Uiso   1.00
C367   C     0.07630   0.82406   0.43462   0.00000  Uiso   1.00
C368   C     0.05993   0.82364   0.48883   0.00000  Uiso   1.00
C369   C     0.09160   0.83381   0.01793   0.00000  Uiso   1.00
C370   C     0.15492   0.85157   0.43698   0.00000  Uiso   1.00
C371   C     0.17851   0.84869   0.01717   0.00000  Uiso   1.00
C372   C     0.22364   0.86827   0.49089   0.00000  Uiso   1.00
C373   C     0.23204   0.88215   0.43987   0.00000  Uiso   1.00
C374   C     0.19828   0.87381   0.41324   0.00000  Uiso   1.00
C375   C     0.17317   0.83252   0.06696   0.00000  Uiso   1.00
C376   C     0.25138   0.86090   0.06753   0.00000  Uiso   1.00
Cu377  Cu    0.11978   0.83333   0.25000   0.00000  Uiso   1.00
Cu378  Cu    0.21355   0.83334   0.25000   0.00000  Uiso   1.00
H379   H     0.27838   0.86760   0.08748   0.00000  Uiso   1.00
H380   H     0.29407   0.88923   0.49642   0.00000  Uiso   1.00
H381   H     0.14281   0.81278   0.08605   0.00000  Uiso   1.00
H382   H     0.05132   0.81411   0.41351   0.00000  Uiso   1.00
H383   H     0.02217   0.81531   0.00856   0.00000  Uiso   1.00
H384   H     0.20571   0.88642   0.37448   0.00000  Uiso   1.00
H385   H     0.24216   0.96270   0.25134   0.00000  Uiso   1.00
H386   H     0.05472   0.81006   0.08843   0.00000  Uiso   1.00
H387   H     0.04320   0.86029   0.08094   0.00000  Uiso   1.00
H388   H     0.24219   0.70396   0.25119   0.00000  Uiso   1.00
H389   H     0.09111   0.70395   0.24890   0.00000  Uiso   1.00
H390   H     0.09109   0.96270   0.24903   0.00000  Uiso   1.00
H391   H     0.27524   0.88359   0.30272   0.00000  Uiso   1.00
H392   H     0.02845   0.88293   0.30371   0.00000  Uiso   1.00
H393   H     0.05875   0.78403   0.19573   0.00000  Uiso   1.00
H394   H     0.30500   0.78397   0.19591   0.00000  Uiso   1.00
H395   H     0.26537   0.89869   0.42001   0.00000  Uiso   1.00
N396   N     0.04931   0.83332   0.24998   0.00000  Uiso   1.00
N397   N     0.28402   0.83335   0.24999   0.00000  Uiso   1.00
N398   N     0.07096   0.83806   0.07348   0.00000  Uiso   1.00
O399   O     0.12708   0.89345   0.25000   0.00000  Uiso   1.00
O400   O     0.20627   0.89346   0.25000   0.00000  Uiso   1.00
O401   O     0.10775   0.83332   0.32549   0.00000  Uiso   1.00
O402   O     0.18694   0.83333   0.32549   0.00000  Uiso   1.00
O403   O     0.12706   0.77321   0.24999   0.00000  Uiso   1.00
O404   O     0.20625   0.77322   0.24999   0.00000  Uiso   1.00
O405   O     0.14640   0.83334   0.17451   0.00000  Uiso   1.00
O406   O     0.22559   0.83335   0.17451   0.00000  Uiso   1.00
C407   C     0.49999   0.91265   0.25008   0.00000  Uiso   1.00
C408   C     0.45706   0.83782   0.40795   0.00000  Uiso   1.00
C409   C     0.54236   0.97871   0.25078   0.00000  Uiso   1.00
C410   C     0.47368   0.83533   0.35024   0.00000  Uiso   1.00
C411   C     0.54238   0.68795   0.25071   0.00000  Uiso   1.00
C412   C     0.49999   0.70940   0.25003   0.00000  Uiso   1.00
C413   C     0.45758   0.68794   0.24945   0.00000  Uiso   1.00
C414   C     0.45757   0.97871   0.24951   0.00000  Uiso   1.00
C415   C     0.49997   0.95726   0.25014   0.00000  Uiso   1.00
C416   C     0.63362   0.86106   0.27953   0.00000  Uiso   1.00
C417   C     0.34980   0.86087   0.27981   0.00000  Uiso   1.00
C418   C     0.47488   0.84412   0.49164   0.00000  Uiso   1.00
C419   C     0.36659   0.80594   0.21989   0.00000  Uiso   1.00
C420   C     0.65028   0.80590   0.21998   0.00000  Uiso   1.00
C421   C     0.49999   0.75402   0.24999   0.00000  Uiso   1.00
C422   C     0.52622   0.83404   0.14988   0.00000  Uiso   1.00
C423   C     0.59313   0.87392   0.01610   0.00000  Uiso   1.00
C424   C     0.54082   0.84082   0.09338   0.00000  Uiso   1.00
C425   C     0.40963   0.82406   0.43462   0.00000  Uiso   1.00
C426   C     0.39326   0.82364   0.48883   0.00000  Uiso   1.00
C427   C     0.42493   0.83381   0.01793   0.00000  Uiso   1.00
C428   C     0.48825   0.85157   0.43698   0.00000  Uiso   1.00
C429   C     0.51184   0.84869   0.01717   0.00000  Uiso   1.00
C430   C     0.55697   0.86827   0.49089   0.00000  Uiso   1.00
C431   C     0.56537   0.88215   0.43987   0.00000  Uiso   1.00
C432   C     0.53161   0.87381   0.41324   0.00000  Uiso   1.00
C433   C     0.50651   0.83252   0.06696   0.00000  Uiso   1.00
C434   C     0.58471   0.86090   0.06753   0.00000  Uiso   1.00
Cu435  Cu    0.45311   0.83333   0.25000   0.00000  Uiso   1.00
Cu436  Cu    0.54689   0.83334   0.25000   0.00000  Uiso   1.00
H437   H     0.61171   0.86760   0.08748   0.00000  Uiso   1.00
H438   H     0.62740   0.88923   0.49642   0.00000  Uiso   1.00
H439   H     0.47614   0.81278   0.08605   0.00000  Uiso   1.00
H440   H     0.38466   0.81411   0.41351   0.00000  Uiso   1.00
H441   H     0.35550   0.81531   0.00856   0.00000  Uiso   1.00
H442   H     0.53905   0.88642   0.37448   0.00000  Uiso   1.00
H443   H     0.57549   0.96270   0.25134   0.00000  Uiso   1.00
H444   H     0.38805   0.81006   0.08843   0.00000  Uiso   1.00
H445   H     0.37654   0.86029   0.08094   0.00000  Uiso   1.00
H446   H     0.57553   0.70396   0.25119   0.00000  Uiso   1.00
H447   H     0.42445   0.70395   0.24890   0.00000  Uiso   1.00
H448   H     0.42442   0.96270   0.24903   0.00000  Uiso   1.00
H449   H     0.60857   0.88359   0.30272   0.00000  Uiso   1.00
H450   H     0.36178   0.88293   0.30371   0.00000  Uiso   1.00
H451   H     0.39208   0.78403   0.19573   0.00000  Uiso   1.00
H452   H     0.63834   0.78397   0.19591   0.00000  Uiso   1.00
H453   H     0.59871   0.89869   0.42001   0.00000  Uiso   1.00
N454   N     0.38265   0.83332   0.24998   0.00000  Uiso   1.00
N455   N     0.61735   0.83335   0.24999   0.00000  Uiso   1.00
N456   N     0.40430   0.83806   0.07348   0.00000  Uiso   1.00
O457   O     0.46042   0.89345   0.25000   0.00000  Uiso   1.00
O458   O     0.53961   0.89346   0.25000   0.00000  Uiso   1.00
O459   O     0.44108   0.83332   0.32549   0.00000  Uiso   1.00
O460   O     0.52027   0.83333   0.32549   0.00000  Uiso   1.00
O461   O     0.46039   0.77321   0.24999   0.00000  Uiso   1.00
O462   O     0.53958   0.77322   0.24999   0.00000  Uiso   1.00
O463   O     0.47973   0.83334   0.17451   0.00000  Uiso   1.00
O464   O     0.55892   0.83335   0.17451   0.00000  Uiso   1.00
C465   C     0.83332   0.91265   0.25008   0.00000  Uiso   1.00
C466   C     0.79039   0.83782   0.40795   0.00000  Uiso   1.00
C467   C     0.87569   0.97871   0.25078   0.00000  Uiso   1.00
C468   C     0.80701   0.83533   0.35024   0.00000  Uiso   1.00
C469   C     0.87571   0.68795   0.25071   0.00000  Uiso   1.00
C470   C     0.83332   0.70940   0.25003   0.00000  Uiso   1.00
C471   C     0.79092   0.68794   0.24945   0.00000  Uiso   1.00
C472   C     0.79090   0.97871   0.24951   0.00000  Uiso   1.00
C473   C     0.83330   0.95726   0.25014   0.00000  Uiso   1.00
C474   C     0.96696   0.86106   0.27953   0.00000  Uiso   1.00
C475   C     0.68313   0.86087   0.27981   0.00000  Uiso   1.00
C476   C     0.80821   0.84412   0.49164   0.00000  Uiso   1.00
C477   C     0.69993   0.80594   0.21989   0.00000  Uiso   1.00
C478   C     0.98361   0.80590   0.21998   0.00000  Uiso   1.00
C479   C     0.83333   0.75402   0.24999   0.00000  Uiso   1.00
C480   C     0.85955   0.83404   0.14988   0.00000  Uiso   1.00
C481   C     0.92646   0.87392   0.01610   0.00000  Uiso   1.00
C482   C     0.87415   0.84082   0.09338   0.00000  Uiso   1.00
C483   C     0.74297   0.82406   0.43462   0.00000  Uiso   1.00
C484   C     0.72659   0.82364   0.48883   0.00000  Uiso   1.00
C485   C     0.75826   0.83381   0.01793   0.00000  Uiso   1.00
C486   C     0.82159   0.85157   0.43698   0.00000  Uiso   1.00
C487   C     0.84518   0.84869   0.01717   0.00000  Uiso   1.00
C488   C     0.89030   0.86827   0.49089   0.00000  Uiso   1.00
C489   C     0.89871   0.88215   0.43987   0.00000  Uiso   1.00
C490   C     0.86494   0.87381   0.41324   0.00000  Uiso   1.00
C491   C     0.83984   0.83252   0.06696   0.00000  Uiso   1.00
C492   C     0.91805   0.86090   0.06753   0.00000  Uiso   1.00
Cu493  Cu    0.78645   0.83333   0.25000   0.00000  Uiso   1.00
Cu494  Cu    0.88022   0.83334   0.25000   0.00000  Uiso   1.00
H495   H     0.94504   0.86760   0.08748   0.00000  Uiso   1.00
H496   H     0.96074   0.88923   0.49642   0.00000  Uiso   1.00
H497   H     0.80947   0.81278   0.08605   0.00000  Uiso   1.00
H498   H     0.71799   0.81411   0.41351   0.00000  Uiso   1.00
H499   H     0.68883   0.81531   0.00856   0.00000  Uiso   1.00
H500   H     0.87238   0.88642   0.37448   0.00000  Uiso   1.00
H501   H     0.90882   0.96270   0.25134   0.00000  Uiso   1.00
H502   H     0.72139   0.81006   0.08843   0.00000  Uiso   1.00
H503   H     0.70987   0.86029   0.08094   0.00000  Uiso   1.00
H504   H     0.90886   0.70396   0.25119   0.00000  Uiso   1.00
H505   H     0.75778   0.70395   0.24890   0.00000  Uiso   1.00
H506   H     0.75775   0.96270   0.24903   0.00000  Uiso   1.00
H507   H     0.94190   0.88359   0.30272   0.00000  Uiso   1.00
H508   H     0.69512   0.88293   0.30371   0.00000  Uiso   1.00
H509   H     0.72541   0.78403   0.19573   0.00000  Uiso   1.00
H510   H     0.97167   0.78397   0.19591   0.00000  Uiso   1.00
H511   H     0.93204   0.89869   0.42001   0.00000  Uiso   1.00
N512   N     0.71598   0.83332   0.24998   0.00000  Uiso   1.00
N513   N     0.95069   0.83335   0.24999   0.00000  Uiso   1.00
N514   N     0.73763   0.83806   0.07348   0.00000  Uiso   1.00
O515   O     0.79375   0.89345   0.25000   0.00000  Uiso   1.00
O516   O     0.87294   0.89346   0.25000   0.00000  Uiso   1.00
O517   O     0.77441   0.83332   0.32549   0.00000  Uiso   1.00
O518   O     0.85360   0.83333   0.32549   0.00000  Uiso   1.00
O519   O     0.79373   0.77321   0.24999   0.00000  Uiso   1.00
O520   O     0.87292   0.77322   0.24999   0.00000  Uiso   1.00
O521   O     0.81306   0.83334   0.17451   0.00000  Uiso   1.00
O522   O     0.89225   0.83335   0.17451   0.00000  Uiso   1.00
C523   C     0.16666   0.24598   0.75008   0.00000  Uiso   1.00
C524   C     0.12372   0.17116   0.90795   0.00000  Uiso   1.00
C525   C     0.20903   0.31204   0.75078   0.00000  Uiso   1.00
C526   C     0.14035   0.16866   0.85024   0.00000  Uiso   1.00
C527   C     0.20905   0.02128   0.75071   0.00000  Uiso   1.00
C528   C     0.16666   0.04273   0.75003   0.00000  Uiso   1.00
C529   C     0.12425   0.02128   0.74945   0.00000  Uiso   1.00
C530   C     0.12423   0.31204   0.74951   0.00000  Uiso   1.00
C531   C     0.16663   0.29059   0.75014   0.00000  Uiso   1.00
C532   C     0.30029   0.19439   0.77953   0.00000  Uiso   1.00
C533   C     0.01646   0.19421   0.77981   0.00000  Uiso   1.00
C534   C     0.14154   0.17746   0.99164   0.00000  Uiso   1.00
C535   C     0.03326   0.13928   0.71989   0.00000  Uiso   1.00
C536   C     0.31695   0.13924   0.71998   0.00000  Uiso   1.00
C537   C     0.16666   0.08735   0.74999   0.00000  Uiso   1.00
C538   C     0.19289   0.16738   0.64988   0.00000  Uiso   1.00
C539   C     0.25980   0.20725   0.51610   0.00000  Uiso   1.00
C540   C     0.20749   0.17416   0.59338   0.00000  Uiso   1.00
C541   C     0.07630   0.15739   0.93462   0.00000  Uiso   1.00
C542   C     0.05993   0.15698   0.98883   0.00000  Uiso   1.00
C543   C     0.09160   0.16714   0.51793   0.00000  Uiso   1.00
C544   C     0.15492   0.18490   0.93698   0.00000  Uiso   1.00
C545   C     0.17851   0.18202   0.51717   0.00000  Uiso   1.00
C546   C     0.22364   0.20160   0.99089   0.00000  Uiso   1.00
C547   C     0.23204   0.21548   0.93987   0.00000  Uiso   1.00
C548   C     0.19828   0.20714   0.91324   0.00000  Uiso   1.00
C549   C     0.17317   0.16585   0.56696   0.00000  Uiso   1.00
C550   C     0.25138   0.19424   0.56753   0.00000  Uiso   1.00
Cu551  Cu    0.11978   0.16666   0.75000   0.00000  Uiso   1.00
Cu552  Cu    0.21355   0.16667   0.75000   0.00000  Uiso   1.00
H553   H     0.27838   0.20093   0.58748   0.00000  Uiso   1.00
H554   H     0.29407   0.22256   0.99642   0.00000  Uiso   1.00
H555   H     0.14281   0.14611   0.58605   0.00000  Uiso   1.00
H556   H     0.05132   0.14744   0.91351   0.00000  Uiso   1.00
H557   H     0.02217   0.14864   0.50856   0.00000  Uiso   1.00
H558   H     0.20571   0.21975   0.87448   0.00000  Uiso   1.00
H559   H     0.24216   0.29603   0.75134   0.00000  Uiso   1.00
H560   H     0.05472   0.14340   0.58843   0.00000  Uiso   1.00
H561   H     0.04320   0.19362   0.58094   0.00000  Uiso   1.00
H562   H     0.24219   0.03729   0.75119   0.00000  Uiso   1.00
H563   H     0.09111   0.03729   0.74890   0.00000  Uiso   1.00
H564   H     0.09109   0.29603   0.74903   0.00000  Uiso   1.00
H565   H     0.27524   0.21693   0.80272   0.00000  Uiso   1.00
H566   H     0.02845   0.21627   0.80371   0.00000  Uiso   1.00
H567   H     0.05875   0.11737   0.69573   0.00000  Uiso   1.00
H568   H     0.30500   0.11730   0.69591   0.00000  Uiso   1.00
H569   H     0.26537   0.23202   0.92001   0.00000  Uiso   1.00
N570   N     0.04931   0.16666   0.74998   0.00000  Uiso   1.00
N571   N     0.28402   0.16669   0.74999   0.00000  Uiso   1.00
N572   N     0.07096   0.17139   0.57348   0.00000  Uiso   1.00
O573   O     0.12708   0.22678   0.75000   0.00000  Uiso   1.00
O574   O     0.20627   0.22679   0.75000   0.00000  Uiso   1.00
O575   O     0.10775   0.16665   0.82549   0.00000  Uiso   1.00
O576   O     0.18694   0.16666   0.82549   0.00000  Uiso   1.00
O577   O     0.12706   0.10654   0.74999   0.00000  Uiso   1.00
O578   O     0.20625   0.10655   0.74999   0.00000  Uiso   1.00
O579   O     0.14640   0.16667   0.67451   0.00000  Uiso   1.00
O580   O     0.22559   0.16668   0.67451   0.00000  Uiso   1.00
C581   C     0.49999   0.24598   0.75008   0.00000  Uiso   1.00
C582   C     0.45706   0.17116   0.90795   0.00000  Uiso   1.00
C583   C     0.54236   0.31204   0.75078   0.00000  Uiso   1.00
C584   C     0.47368   0.16866   0.85024   0.00000  Uiso   1.00
C585   C     0.54238   0.02128   0.75071   0.00000  Uiso   1.00
C586   C     0.49999   0.04273   0.75003   0.00000  Uiso   1.00
C587   C     0.45758   0.02128   0.74945   0.00000  Uiso   1.00
C588   C     0.45757   0.31204   0.74951   0.00000  Uiso   1.00
C589   C     0.49997   0.29059   0.75014   0.00000  Uiso   1.00
C590   C     0.63362   0.19439   0.77953   0.00000  Uiso   1.00
C591   C     0.34980   0.19421   0.77981   0.00000  Uiso   1.00
C592   C     0.47488   0.17746   0.99164   0.00000  Uiso   1.00
C593   C     0.36659   0.13928   0.71989   0.00000  Uiso   1.00
C594   C     0.65028   0.13924   0.71998   0.00000  Uiso   1.00
C595   C     0.49999   0.08735   0.74999   0.00000  Uiso   1.00
C596   C     0.52622   0.16738   0.64988   0.00000  Uiso   1.00
C597   C     0.59313   0.20725   0.51610   0.00000  Uiso   1.00
C598   C     0.54082   0.17416   0.59338   0.00000  Uiso   1.00
C599   C     0.40963   0.15739   0.93462   0.00000  Uiso   1.00
C600   C     0.39326   0.15698   0.98883   0.00000  Uiso   1.00
C601   C     0.42493   0.16714   0.51793   0.00000  Uiso   1.00
C602   C     0.48825   0.18490   0.93698   0.00000  Uiso   1.00
C603   C     0.51184   0.18202   0.51717   0.00000  Uiso   1.00
C604   C     0.55697   0.20160   0.99089   0.00000  Uiso   1.00
C605   C     0.56537   0.21548   0.93987   0.00000  Uiso   1.00
C606   C     0.53161   0.20714   0.91324   0.00000  Uiso   1.00
C607   C     0.50651   0.16585   0.56696   0.00000  Uiso   1.00
C608   C     0.58471   0.19424   0.56753   0.00000  Uiso   1.00
Cu609  Cu    0.45311   0.16666   0.75000   0.00000  Uiso   1.00
Cu610  Cu    0.54689   0.16667   0.75000   0.00000  Uiso   1.00
H611   H     0.61171   0.20093   0.58748   0.00000  Uiso   1.00
H612   H     0.62740   0.22256   0.99642   0.00000  Uiso   1.00
H613   H     0.47614   0.14611   0.58605   0.00000  Uiso   1.00
H614   H     0.38466   0.14744   0.91351   0.00000  Uiso   1.00
H615   H     0.35550   0.14864   0.50856   0.00000  Uiso   1.00
H616   H     0.53905   0.21975   0.87448   0.00000  Uiso   1.00
H617   H     0.57549   0.29603   0.75134   0.00000  Uiso   1.00
H618   H     0.38805   0.14340   0.58843   0.00000  Uiso   1.00
H619   H     0.37654   0.19362   0.58094   0.00000  Uiso   1.00
H620   H     0.57553   0.03729   0.75119   0.00000  Uiso   1.00
H621   H     0.42445   0.03729   0.74890   0.00000  Uiso   1.00
H622   H     0.42442   0.29603   0.74903   0.00000  Uiso   1.00
H623   H     0.60857   0.21693   0.80272   0.00000  Uiso   1.00
H624   H     0.36178   0.21627   0.80371   0.00000  Uiso   1.00
H625   H     0.39208   0.11737   0.69573   0.00000  Uiso   1.00
H626   H     0.63834   0.11730   0.69591   0.00000  Uiso   1.00
H627   H     0.59871   0.23202   0.92001   0.00000  Uiso   1.00
N628   N     0.38265   0.16666   0.74998   0.00000  Uiso   1.00
N629   N     0.61735   0.16669   0.74999   0.00000  Uiso   1.00
N630   N     0.40430   0.17139   0.57348   0.00000  Uiso   1.00
O631   O     0.46042   0.22678   0.75000   0.00000  Uiso   1.00
O632   O     0.53961   0.22679   0.75000   0.00000  Uiso   1.00
O633   O     0.44108   0.16665   0.82549   0.00000  Uiso   1.00
O634   O     0.52027   0.16666   0.82549   0.00000  Uiso   1.00
O635   O     0.46039   0.10654   0.74999   0.00000  Uiso   1.00
O636   O     0.53958   0.10655   0.74999   0.00000  Uiso   1.00
O637   O     0.47973   0.16667   0.67451   0.00000  Uiso   1.00
O638   O     0.55892   0.16668   0.67451   0.00000  Uiso   1.00
C639   C     0.83332   0.24598   0.75008   0.00000  Uiso   1.00
C640   C     0.79039   0.17116   0.90795   0.00000  Uiso   1.00
C641   C     0.87569   0.31204   0.75078   0.00000  Uiso   1.00
C642   C     0.80701   0.16866   0.85024   0.00000  Uiso   1.00
C643   C     0.87571   0.02128   0.75071   0.00000  Uiso   1.00
C644   C     0.83332   0.04273   0.75003   0.00000  Uiso   1.00
C645   C     0.79092   0.02128   0.74945   0.00000  Uiso   1.00
C646   C     0.79090   0.31204   0.74951   0.00000  Uiso   1.00
C647   C     0.83330   0.29059   0.75014   0.00000  Uiso   1.00
C648   C     0.96696   0.19439   0.77953   0.00000  Uiso   1.00
C649   C     0.68313   0.19421   0.77981   0.00000  Uiso   1.00
C650   C     0.80821   0.17746   0.99164   0.00000  Uiso   1.00
C651   C     0.69993   0.13928   0.71989   0.00000  Uiso   1.00
C652   C     0.98361   0.13924   0.71998   0.00000  Uiso   1.00
C653   C     0.83333   0.08735   0.74999   0.00000  Uiso   1.00
C654   C     0.85955   0.16738   0.64988   0.00000  Uiso   1.00
C655   C     0.92646   0.20725   0.51610   0.00000  Uiso   1.00
C656   C     0.87415   0.17416   0.59338   0.00000  Uiso   1.00
C657   C     0.74297   0.15739   0.93462   0.00000  Uiso   1.00
C658   C     0.72659   0.15698   0.98883   0.00000  Uiso   1.00
C659   C     0.75826   0.16714   0.51793   0.00000  Uiso   1.00
C660   C     0.82159   0.18490   0.93698   0.00000  Uiso   1.00
C661   C     0.84518   0.18202   0.51717   0.00000  Uiso   1.00
C662   C     0.89030   0.20160   0.99089   0.00000  Uiso   1.00
C663   C     0.89871   0.21548   0.93987   0.00000  Uiso   1.00
C664   C     0.86494   0.20714   0.91324   0.00000  Uiso   1.00
C665   C     0.83984   0.16585   0.56696   0.00000  Uiso   1.00
C666   C     0.91805   0.19424   0.56753   0.00000  Uiso   1.00
Cu667  Cu    0.78645   0.16666   0.75000   0.00000  Uiso   1.00
Cu668  Cu    0.88022   0.16667   0.75000   0.00000  Uiso   1.00
H669   H     0.94504   0.20093   0.58748   0.00000  Uiso   1.00
H670   H     0.96074   0.22256   0.99642   0.00000  Uiso   1.00
H671   H     0.80947   0.14611   0.58605   0.00000  Uiso   1.00
H672   H     0.71799   0.14744   0.91351   0.00000  Uiso   1.00
H673   H     0.68883   0.14864   0.50856   0.00000  Uiso   1.00
H674   H     0.87238   0.21975   0.87448   0.00000  Uiso   1.00
H675   H     0.90882   0.29603   0.75134   0.00000  Uiso   1.00
H676   H     0.72139   0.14340   0.58843   0.00000  Uiso   1.00
H677   H     0.70987   0.19362   0.58094   0.00000  Uiso   1.00
H678   H     0.90886   0.03729   0.75119   0.00000  Uiso   1.00
H679   H     0.75778   0.03729   0.74890   0.00000  Uiso   1.00
H680   H     0.75775   0.29603   0.74903   0.00000  Uiso   1.00
H681   H     0.94190   0.21693   0.80272   0.00000  Uiso   1.00
H682   H     0.69512   0.21627   0.80371   0.00000  Uiso   1.00
H683   H     0.72541   0.11737   0.69573   0.00000  Uiso   1.00
H684   H     0.97167   0.11730   0.69591   0.00000  Uiso   1.00
H685   H     0.93204   0.23202   0.92001   0.00000  Uiso   1.00
N686   N     0.71598   0.16666   0.74998   0.00000  Uiso   1.00
N687   N     0.95069   0.16669   0.74999   0.00000  Uiso   1.00
N688   N     0.73763   0.17139   0.57348   0.00000  Uiso   1.00
O689   O     0.79375   0.22678   0.75000   0.00000  Uiso   1.00
O690   O     0.87294   0.22679   0.75000   0.00000  Uiso   1.00
O691   O     0.77441   0.16665   0.82549   0.00000  Uiso   1.00
O692   O     0.85360   0.16666   0.82549   0.00000  Uiso   1.00
O693   O     0.79373   0.10654   0.74999   0.00000  Uiso   1.00
O694   O     0.87292   0.10655   0.74999   0.00000  Uiso   1.00
O695   O     0.81306   0.16667   0.67451   0.00000  Uiso   1.00
O696   O     0.89225   0.16668   0.67451   0.00000  Uiso   1.00
C697   C     0.16666   0.57931   0.75008   0.00000  Uiso   1.00
C698   C     0.12372   0.50449   0.90795   0.00000  Uiso   1.00
C699   C     0.20903   0.64538   0.75078   0.00000  Uiso   1.00
C700   C     0.14035   0.50200   0.85024   0.00000  Uiso   1.00
C701   C     0.20905   0.35461   0.75071   0.00000  Uiso   1.00
C702   C     0.16666   0.37607   0.75003   0.00000  Uiso   1.00
C703   C     0.12425   0.35461   0.74945   0.00000  Uiso   1.00
C704   C     0.12423   0.64538   0.74951   0.00000  Uiso   1.00
C705   C     0.16663   0.62392   0.75014   0.00000  Uiso   1.00
C706   C     0.30029   0.52773   0.77953   0.00000  Uiso   1.00
C707   C     0.01646   0.52754   0.77981   0.00000  Uiso   1.00
C708   C     0.14154   0.51079   0.99164   0.00000  Uiso   1.00
C709   C     0.03326   0.47261   0.71989   0.00000  Uiso   1.00
C710   C     0.31695   0.47257   0.71998   0.00000  Uiso   1.00
C711   C     0.16666   0.42068   0.74999   0.00000  Uiso   1.00
C712   C     0.19289   0.50071   0.64988   0.00000  Uiso   1.00
C713   C     0.25980   0.54058   0.51610   0.00000  Uiso   1.00
C714   C     0.20749   0.50749   0.59338   0.00000  Uiso   1.00
C715   C     0.07630   0.49072   0.93462   0.00000  Uiso   1.00
C716   C     0.05993   0.49031   0.98883   0.00000  Uiso   1.00
C717   C     0.09160   0.50048   0.51793   0.00000  Uiso   1.00
C718   C     0.15492   0.51824   0.93698   0.00000  Uiso   1.00
C719   C     0.17851   0.51535   0.51717   0.00000  Uiso   1.00
C720   C     0.22364   0.53493   0.99089   0.00000  Uiso   1.00
C721   C     0.23204   0.54881   0.93987   0.00000  Uiso   1.00
C722   C     0.19828   0.54048   0.91324   0.00000  Uiso   1.00
C723   C     0.17317   0.49919   0.56696   0.00000  Uiso   1.00
C724   C     0.25138   0.52757   0.56753   0.00000  Uiso   1.00
Cu725  Cu    0.11978   0.49999   0.75000   0.00000  Uiso   1.00
Cu726  Cu    0.21355   0.50001   0.75000   0.00000  Uiso   1.00
H727   H     0.27838   0.53426   0.58748   0.00000  Uiso   1.00
H728   H     0.29407   0.55590   0.99642   0.00000  Uiso   1.00
H729   H     0.14281   0.47945   0.58605   0.00000  Uiso   1.00
H730   H     0.05132   0.48078   0.91351   0.00000  Uiso   1.00
H731   H     0.02217   0.48197   0.50856   0.00000  Uiso   1.00
H732   H     0.20571   0.55308   0.87448   0.00000  Uiso   1.00
H733   H     0.24216   0.62937   0.75134   0.00000  Uiso   1.00
H734   H     0.05472   0.47673   0.58843   0.00000  Uiso   1.00
H735   H     0.04320   0.52695   0.58094   0.00000  Uiso   1.00
H736   H     0.24219   0.37062   0.75119   0.00000  Uiso   1.00
H737   H     0.09111   0.37062   0.74890   0.00000  Uiso   1.00
H738   H     0.09109   0.62937   0.74903   0.00000  Uiso   1.00
H739   H     0.27524   0.55026   0.80272   0.00000  Uiso   1.00
H740   H     0.02845   0.54960   0.80371   0.00000  Uiso   1.00
H741   H     0.05875   0.45070   0.69573   0.00000  Uiso   1.00
H742   H     0.30500   0.45063   0.69591   0.00000  Uiso   1.00
H743   H     0.26537   0.56535   0.92001   0.00000  Uiso   1.00
N744   N     0.04931   0.49999   0.74998   0.00000  Uiso   1.00
N745   N     0.28402   0.50002   0.74999   0.00000  Uiso   1.00
N746   N     0.07096   0.50473   0.57348   0.00000  Uiso   1.00
O747   O     0.12708   0.56011   0.75000   0.00000  Uiso   1.00
O748   O     0.20627   0.56012   0.75000   0.00000  Uiso   1.00
O749   O     0.10775   0.49998   0.82549   0.00000  Uiso   1.00
O750   O     0.18694   0.49999   0.82549   0.00000  Uiso   1.00
O751   O     0.12706   0.43988   0.74999   0.00000  Uiso   1.00
O752   O     0.20625   0.43989   0.74999   0.00000  Uiso   1.00
O753   O     0.14640   0.50001   0.67451   0.00000  Uiso   1.00
O754   O     0.22559   0.50002   0.67451   0.00000  Uiso   1.00
C755   C     0.49999   0.57931   0.75008   0.00000  Uiso   1.00
C756   C     0.45706   0.50449   0.90795   0.00000  Uiso   1.00
C757   C     0.54236   0.64538   0.75078   0.00000  Uiso   1.00
C758   C     0.47368   0.50200   0.85024   0.00000  Uiso   1.00
C759   C     0.54238   0.35461   0.75071   0.00000  Uiso   1.00
C760   C     0.49999   0.37607   0.75003   0.00000  Uiso   1.00
C761   C     0.45758   0.35461   0.74945   0.00000  Uiso   1.00
C762   C     0.45757   0.64538   0.74951   0.00000  Uiso   1.00
C763   C     0.49997   0.62392   0.75014   0.00000  Uiso   1.00
C764   C     0.63362   0.52773   0.77953   0.00000  Uiso   1.00
C765   C     0.34980   0.52754   0.77981   0.00000  Uiso   1.00
C766   C     0.47488   0.51079   0.99164   0.00000  Uiso   1.00
C767   C     0.36659   0.47261   0.71989   0.00000  Uiso   1.00
C768   C     0.65028   0.47257   0.71998   0.00000  Uiso   1.00
C769   C     0.49999   0.42068   0.74999   0.00000  Uiso   1.00
C770   C     0.52622   0.50071   0.64988   0.00000  Uiso   1.00
C771   C     0.59313   0.54058   0.51610   0.00000  Uiso   1.00
C772   C     0.54082   0.50749   0.59338   0.00000  Uiso   1.00
C773   C     0.40963   0.49072   0.93462   0.00000  Uiso   1.00
C774   C     0.39326   0.49031   0.98883   0.00000  Uiso   1.00
C775   C     0.42493   0.50048   0.51793   0.00000  Uiso   1.00
C776   C     0.48825   0.51824   0.93698   0.00000  Uiso   1.00
C777   C     0.51184   0.51535   0.51717   0.00000  Uiso   1.00
C778   C     0.55697   0.53493   0.99089   0.00000  Uiso   1.00
C779   C     0.56537   0.54881   0.93987   0.00000  Uiso   1.00
C780   C     0.53161   0.54048   0.91324   0.00000  Uiso   1.00
C781   C     0.50651   0.49919   0.56696   0.00000  Uiso   1.00
C782   C     0.58471   0.52757   0.56753   0.00000  Uiso   1.00
Cu783  Cu    0.45311   0.49999   0.75000   0.00000  Uiso   1.00
Cu784  Cu    0.54689   0.50001   0.75000   0.00000  Uiso   1.00
H785   H     0.61171   0.53426   0.58748   0.00000  Uiso   1.00
H786   H     0.62740   0.55590   0.99642   0.00000  Uiso   1.00
H787   H     0.47614   0.47945   0.58605   0.00000  Uiso   1.00
H788   H     0.38466   0.48078   0.91351   0.00000  Uiso   1.00
H789   H     0.35550   0.48197   0.50856   0.00000  Uiso   1.00
H790   H     0.53905   0.55308   0.87448   0.00000  Uiso   1.00
H791   H     0.57549   0.62937   0.75134   0.00000  Uiso   1.00
H792   H     0.38805   0.47673   0.58843   0.00000  Uiso   1.00
H793   H     0.37654   0.52695   0.58094   0.00000  Uiso   1.00
H794   H     0.57553   0.37062   0.75119   0.00000  Uiso   1.00
H795   H     0.42445   0.37062   0.74890   0.00000  Uiso   1.00
H796   H     0.42442   0.62937   0.74903   0.00000  Uiso   1.00
H797   H     0.60857   0.55026   0.80272   0.00000  Uiso   1.00
H798   H     0.36178   0.54960   0.80371   0.00000  Uiso   1.00
H799   H     0.39208   0.45070   0.69573   0.00000  Uiso   1.00
H800   H     0.63834   0.45063   0.69591   0.00000  Uiso   1.00
H801   H     0.59871   0.56535   0.92001   0.00000  Uiso   1.00
N802   N     0.38265   0.49999   0.74998   0.00000  Uiso   1.00
N803   N     0.61735   0.50002   0.74999   0.00000  Uiso   1.00
N804   N     0.40430   0.50473   0.57348   0.00000  Uiso   1.00
O805   O     0.46042   0.56011   0.75000   0.00000  Uiso   1.00
O806   O     0.53961   0.56012   0.75000   0.00000  Uiso   1.00
O807   O     0.44108   0.49998   0.82549   0.00000  Uiso   1.00
O808   O     0.52027   0.49999   0.82549   0.00000  Uiso   1.00
O809   O     0.46039   0.43988   0.74999   0.00000  Uiso   1.00
O810   O     0.53958   0.43989   0.74999   0.00000  Uiso   1.00
O811   O     0.47973   0.50001   0.67451   0.00000  Uiso   1.00
O812   O     0.55892   0.50002   0.67451   0.00000  Uiso   1.00
C813   C     0.83332   0.57931   0.75008   0.00000  Uiso   1.00
C814   C     0.79039   0.50449   0.90795   0.00000  Uiso   1.00
C815   C     0.87569   0.64538   0.75078   0.00000  Uiso   1.00
C816   C     0.80701   0.50200   0.85024   0.00000  Uiso   1.00
C817   C     0.87571   0.35461   0.75071   0.00000  Uiso   1.00
C818   C     0.83332   0.37607   0.75003   0.00000  Uiso   1.00
C819   C     0.79092   0.35461   0.74945   0.00000  Uiso   1.00
C820   C     0.79090   0.64538   0.74951   0.00000  Uiso   1.00
C821   C     0.83330   0.62392   0.75014   0.00000  Uiso   1.00
C822   C     0.96696   0.52773   0.77953   0.00000  Uiso   1.00
C823   C     0.68313   0.52754   0.77981   0.00000  Uiso   1.00
C824   C     0.80821   0.51079   0.99164   0.00000  Uiso   1.00
C825   C     0.69993   0.47261   0.71989   0.00000  Uiso   1.00
C826   C     0.98361   0.47257   0.71998   0.00000  Uiso   1.00
C827   C     0.83333   0.42068   0.74999   0.00000  Uiso   1.00
C828   C     0.85955   0.50071   0.64988   0.00000  Uiso   1.00
C829   C     0.92646   0.54058   0.51610   0.00000  Uiso   1.00
C830   C     0.87415   0.50749   0.59338   0.00000  Uiso   1.00
C831   C     0.74297   0.49072   0.93462   0.00000  Uiso   1.00
C832   C     0.72659   0.49031   0.98883   0.00000  Uiso   1.00
C833   C     0.75826   0.50048   0.51793   0.00000  Uiso   1.00
C834   C     0.82159   0.51824   0.93698   0.00000  Uiso   1.00
C835   C     0.84518   0.51535   0.51717   0.00000  Uiso   1.00
C836   C     0.89030   0.53493   0.99089   0.00000  Uiso   1.00
C837   C     0.89871   0.54881   0.93987   0.00000  Uiso   1.00
C838   C     0.86494   0.54048   0.91324   0.00000  Uiso   1.00
C839   C     0.83984   0.49919   0.56696   0.00000  Uiso   1.00
C840   C     0.91805   0.52757   0.56753   0.00000  Uiso   1.00
Cu841  Cu    0.78645   0.49999   0.75000   0.00000  Uiso   1.00
Cu842  Cu    0.88022   0.50001   0.75000   0.00000  Uiso   1.00
H843   H     0.94504   0.53426   0.58748   0.00000  Uiso   1.00
H844   H     0.96074   0.55590   0.99642   0.00000  Uiso   1.00
H845   H     0.80947   0.47945   0.58605   0.00000  Uiso   1.00
H846   H     0.71799   0.48078   0.91351   0.00000  Uiso   1.00
H847   H     0.68883   0.48197   0.50856   0.00000  Uiso   1.00
H848   H     0.87238   0.55308   0.87448   0.00000  Uiso   1.00
H849   H     0.90882   0.62937   0.75134   0.00000  Uiso   1.00
H850   H     0.72139   0.47673   0.58843   0.00000  Uiso   1.00
H851   H     0.70987   0.52695   0.58094   0.00000  Uiso   1.00
H852   H     0.90886   0.37062   0.75119   0.00000  Uiso   1.00
H853   H     0.75778   0.37062   0.74890   0.00000  Uiso   1.00
H854   H     0.75775   0.62937   0.74903   0.00000  Uiso   1.00
H855   H     0.94190   0.55026   0.80272   0.00000  Uiso   1.00
H856   H     0.69512   0.54960   0.80371   0.00000  Uiso   1.00
H857   H     0.72541   0.45070   0.69573   0.00000  Uiso   1.00
H858   H     0.97167   0.45063   0.69591   0.00000  Uiso   1.00
H859   H     0.93204   0.56535   0.92001   0.00000  Uiso   1.00
N860   N     0.71598   0.49999   0.74998   0.00000  Uiso   1.00
N861   N     0.95069   0.50002   0.74999   0.00000  Uiso   1.00
N862   N     0.73763   0.50473   0.57348   0.00000  Uiso   1.00
O863   O     0.79375   0.56011   0.75000   0.00000  Uiso   1.00
O864   O     0.87294   0.56012   0.75000   0.00000  Uiso   1.00
O865   O     0.77441   0.49998   0.82549   0.00000  Uiso   1.00
O866   O     0.85360   0.49999   0.82549   0.00000  Uiso   1.00
O867   O     0.79373   0.43988   0.74999   0.00000  Uiso   1.00
O868   O     0.87292   0.43989   0.74999   0.00000  Uiso   1.00
O869   O     0.81306   0.50001   0.67451   0.00000  Uiso   1.00
O870   O     0.89225   0.50002   0.67451   0.00000  Uiso   1.00
C871   C     0.16666   0.91265   0.75008   0.00000  Uiso   1.00
C872   C     0.12372   0.83782   0.90795   0.00000  Uiso   1.00
C873   C     0.20903   0.97871   0.75078   0.00000  Uiso   1.00
C874   C     0.14035   0.83533   0.85024   0.00000  Uiso   1.00
C875   C     0.20905   0.68795   0.75071   0.00000  Uiso   1.00
C876   C     0.16666   0.70940   0.75003   0.00000  Uiso   1.00
C877   C     0.12425   0.68794   0.74945   0.00000  Uiso   1.00
C878   C     0.12423   0.97871   0.74951   0.00000  Uiso   1.00
C879   C     0.16663   0.95726   0.75014   0.00000  Uiso   1.00
C880   C     0.30029   0.86106   0.77953   0.00000  Uiso   1.00
C881   C     0.01646   0.86087   0.77981   0.00000  Uiso   1.00
C882   C     0.14154   0.84412   0.99164   0.00000  Uiso   1.00
C883   C     0.03326   0.80594   0.71989   0.00000  Uiso   1.00
C884   C     0.31695   0.80590   0.71998   0.00000  Uiso   1.00
C885   C     0.16666   0.75402   0.74999   0.00000  Uiso   1.00
C886   C     0.19289   0.83404   0.64988   0.00000  Uiso   1.00
C887   C     0.25980   0.87392   0.51610   0.00000  Uiso   1.00
C888   C     0.20749   0.84082   0.59338   0.00000  Uiso   1.00
C889   C     0.07630   0.82406   0.93462   0.00000  Uiso   1.00
C890   C     0.05993   0.82364   0.98883   0.00000  Uiso   1.00
C891   C     0.09160   0.83381   0.51793   0.00000  Uiso   1.00
C892   C     0.15492   0.85157   0.93698   0.00000  Uiso   1.00
C893   C     0.17851   0.84869   0.51717   0.00000  Uiso   1.00
C894   C     0.22364   0.86827   0.99089   0.00000  Uiso   1.00
C895   C     0.23204   0.88215   0.93987   0.00000  Uiso   1.00
C896   C     0.19828   0.87381   0.91324   0.00000  Uiso   1.00
C897   C     0.17317   0.83252   0.56696   0.00000  Uiso   1.00
C898   C     0.25138   0.86090   0.56753   0.00000  Uiso   1.00
Cu899  Cu    0.11978   0.83333   0.75000   0.00000  Uiso   1.00
Cu900  Cu    0.21355   0.83334   0.75000   0.00000  Uiso   1.00
H901   H     0.27838   0.86760   0.58748   0.00000  Uiso   1.00
H902   H     0.29407   0.88923   0.99642   0.00000  Uiso   1.00
H903   H     0.14281   0.81278   0.58605   0.00000  Uiso   1.00
H904   H     0.05132   0.81411   0.91351   0.00000  Uiso   1.00
H905   H     0.02217   0.81531   0.50856   0.00000  Uiso   1.00
H906   H     0.20571   0.88642   0.87448   0.00000  Uiso   1.00
H907   H     0.24216   0.96270   0.75134   0.00000  Uiso   1.00
H908   H     0.05472   0.81006   0.58843   0.00000  Uiso   1.00
H909   H     0.04320   0.86029   0.58094   0.00000  Uiso   1.00
H910   H     0.24219   0.70396   0.75119   0.00000  Uiso   1.00
H911   H     0.09111   0.70395   0.74890   0.00000  Uiso   1.00
H912   H     0.09109   0.96270   0.74903   0.00000  Uiso   1.00
H913   H     0.27524   0.88359   0.80272   0.00000  Uiso   1.00
H914   H     0.02845   0.88293   0.80371   0.00000  Uiso   1.00
H915   H     0.05875   0.78403   0.69573   0.00000  Uiso   1.00
H916   H     0.30500   0.78397   0.69591   0.00000  Uiso   1.00
H917   H     0.26537   0.89869   0.92001   0.00000  Uiso   1.00
N918   N     0.04931   0.83332   0.74998   0.00000  Uiso   1.00
N919   N     0.28402   0.83335   0.74999   0.00000  Uiso   1.00
N920   N     0.07096   0.83806   0.57348   0.00000  Uiso   1.00
O921   O     0.12708   0.89345   0.75000   0.00000  Uiso   1.00
O922   O     0.20627   0.89346   0.75000   0.00000  Uiso   1.00
O923   O     0.10775   0.83332   0.82549   0.00000  Uiso   1.00
O924   O     0.18694   0.83333   0.82549   0.00000  Uiso   1.00
O925   O     0.12706   0.77321   0.74999   0.00000  Uiso   1.00
O926   O     0.20625   0.77322   0.74999   0.00000  Uiso   1.00
O927   O     0.14640   0.83334   0.67451   0.00000  Uiso   1.00
O928   O     0.22559   0.83335   0.67451   0.00000  Uiso   1.00
C929   C     0.49999   0.91265   0.75008   0.00000  Uiso   1.00
C930   C     0.45706   0.83782   0.90795   0.00000  Uiso   1.00
C931   C     0.54236   0.97871   0.75078   0.00000  Uiso   1.00
C932   C     0.47368   0.83533   0.85024   0.00000  Uiso   1.00
C933   C     0.54238   0.68795   0.75071   0.00000  Uiso   1.00
C934   C     0.49999   0.70940   0.75003   0.00000  Uiso   1.00
C935   C     0.45758   0.68794   0.74945   0.00000  Uiso   1.00
C936   C     0.45757   0.97871   0.74951   0.00000  Uiso   1.00
C937   C     0.49997   0.95726   0.75014   0.00000  Uiso   1.00
C938   C     0.63362   0.86106   0.77953   0.00000  Uiso   1.00
C939   C     0.34980   0.86087   0.77981   0.00000  Uiso   1.00
C940   C     0.47488   0.84412   0.99164   0.00000  Uiso   1.00
C941   C     0.36659   0.80594   0.71989   0.00000  Uiso   1.00
C942   C     0.65028   0.80590   0.71998   0.00000  Uiso   1.00
C943   C     0.49999   0.75402   0.74999   0.00000  Uiso   1.00
C944   C     0.52622   0.83404   0.64988   0.00000  Uiso   1.00
C945   C     0.59313   0.87392   0.51610   0.00000  Uiso   1.00
C946   C     0.54082   0.84082   0.59338   0.00000  Uiso   1.00
C947   C     0.40963   0.82406   0.93462   0.00000  Uiso   1.00
C948   C     0.39326   0.82364   0.98883   0.00000  Uiso   1.00
C949   C     0.42493   0.83381   0.51793   0.00000  Uiso   1.00
C950   C     0.48825   0.85157   0.93698   0.00000  Uiso   1.00
C951   C     0.51184   0.84869   0.51717   0.00000  Uiso   1.00
C952   C     0.55697   0.86827   0.99089   0.00000  Uiso   1.00
C953   C     0.56537   0.88215   0.93987   0.00000  Uiso   1.00
C954   C     0.53161   0.87381   0.91324   0.00000  Uiso   1.00
C955   C     0.50651   0.83252   0.56696   0.00000  Uiso   1.00
C956   C     0.58471   0.86090   0.56753   0.00000  Uiso   1.00
Cu957  Cu    0.45311   0.83333   0.75000   0.00000  Uiso   1.00
Cu958  Cu    0.54689   0.83334   0.75000   0.00000  Uiso   1.00
H959   H     0.61171   0.86760   0.58748   0.00000  Uiso   1.00
H960   H     0.62740   0.88923   0.99642   0.00000  Uiso   1.00
H961   H     0.47614   0.81278   0.58605   0.00000  Uiso   1.00
H962   H     0.38466   0.81411   0.91351   0.00000  Uiso   1.00
H963   H     0.35550   0.81531   0.50856   0.00000  Uiso   1.00
H964   H     0.53905   0.88642   0.87448   0.00000  Uiso   1.00
H965   H     0.57549   0.96270   0.75134   0.00000  Uiso   1.00
H966   H     0.38805   0.81006   0.58843   0.00000  Uiso   1.00
H967   H     0.37654   0.86029   0.58094   0.00000  Uiso   1.00
H968   H     0.57553   0.70396   0.75119   0.00000  Uiso   1.00
H969   H     0.42445   0.70395   0.74890   0.00000  Uiso   1.00
H970   H     0.42442   0.96270   0.74903   0.00000  Uiso   1.00
H971   H     0.60857   0.88359   0.80272   0.00000  Uiso   1.00
H972   H     0.36178   0.88293   0.80371   0.00000  Uiso   1.00
H973   H     0.39208   0.78403   0.69573   0.00000  Uiso   1.00
H974   H     0.63834   0.78397   0.69591   0.00000  Uiso   1.00
H975   H     0.59871   0.89869   0.92001   0.00000  Uiso   1.00
N976   N     0.38265   0.83332   0.74998   0.00000  Uiso   1.00
N977   N     0.61735   0.83335   0.74999   0.00000  Uiso   1.00
N978   N     0.40430   0.83806   0.57348   0.00000  Uiso   1.00
O979   O     0.46042   0.89345   0.75000   0.00000  Uiso   1.00
O980   O     0.53961   0.89346   0.75000   0.00000  Uiso   1.00
O981   O     0.44108   0.83332   0.82549   0.00000  Uiso   1.00
O982   O     0.52027   0.83333   0.82549   0.00000  Uiso   1.00
O983   O     0.46039   0.77321   0.74999   0.00000  Uiso   1.00
O984   O     0.53958   0.77322   0.74999   0.00000  Uiso   1.00
O985   O     0.47973   0.83334   0.67451   0.00000  Uiso   1.00
O986   O     0.55892   0.83335   0.67451   0.00000  Uiso   1.00
C987   C     0.83332   0.91265   0.75008   0.00000  Uiso   1.00
C988   C     0.79039   0.83782   0.90795   0.00000  Uiso   1.00
C989   C     0.87569   0.97871   0.75078   0.00000  Uiso   1.00
C990   C     0.80701   0.83533   0.85024   0.00000  Uiso   1.00
C991   C     0.87571   0.68795   0.75071   0.00000  Uiso   1.00
C992   C     0.83332   0.70940   0.75003   0.00000  Uiso   1.00
C993   C     0.79092   0.68794   0.74945   0.00000  Uiso   1.00
C994   C     0.79090   0.97871   0.74951   0.00000  Uiso   1.00
C995   C     0.83330   0.95726   0.75014   0.00000  Uiso   1.00
C996   C     0.96696   0.86106   0.77953   0.00000  Uiso   1.00
C997   C     0.68313   0.86087   0.77981   0.00000  Uiso   1.00
C998   C     0.80821   0.84412   0.99164   0.00000  Uiso   1.00
C999   C     0.69993   0.80594   0.71989   0.00000  Uiso   1.00
C1000  C     0.98361   0.80590   0.71998   0.00000  Uiso   1.00
C1001  C     0.83333   0.75402   0.74999   0.00000  Uiso   1.00
C1002  C     0.85955   0.83404   0.64988   0.00000  Uiso   1.00
C1003  C     0.92646   0.87392   0.51610   0.00000  Uiso   1.00
C1004  C     0.87415   0.84082   0.59338   0.00000  Uiso   1.00
C1005  C     0.74297   0.82406   0.93462   0.00000  Uiso   1.00
C1006  C     0.72659   0.82364   0.98883   0.00000  Uiso   1.00
C1007  C     0.75826   0.83381   0.51793   0.00000  Uiso   1.00
C1008  C     0.82159   0.85157   0.93698   0.00000  Uiso   1.00
C1009  C     0.84518   0.84869   0.51717   0.00000  Uiso   1.00
C1010  C     0.89030   0.86827   0.99089   0.00000  Uiso   1.00
C1011  C     0.89871   0.88215   0.93987   0.00000  Uiso   1.00
C1012  C     0.86494   0.87381   0.91324   0.00000  Uiso   1.00
C1013  C     0.83984   0.83252   0.56696   0.00000  Uiso   1.00
C1014  C     0.91805   0.86090   0.56753   0.00000  Uiso   1.00
Cu1015 Cu    0.78645   0.83333   0.75000   0.00000  Uiso   1.00
Cu1016 Cu    0.88022   0.83334   0.75000   0.00000  Uiso   1.00
H1017  H     0.94504   0.86760   0.58748   0.00000  Uiso   1.00
H1018  H     0.96074   0.88923   0.99642   0.00000  Uiso   1.00
H1019  H     0.80947   0.81278   0.58605   0.00000  Uiso   1.00
H1020  H     0.71799   0.81411   0.91351   0.00000  Uiso   1.00
H1021  H     0.68883   0.81531   0.50856   0.00000  Uiso   1.00
H1022  H     0.87238   0.88642   0.87448   0.00000  Uiso   1.00
H1023  H     0.90882   0.96270   0.75134   0.00000  Uiso   1.00
H1024  H     0.72139   0.81006   0.58843   0.00000  Uiso   1.00
H1025  H     0.70987   0.86029   0.58094   0.00000  Uiso   1.00
H1026  H     0.90886   0.70396   0.75119   0.00000  Uiso   1.00
H1027  H     0.75778   0.70395   0.74890   0.00000  Uiso   1.00
H1028  H     0.75775   0.96270   0.74903   0.00000  Uiso   1.00
H1029  H     0.94190   0.88359   0.80272   0.00000  Uiso   1.00
H1030  H     0.69512   0.88293   0.80371   0.00000  Uiso   1.00
H1031  H     0.72541   0.78403   0.69573   0.00000  Uiso   1.00
H1032  H     0.97167   0.78397   0.69591   0.00000  Uiso   1.00
H1033  H     0.93204   0.89869   0.92001   0.00000  Uiso   1.00
N1034  N     0.71598   0.83332   0.74998   0.00000  Uiso   1.00
N1035  N     0.95069   0.83335   0.74999   0.00000  Uiso   1.00
N1036  N     0.73763   0.83806   0.57348   0.00000  Uiso   1.00
O1037  O     0.79375   0.89345   0.75000   0.00000  Uiso   1.00
O1038  O     0.87294   0.89346   0.75000   0.00000  Uiso   1.00
O1039  O     0.77441   0.83332   0.82549   0.00000  Uiso   1.00
O1040  O     0.85360   0.83333   0.82549   0.00000  Uiso   1.00
O1041  O     0.79373   0.77321   0.74999   0.00000  Uiso   1.00
O1042  O     0.87292   0.77322   0.74999   0.00000  Uiso   1.00
O1043  O     0.81306   0.83334   0.67451   0.00000  Uiso   1.00
O1044  O     0.89225   0.83335   0.67451   0.00000  Uiso   1.00
loop_
_geom_bond_atom_site_label_1
_geom_bond_atom_site_label_2
_geom_bond_distance
_geom_bond_site_symmetry_2
_ccdc_geom_bond_type
C1     C9      1.450   .     S
C1     O51     1.291   .     A
C1     O52     1.291   .     A
C2     C22     1.418   .     A
C2     C4      1.477   .     S
C2     C19     1.402   .     A
C3     C9      1.401   .     A
C3     H37     1.083   .     S
C3     C179    1.384   .     S
C4     O53     1.296   .     A
C4     O54     1.297   .     A
C5     C6      1.401   .     A
C5     H40     1.083   .     S
C5     C351    1.384   1_545 S
C6     C7      1.401   .     A
C6     C15     1.450   .     S
C7     H41     1.083   .     S
C7     C356    1.384   1_545 S
C8     H42     1.083   .     S
C8     C9      1.401   .     A
C8     C181    1.384   .     S
C10    N49     1.367   .     A
C10    H43     1.079   .     S
C10    C69     1.415   .     S
C11    H44     1.082   .     S
C11    N48     1.366   .     A
C11    C126    1.415   1_455 S
C12    C22     1.420   .     A
C12    C543    1.428   .     S
C12    C545    1.427   .     S
C13    N48     1.367   .     A
C13    H45     1.082   .     S
C13    C130    1.416   1_455 S
C14    H46     1.082   .     S
C14    N49     1.367   .     A
C14    C71     1.416   .     S
C15    O56     1.291   .     A
C15    O55     1.291   .     A
C16    O58     1.295   .     A
C16    O57     1.293   .     A
C16    C18     1.462   .     S
C17    C28     1.393   .     A
C17    C546    1.404   1_554 S
C17    H554    1.084   1_554 S
C18    C28     1.399   .     A
C18    C27     1.396   .     A
C19    C20     1.386   .     A
C19    H34     1.083   .     S
C20    C543    1.398   .     S
C20    H557    1.083   .     S
C21    N50     1.433   .     S
C21    C542    1.398   1_554 S
C21    C534    1.428   1_554 S
C22    C26     1.410   .     A
C23    C27     1.401   .     A
C23    C534    1.427   1_554 S
C23    C546    1.421   1_554 S
C24    C25     1.392   .     A
C24    C539    1.404   .     S
C24    C545    1.421   .     S
C25    H47     1.084   .     S
C25    C26     1.387   .     A
C26    H36     1.078   .     S
C27    H33     1.077   .     S
C28    H31     1.083   .     S
Cu29   Cu30    2.676   .     S
Cu29   O53     1.948   .     S
Cu29   O51     1.965   .     S
Cu29   O57     1.936   .     S
Cu29   N48     2.011   .     S
Cu29   O55     1.965   .     S
Cu30   O54     1.936   .     S
Cu30   O58     1.948   .     S
Cu30   N49     2.011   .     S
Cu30   O52     1.965   .     S
Cu30   O56     1.965   .     S
H32    C539    1.084   .     S
H35    C542    1.083   1_554 S
H38    N50     1.046   .     S
H39    N50     1.046   .     S
C59    C67     1.450   .     S
C59    O109    1.291   .     A
C59    O110    1.291   .     A
C60    C80     1.418   .     A
C60    C62     1.477   .     S
C60    C77     1.402   .     A
C61    C67     1.401   .     A
C61    H95     1.083   .     S
C61    C237    1.384   .     S
C62    O111    1.296   .     A
C62    O112    1.297   .     A
C63    C64     1.401   .     A
C63    H98     1.083   .     S
C63    C409    1.384   1_545 S
C64    C65     1.401   .     A
C64    C73     1.450   .     S
C65    H99     1.083   .     S
C65    C414    1.384   1_545 S
C66    H100    1.083   .     S
C66    C67     1.401   .     A
C66    C239    1.384   .     S
C68    N107    1.367   .     A
C68    H101    1.079   .     S
C68    C127    1.415   .     S
C69    H102    1.082   .     S
C69    N106    1.366   .     A
C70    C80     1.420   .     A
C70    C601    1.428   .     S
C70    C603    1.427   .     S
C71    N106    1.367   .     A
C71    H103    1.082   .     S
C72    H104    1.082   .     S
C72    N107    1.367   .     A
C72    C129    1.416   .     S
C73    O114    1.291   .     A
C73    O113    1.291   .     A
C74    O116    1.295   .     A
C74    O115    1.293   .     A
C74    C76     1.462   .     S
C75    C86     1.393   .     A
C75    C604    1.404   1_554 S
C75    H612    1.084   1_554 S
C76    C86     1.399   .     A
C76    C85     1.396   .     A
C77    C78     1.386   .     A
C77    H92     1.083   .     S
C78    C601    1.398   .     S
C78    H615    1.083   .     S
C79    N108    1.433   .     S
C79    C600    1.398   1_554 S
C79    C592    1.428   1_554 S
C80    C84     1.410   .     A
C81    C85     1.401   .     A
C81    C592    1.427   1_554 S
C81    C604    1.421   1_554 S
C82    C83     1.392   .     A
C82    C597    1.404   .     S
C82    C603    1.421   .     S
C83    H105    1.084   .     S
C83    C84     1.387   .     A
C84    H94     1.078   .     S
C85    H91     1.077   .     S
C86    H89     1.083   .     S
Cu87   Cu88    2.676   .     S
Cu87   O111    1.948   .     S
Cu87   O109    1.965   .     S
Cu87   O115    1.936   .     S
Cu87   N106    2.011   .     S
Cu87   O113    1.965   .     S
Cu88   O112    1.936   .     S
Cu88   O116    1.948   .     S
Cu88   N107    2.011   .     S
Cu88   O110    1.965   .     S
Cu88   O114    1.965   .     S
H90    C597    1.084   .     S
H93    C600    1.083   1_554 S
H96    N108    1.046   .     S
H97    N108    1.046   .     S
C117   C125    1.450   .     S
C117   O167    1.291   .     A
C117   O168    1.291   .     A
C118   C138    1.418   .     A
C118   C120    1.477   .     S
C118   C135    1.402   .     A
C119   C125    1.401   .     A
C119   H153    1.083   .     S
C119   C295    1.384   .     S
C120   O169    1.296   .     A
C120   O170    1.297   .     A
C121   C122    1.401   .     A
C121   H156    1.083   .     S
C121   C467    1.384   1_545 S
C122   C123    1.401   .     A
C122   C131    1.450   .     S
C123   H157    1.083   .     S
C123   C472    1.384   1_545 S
C124   H158    1.083   .     S
C124   C125    1.401   .     A
C124   C297    1.384   .     S
C126   N165    1.367   .     A
C126   H159    1.079   .     S
C126   C11     1.415   1_655 S
C127   H160    1.082   .     S
C127   N164    1.366   .     A
C128   C138    1.420   .     A
C128   C659    1.428   .     S
C128   C661    1.427   .     S
C129   N164    1.367   .     A
C129   H161    1.082   .     S
C130   H162    1.082   .     S
C130   N165    1.367   .     A
C130   C13     1.416   1_655 S
C131   O172    1.291   .     A
C131   O171    1.291   .     A
C132   O174    1.295   .     A
C132   O173    1.293   .     A
C132   C134    1.462   .     S
C133   C144    1.393   .     A
C133   C662    1.404   1_554 S
C133   H670    1.084   1_554 S
C134   C144    1.399   .     A
C134   C143    1.396   .     A
C135   C136    1.386   .     A
C135   H150    1.083   .     S
C136   C659    1.398   .     S
C136   H673    1.083   .     S
C137   N166    1.433   .     S
C137   C658    1.398   1_554 S
C137   C650    1.428   1_554 S
C138   C142    1.410   .     A
C139   C143    1.401   .     A
C139   C650    1.427   1_554 S
C139   C662    1.421   1_554 S
C140   C141    1.392   .     A
C140   C655    1.404   .     S
C140   C661    1.421   .     S
C141   H163    1.084   .     S
C141   C142    1.387   .     A
C142   H152    1.078   .     S
C143   H149    1.077   .     S
C144   H147    1.083   .     S
Cu145  Cu146   2.676   .     S
Cu145  O169    1.948   .     S
Cu145  O167    1.965   .     S
Cu145  O173    1.936   .     S
Cu145  N164    2.011   .     S
Cu145  O171    1.965   .     S
Cu146  O170    1.936   .     S
Cu146  O174    1.948   .     S
Cu146  N165    2.011   .     S
Cu146  O168    1.965   .     S
Cu146  O172    1.965   .     S
H148   C655    1.084   .     S
H151   C658    1.083   1_554 S
H154   N166    1.046   .     S
H155   N166    1.046   .     S
C175   C183    1.450   .     S
C175   O225    1.291   .     A
C175   O226    1.291   .     A
C176   C196    1.418   .     A
C176   C178    1.477   .     S
C176   C193    1.402   .     A
C177   C183    1.401   .     A
C177   H211    1.083   .     S
C177   C353    1.384   .     S
C178   O227    1.296   .     A
C178   O228    1.297   .     A
C179   C180    1.401   .     A
C179   H214    1.083   .     S
C180   C181    1.401   .     A
C180   C189    1.450   .     S
C181   H215    1.083   .     S
C182   H216    1.083   .     S
C182   C183    1.401   .     A
C182   C355    1.384   .     S
C184   N223    1.367   .     A
C184   H217    1.079   .     S
C184   C243    1.415   .     S
C185   H218    1.082   .     S
C185   N222    1.366   .     A
C185   C300    1.415   1_455 S
C186   C196    1.420   .     A
C186   C717    1.428   .     S
C186   C719    1.427   .     S
C187   N222    1.367   .     A
C187   H219    1.082   .     S
C187   C304    1.416   1_455 S
C188   H220    1.082   .     S
C188   N223    1.367   .     A
C188   C245    1.416   .     S
C189   O230    1.291   .     A
C189   O229    1.291   .     A
C190   O232    1.295   .     A
C190   O231    1.293   .     A
C190   C192    1.462   .     S
C191   C202    1.393   .     A
C191   C720    1.404   1_554 S
C191   H728    1.084   1_554 S
C192   C202    1.399   .     A
C192   C201    1.396   .     A
C193   C194    1.386   .     A
C193   H208    1.083   .     S
C194   C717    1.398   .     S
C194   H731    1.083   .     S
C195   N224    1.433   .     S
C195   C716    1.398   1_554 S
C195   C708    1.428   1_554 S
C196   C200    1.410   .     A
C197   C201    1.401   .     A
C197   C708    1.427   1_554 S
C197   C720    1.421   1_554 S
C198   C199    1.392   .     A
C198   C713    1.404   .     S
C198   C719    1.421   .     S
C199   H221    1.084   .     S
C199   C200    1.387   .     A
C200   H210    1.078   .     S
C201   H207    1.077   .     S
C202   H205    1.083   .     S
Cu203  Cu204   2.676   .     S
Cu203  O227    1.948   .     S
Cu203  O225    1.965   .     S
Cu203  O231    1.936   .     S
Cu203  N222    2.011   .     S
Cu203  O229    1.965   .     S
Cu204  O228    1.936   .     S
Cu204  O232    1.948   .     S
Cu204  N223    2.011   .     S
Cu204  O226    1.965   .     S
Cu204  O230    1.965   .     S
H206   C713    1.084   .     S
H209   C716    1.083   1_554 S
H212   N224    1.046   .     S
H213   N224    1.046   .     S
C233   C241    1.450   .     S
C233   O283    1.291   .     A
C233   O284    1.291   .     A
C234   C254    1.418   .     A
C234   C236    1.477   .     S
C234   C251    1.402   .     A
C235   C241    1.401   .     A
C235   H269    1.083   .     S
C235   C411    1.384   .     S
C236   O285    1.296   .     A
C236   O286    1.297   .     A
C237   C238    1.401   .     A
C237   H272    1.083   .     S
C238   C239    1.401   .     A
C238   C247    1.450   .     S
C239   H273    1.083   .     S
C240   H274    1.083   .     S
C240   C241    1.401   .     A
C240   C413    1.384   .     S
C242   N281    1.367   .     A
C242   H275    1.079   .     S
C242   C301    1.415   .     S
C243   H276    1.082   .     S
C243   N280    1.366   .     A
C244   C254    1.420   .     A
C244   C775    1.428   .     S
C244   C777    1.427   .     S
C245   N280    1.367   .     A
C245   H277    1.082   .     S
C246   H278    1.082   .     S
C246   N281    1.367   .     A
C246   C303    1.416   .     S
C247   O288    1.291   .     A
C247   O287    1.291   .     A
C248   O290    1.295   .     A
C248   O289    1.293   .     A
C248   C250    1.462   .     S
C249   C260    1.393   .     A
C249   C778    1.404   1_554 S
C249   H786    1.084   1_554 S
C250   C260    1.399   .     A
C250   C259    1.396   .     A
C251   C252    1.386   .     A
C251   H266    1.083   .     S
C252   C775    1.398   .     S
C252   H789    1.083   .     S
C253   N282    1.433   .     S
C253   C774    1.398   1_554 S
C253   C766    1.428   1_554 S
C254   C258    1.410   .     A
C255   C259    1.401   .     A
C255   C766    1.427   1_554 S
C255   C778    1.421   1_554 S
C256   C257    1.392   .     A
C256   C771    1.404   .     S
C256   C777    1.421   .     S
C257   H279    1.084   .     S
C257   C258    1.387   .     A
C258   H268    1.078   .     S
C259   H265    1.077   .     S
C260   H263    1.083   .     S
Cu261  Cu262   2.676   .     S
Cu261  O285    1.948   .     S
Cu261  O283    1.965   .     S
Cu261  O289    1.936   .     S
Cu261  N280    2.011   .     S
Cu261  O287    1.965   .     S
Cu262  O286    1.936   .     S
Cu262  O290    1.948   .     S
Cu262  N281    2.011   .     S
Cu262  O284    1.965   .     S
Cu262  O288    1.965   .     S
H264   C771    1.084   .     S
H267   C774    1.083   1_554 S
H270   N282    1.046   .     S
H271   N282    1.046   .     S
C291   C299    1.450   .     S
C291   O341    1.291   .     A
C291   O342    1.291   .     A
C292   C312    1.418   .     A
C292   C294    1.477   .     S
C292   C309    1.402   .     A
C293   C299    1.401   .     A
C293   H327    1.083   .     S
C293   C469    1.384   .     S
C294   O343    1.296   .     A
C294   O344    1.297   .     A
C295   C296    1.401   .     A
C295   H330    1.083   .     S
C296   C297    1.401   .     A
C296   C305    1.450   .     S
C297   H331    1.083   .     S
C298   H332    1.083   .     S
C298   C299    1.401   .     A
C298   C471    1.384   .     S
C300   N339    1.367   .     A
C300   H333    1.079   .     S
C300   C185    1.415   1_655 S
C301   H334    1.082   .     S
C301   N338    1.366   .     A
C302   C312    1.420   .     A
C302   C833    1.428   .     S
C302   C835    1.427   .     S
C303   N338    1.367   .     A
C303   H335    1.082   .     S
C304   H336    1.082   .     S
C304   N339    1.367   .     A
C304   C187    1.416   1_655 S
C305   O346    1.291   .     A
C305   O345    1.291   .     A
C306   O348    1.295   .     A
C306   O347    1.293   .     A
C306   C308    1.462   .     S
C307   C318    1.393   .     A
C307   C836    1.404   1_554 S
C307   H844    1.084   1_554 S
C308   C318    1.399   .     A
C308   C317    1.396   .     A
C309   C310    1.386   .     A
C309   H324    1.083   .     S
C310   C833    1.398   .     S
C310   H847    1.083   .     S
C311   N340    1.433   .     S
C311   C832    1.398   1_554 S
C311   C824    1.428   1_554 S
C312   C316    1.410   .     A
C313   C317    1.401   .     A
C313   C824    1.427   1_554 S
C313   C836    1.421   1_554 S
C314   C315    1.392   .     A
C314   C829    1.404   .     S
C314   C835    1.421   .     S
C315   H337    1.084   .     S
C315   C316    1.387   .     A
C316   H326    1.078   .     S
C317   H323    1.077   .     S
C318   H321    1.083   .     S
Cu319  Cu320   2.676   .     S
Cu319  O343    1.948   .     S
Cu319  O341    1.965   .     S
Cu319  O347    1.936   .     S
Cu319  N338    2.011   .     S
Cu319  O345    1.965   .     S
Cu320  O344    1.936   .     S
Cu320  O348    1.948   .     S
Cu320  N339    2.011   .     S
Cu320  O342    1.965   .     S
Cu320  O346    1.965   .     S
H322   C829    1.084   .     S
H325   C832    1.083   1_554 S
H328   N340    1.046   .     S
H329   N340    1.046   .     S
C349   C357    1.450   .     S
C349   O399    1.291   .     A
C349   O400    1.291   .     A
C350   C370    1.418   .     A
C350   C352    1.477   .     S
C350   C367    1.402   .     A
C351   C357    1.401   .     A
C351   H385    1.083   .     S
C351   C5      1.384   1_565 S
C352   O401    1.296   .     A
C352   O402    1.297   .     A
C353   C354    1.401   .     A
C353   H388    1.083   .     S
C354   C355    1.401   .     A
C354   C363    1.450   .     S
C355   H389    1.083   .     S
C356   H390    1.083   .     S
C356   C357    1.401   .     A
C356   C7      1.384   1_565 S
C358   N397    1.367   .     A
C358   H391    1.079   .     S
C358   C417    1.415   .     S
C359   H392    1.082   .     S
C359   N396    1.366   .     A
C359   C474    1.415   1_455 S
C360   C370    1.420   .     A
C360   C891    1.428   .     S
C360   C893    1.427   .     S
C361   N396    1.367   .     A
C361   H393    1.082   .     S
C361   C478    1.416   1_455 S
C362   H394    1.082   .     S
C362   N397    1.367   .     A
C362   C419    1.416   .     S
C363   O404    1.291   .     A
C363   O403    1.291   .     A
C364   O406    1.295   .     A
C364   O405    1.293   .     A
C364   C366    1.462   .     S
C365   C376    1.393   .     A
C365   C894    1.404   1_554 S
C365   H902    1.084   1_554 S
C366   C376    1.399   .     A
C366   C375    1.396   .     A
C367   C368    1.386   .     A
C367   H382    1.083   .     S
C368   C891    1.398   .     S
C368   H905    1.083   .     S
C369   N398    1.433   .     S
C369   C890    1.398   1_554 S
C369   C882    1.428   1_554 S
C370   C374    1.410   .     A
C371   C375    1.401   .     A
C371   C882    1.427   1_554 S
C371   C894    1.421   1_554 S
C372   C373    1.392   .     A
C372   C887    1.404   .     S
C372   C893    1.421   .     S
C373   H395    1.084   .     S
C373   C374    1.387   .     A
C374   H384    1.078   .     S
C375   H381    1.077   .     S
C376   H379    1.083   .     S
Cu377  Cu378   2.676   .     S
Cu377  O401    1.948   .     S
Cu377  O399    1.965   .     S
Cu377  O405    1.936   .     S
Cu377  N396    2.011   .     S
Cu377  O403    1.965   .     S
Cu378  O402    1.936   .     S
Cu378  O406    1.948   .     S
Cu378  N397    2.011   .     S
Cu378  O400    1.965   .     S
Cu378  O404    1.965   .     S
H380   C887    1.084   .     S
H383   C890    1.083   1_554 S
H386   N398    1.046   .     S
H387   N398    1.046   .     S
C407   C415    1.450   .     S
C407   O457    1.291   .     A
C407   O458    1.291   .     A
C408   C428    1.418   .     A
C408   C410    1.477   .     S
C408   C425    1.402   .     A
C409   C415    1.401   .     A
C409   H443    1.083   .     S
C409   C63     1.384   1_565 S
C410   O459    1.296   .     A
C410   O460    1.297   .     A
C411   C412    1.401   .     A
C411   H446    1.083   .     S
C412   C413    1.401   .     A
C412   C421    1.450   .     S
C413   H447    1.083   .     S
C414   H448    1.083   .     S
C414   C415    1.401   .     A
C414   C65     1.384   1_565 S
C416   N455    1.367   .     A
C416   H449    1.079   .     S
C416   C475    1.415   .     S
C417   H450    1.082   .     S
C417   N454    1.366   .     A
C418   C428    1.420   .     A
C418   C949    1.428   .     S
C418   C951    1.427   .     S
C419   N454    1.367   .     A
C419   H451    1.082   .     S
C420   H452    1.082   .     S
C420   N455    1.367   .     A
C420   C477    1.416   .     S
C421   O462    1.291   .     A
C421   O461    1.291   .     A
C422   O464    1.295   .     A
C422   O463    1.293   .     A
C422   C424    1.462   .     S
C423   C434    1.393   .     A
C423   C952    1.404   1_554 S
C423   H960    1.084   1_554 S
C424   C434    1.399   .     A
C424   C433    1.396   .     A
C425   C426    1.386   .     A
C425   H440    1.083   .     S
C426   C949    1.398   .     S
C426   H963    1.083   .     S
C427   N456    1.433   .     S
C427   C948    1.398   1_554 S
C427   C940    1.428   1_554 S
C428   C432    1.410   .     A
C429   C433    1.401   .     A
C429   C940    1.427   1_554 S
C429   C952    1.421   1_554 S
C430   C431    1.392   .     A
C430   C945    1.404   .     S
C430   C951    1.421   .     S
C431   H453    1.084   .     S
C431   C432    1.387   .     A
C432   H442    1.078   .     S
C433   H439    1.077   .     S
C434   H437    1.083   .     S
Cu435  Cu436   2.676   .     S
Cu435  O459    1.948   .     S
Cu435  O457    1.965   .     S
Cu435  O463    1.936   .     S
Cu435  N454    2.011   .     S
Cu435  O461    1.965   .     S
Cu436  O460    1.936   .     S
Cu436  O464    1.948   .     S
Cu436  N455    2.011   .     S
Cu436  O458    1.965   .     S
Cu436  O462    1.965   .     S
H438   C945    1.084   .     S
H441   C948    1.083   1_554 S
H444   N456    1.046   .     S
H445   N456    1.046   .     S
C465   C473    1.450   .     S
C465   O515    1.291   .     A
C465   O516    1.291   .     A
C466   C486    1.418   .     A
C466   C468    1.477   .     S
C466   C483    1.402   .     A
C467   C473    1.401   .     A
C467   H501    1.083   .     S
C467   C121    1.384   1_565 S
C468   O517    1.296   .     A
C468   O518    1.297   .     A
C469   C470    1.401   .     A
C469   H504    1.083   .     S
C470   C471    1.401   .     A
C470   C479    1.450   .     S
C471   H505    1.083   .     S
C472   H506    1.083   .     S
C472   C473    1.401   .     A
C472   C123    1.384   1_565 S
C474   N513    1.367   .     A
C474   H507    1.079   .     S
C474   C359    1.415   1_655 S
C475   H508    1.082   .     S
C475   N512    1.366   .     A
C476   C486    1.420   .     A
C476   C1007   1.428   .     S
C476   C1009   1.427   .     S
C477   N512    1.367   .     A
C477   H509    1.082   .     S
C478   H510    1.082   .     S
C478   N513    1.367   .     A
C478   C361    1.416   1_655 S
C479   O520    1.291   .     A
C479   O519    1.291   .     A
C480   O522    1.295   .     A
C480   O521    1.293   .     A
C480   C482    1.462   .     S
C481   C492    1.393   .     A
C481   C1010   1.404   1_554 S
C481   H1018   1.084   1_554 S
C482   C492    1.399   .     A
C482   C491    1.396   .     A
C483   C484    1.386   .     A
C483   H498    1.083   .     S
C484   C1007   1.398   .     S
C484   H1021   1.083   .     S
C485   N514    1.433   .     S
C485   C1006   1.398   1_554 S
C485   C998    1.428   1_554 S
C486   C490    1.410   .     A
C487   C491    1.401   .     A
C487   C998    1.427   1_554 S
C487   C1010   1.421   1_554 S
C488   C489    1.392   .     A
C488   C1003   1.404   .     S
C488   C1009   1.421   .     S
C489   H511    1.084   .     S
C489   C490    1.387   .     A
C490   H500    1.078   .     S
C491   H497    1.077   .     S
C492   H495    1.083   .     S
Cu493  Cu494   2.676   .     S
Cu493  O517    1.948   .     S
Cu493  O515    1.965   .     S
Cu493  O521    1.936   .     S
Cu493  N512    2.011   .     S
Cu493  O519    1.965   .     S
Cu494  O518    1.936   .     S
Cu494  O522    1.948   .     S
Cu494  N513    2.011   .     S
Cu494  O516    1.965   .     S
Cu494  O520    1.965   .     S
H496   C1003   1.084   .     S
H499   C1006   1.083   1_554 S
H502   N514    1.046   .     S
H503   N514    1.046   .     S
C523   C531    1.450   .     S
C523   O573    1.291   .     A
C523   O574    1.291   .     A
C524   C544    1.418   .     A
C524   C526    1.477   .     S
C524   C541    1.402   .     A
C525   C531    1.401   .     A
C525   H559    1.083   .     S
C525   C701    1.384   .     S
C526   O575    1.296   .     A
C526   O576    1.297   .     A
C527   C528    1.401   .     A
C527   H562    1.083   .     S
C527   C873    1.384   1_545 S
C528   C529    1.401   .     A
C528   C537    1.450   .     S
C529   H563    1.083   .     S
C529   C878    1.384   1_545 S
C530   H564    1.083   .     S
C530   C531    1.401   .     A
C530   C703    1.384   .     S
C532   N571    1.367   .     A
C532   H565    1.079   .     S
C532   C591    1.415   .     S
C533   H566    1.082   .     S
C533   N570    1.366   .     A
C533   C648    1.415   1_455 S
C534   C544    1.420   .     A
C534   C21     1.428   1_556 S
C534   C23     1.427   1_556 S
C535   N570    1.367   .     A
C535   H567    1.082   .     S
C535   C652    1.416   1_455 S
C536   H568    1.082   .     S
C536   N571    1.367   .     A
C536   C593    1.416   .     S
C537   O578    1.291   .     A
C537   O577    1.291   .     A
C538   O580    1.295   .     A
C538   O579    1.293   .     A
C538   C540    1.462   .     S
C539   C550    1.393   .     A
C540   C550    1.399   .     A
C540   C549    1.396   .     A
C541   C542    1.386   .     A
C541   H556    1.083   .     S
C542   C21     1.398   1_556 S
C542   H35     1.083   1_556 S
C543   N572    1.433   .     S
C544   C548    1.410   .     A
C545   C549    1.401   .     A
C546   C547    1.392   .     A
C546   C17     1.404   1_556 S
C546   C23     1.421   1_556 S
C547   H569    1.084   .     S
C547   C548    1.387   .     A
C548   H558    1.078   .     S
C549   H555    1.077   .     S
C550   H553    1.083   .     S
Cu551  Cu552   2.676   .     S
Cu551  O575    1.948   .     S
Cu551  O573    1.965   .     S
Cu551  O579    1.936   .     S
Cu551  N570    2.011   .     S
Cu551  O577    1.965   .     S
Cu552  O576    1.936   .     S
Cu552  O580    1.948   .     S
Cu552  N571    2.011   .     S
Cu552  O574    1.965   .     S
Cu552  O578    1.965   .     S
H554   C17     1.084   1_556 S
H560   N572    1.046   .     S
H561   N572    1.046   .     S
C581   C589    1.450   .     S
C581   O631    1.291   .     A
C581   O632    1.291   .     A
C582   C602    1.418   .     A
C582   C584    1.477   .     S
C582   C599    1.402   .     A
C583   C589    1.401   .     A
C583   H617    1.083   .     S
C583   C759    1.384   .     S
C584   O633    1.296   .     A
C584   O634    1.297   .     A
C585   C586    1.401   .     A
C585   H620    1.083   .     S
C585   C931    1.384   1_545 S
C586   C587    1.401   .     A
C586   C595    1.450   .     S
C587   H621    1.083   .     S
C587   C936    1.384   1_545 S
C588   H622    1.083   .     S
C588   C589    1.401   .     A
C588   C761    1.384   .     S
C590   N629    1.367   .     A
C590   H623    1.079   .     S
C590   C649    1.415   .     S
C591   H624    1.082   .     S
C591   N628    1.366   .     A
C592   C602    1.420   .     A
C592   C79     1.428   1_556 S
C592   C81     1.427   1_556 S
C593   N628    1.367   .     A
C593   H625    1.082   .     S
C594   H626    1.082   .     S
C594   N629    1.367   .     A
C594   C651    1.416   .     S
C595   O636    1.291   .     A
C595   O635    1.291   .     A
C596   O638    1.295   .     A
C596   O637    1.293   .     A
C596   C598    1.462   .     S
C597   C608    1.393   .     A
C598   C608    1.399   .     A
C598   C607    1.396   .     A
C599   C600    1.386   .     A
C599   H614    1.083   .     S
C600   C79     1.398   1_556 S
C600   H93     1.083   1_556 S
C601   N630    1.433   .     S
C602   C606    1.410   .     A
C603   C607    1.401   .     A
C604   C605    1.392   .     A
C604   C75     1.404   1_556 S
C604   C81     1.421   1_556 S
C605   H627    1.084   .     S
C605   C606    1.387   .     A
C606   H616    1.078   .     S
C607   H613    1.077   .     S
C608   H611    1.083   .     S
Cu609  Cu610   2.676   .     S
Cu609  O633    1.948   .     S
Cu609  O631    1.965   .     S
Cu609  O637    1.936   .     S
Cu609  N628    2.011   .     S
Cu609  O635    1.965   .     S
Cu610  O634    1.936   .     S
Cu610  O638    1.948   .     S
Cu610  N629    2.011   .     S
Cu610  O632    1.965   .     S
Cu610  O636    1.965   .     S
H612   C75     1.084   1_556 S
H618   N630    1.046   .     S
H619   N630    1.046   .     S
C639   C647    1.450   .     S
C639   O689    1.291   .     A
C639   O690    1.291   .     A
C640   C660    1.418   .     A
C640   C642    1.477   .     S
C640   C657    1.402   .     A
C641   C647    1.401   .     A
C641   H675    1.083   .     S
C641   C817    1.384   .     S
C642   O691    1.296   .     A
C642   O692    1.297   .     A
C643   C644    1.401   .     A
C643   H678    1.083   .     S
C643   C989    1.384   1_545 S
C644   C645    1.401   .     A
C644   C653    1.450   .     S
C645   H679    1.083   .     S
C645   C994    1.384   1_545 S
C646   H680    1.083   .     S
C646   C647    1.401   .     A
C646   C819    1.384   .     S
C648   N687    1.367   .     A
C648   H681    1.079   .     S
C648   C533    1.415   1_655 S
C649   H682    1.082   .     S
C649   N686    1.366   .     A
C650   C660    1.420   .     A
C650   C137    1.428   1_556 S
C650   C139    1.427   1_556 S
C651   N686    1.367   .     A
C651   H683    1.082   .     S
C652   H684    1.082   .     S
C652   N687    1.367   .     A
C652   C535    1.416   1_655 S
C653   O694    1.291   .     A
C653   O693    1.291   .     A
C654   O696    1.295   .     A
C654   O695    1.293   .     A
C654   C656    1.462   .     S
C655   C666    1.393   .     A
C656   C666    1.399   .     A
C656   C665    1.396   .     A
C657   C658    1.386   .     A
C657   H672    1.083   .     S
C658   C137    1.398   1_556 S
C658   H151    1.083   1_556 S
C659   N688    1.433   .     S
C660   C664    1.410   .     A
C661   C665    1.401   .     A
C662   C663    1.392   .     A
C662   C133    1.404   1_556 S
C662   C139    1.421   1_556 S
C663   H685    1.084   .     S
C663   C664    1.387   .     A
C664   H674    1.078   .     S
C665   H671    1.077   .     S
C666   H669    1.083   .     S
Cu667  Cu668   2.676   .     S
Cu667  O691    1.948   .     S
Cu667  O689    1.965   .     S
Cu667  O695    1.936   .     S
Cu667  N686    2.011   .     S
Cu667  O693    1.965   .     S
Cu668  O692    1.936   .     S
Cu668  O696    1.948   .     S
Cu668  N687    2.011   .     S
Cu668  O690    1.965   .     S
Cu668  O694    1.965   .     S
H670   C133    1.084   1_556 S
H676   N688    1.046   .     S
H677   N688    1.046   .     S
C697   C705    1.450   .     S
C697   O747    1.291   .     A
C697   O748    1.291   .     A
C698   C718    1.418   .     A
C698   C700    1.477   .     S
C698   C715    1.402   .     A
C699   C705    1.401   .     A
C699   H733    1.083   .     S
C699   C875    1.384   .     S
C700   O749    1.296   .     A
C700   O750    1.297   .     A
C701   C702    1.401   .     A
C701   H736    1.083   .     S
C702   C703    1.401   .     A
C702   C711    1.450   .     S
C703   H737    1.083   .     S
C704   H738    1.083   .     S
C704   C705    1.401   .     A
C704   C877    1.384   .     S
C706   N745    1.367   .     A
C706   H739    1.079   .     S
C706   C765    1.415   .     S
C707   H740    1.082   .     S
C707   N744    1.366   .     A
C707   C822    1.415   1_455 S
C708   C718    1.420   .     A
C708   C195    1.428   1_556 S
C708   C197    1.427   1_556 S
C709   N744    1.367   .     A
C709   H741    1.082   .     S
C709   C826    1.416   1_455 S
C710   H742    1.082   .     S
C710   N745    1.367   .     A
C710   C767    1.416   .     S
C711   O752    1.291   .     A
C711   O751    1.291   .     A
C712   O754    1.295   .     A
C712   O753    1.293   .     A
C712   C714    1.462   .     S
C713   C724    1.393   .     A
C714   C724    1.399   .     A
C714   C723    1.396   .     A
C715   C716    1.386   .     A
C715   H730    1.083   .     S
C716   C195    1.398   1_556 S
C716   H209    1.083   1_556 S
C717   N746    1.433   .     S
C718   C722    1.410   .     A
C719   C723    1.401   .     A
C720   C721    1.392   .     A
C720   C191    1.404   1_556 S
C720   C197    1.421   1_556 S
C721   H743    1.084   .     S
C721   C722    1.387   .     A
C722   H732    1.078   .     S
C723   H729    1.077   .     S
C724   H727    1.083   .     S
Cu725  Cu726   2.676   .     S
Cu725  O749    1.948   .     S
Cu725  O747    1.965   .     S
Cu725  O753    1.936   .     S
Cu725  N744    2.011   .     S
Cu725  O751    1.965   .     S
Cu726  O750    1.936   .     S
Cu726  O754    1.948   .     S
Cu726  N745    2.011   .     S
Cu726  O748    1.965   .     S
Cu726  O752    1.965   .     S
H728   C191    1.084   1_556 S
H734   N746    1.046   .     S
H735   N746    1.046   .     S
C755   C763    1.450   .     S
C755   O805    1.291   .     A
C755   O806    1.291   .     A
C756   C776    1.418   .     A
C756   C758    1.477   .     S
C756   C773    1.402   .     A
C757   C763    1.401   .     A
C757   H791    1.083   .     S
C757   C933    1.384   .     S
C758   O807    1.296   .     A
C758   O808    1.297   .     A
C759   C760    1.401   .     A
C759   H794    1.083   .     S
C760   C761    1.401   .     A
C760   C769    1.450   .     S
C761   H795    1.083   .     S
C762   H796    1.083   .     S
C762   C763    1.401   .     A
C762   C935    1.384   .     S
C764   N803    1.367   .     A
C764   H797    1.079   .     S
C764   C823    1.415   .     S
C765   H798    1.082   .     S
C765   N802    1.366   .     A
C766   C776    1.420   .     A
C766   C253    1.428   1_556 S
C766   C255    1.427   1_556 S
C767   N802    1.367   .     A
C767   H799    1.082   .     S
C768   H800    1.082   .     S
C768   N803    1.367   .     A
C768   C825    1.416   .     S
C769   O810    1.291   .     A
C769   O809    1.291   .     A
C770   O812    1.295   .     A
C770   O811    1.293   .     A
C770   C772    1.462   .     S
C771   C782    1.393   .     A
C772   C782    1.399   .     A
C772   C781    1.396   .     A
C773   C774    1.386   .     A
C773   H788    1.083   .     S
C774   C253    1.398   1_556 S
C774   H267    1.083   1_556 S
C775   N804    1.433   .     S
C776   C780    1.410   .     A
C777   C781    1.401   .     A
C778   C779    1.392   .     A
C778   C249    1.404   1_556 S
C778   C255    1.421   1_556 S
C779   H801    1.084   .     S
C779   C780    1.387   .     A
C780   H790    1.078   .     S
C781   H787    1.077   .     S
C782   H785    1.083   .     S
Cu783  Cu784   2.676   .     S
Cu783  O807    1.948   .     S
Cu783  O805    1.965   .     S
Cu783  O811    1.936   .     S
Cu783  N802    2.011   .     S
Cu783  O809    1.965   .     S
Cu784  O808    1.936   .     S
Cu784  O812    1.948   .     S
Cu784  N803    2.011   .     S
Cu784  O806    1.965   .     S
Cu784  O810    1.965   .     S
H786   C249    1.084   1_556 S
H792   N804    1.046   .     S
H793   N804    1.046   .     S
C813   C821    1.450   .     S
C813   O863    1.291   .     A
C813   O864    1.291   .     A
C814   C834    1.418   .     A
C814   C816    1.477   .     S
C814   C831    1.402   .     A
C815   C821    1.401   .     A
C815   H849    1.083   .     S
C815   C991    1.384   .     S
C816   O865    1.296   .     A
C816   O866    1.297   .     A
C817   C818    1.401   .     A
C817   H852    1.083   .     S
C818   C819    1.401   .     A
C818   C827    1.450   .     S
C819   H853    1.083   .     S
C820   H854    1.083   .     S
C820   C821    1.401   .     A
C820   C993    1.384   .     S
C822   N861    1.367   .     A
C822   H855    1.079   .     S
C822   C707    1.415   1_655 S
C823   H856    1.082   .     S
C823   N860    1.366   .     A
C824   C834    1.420   .     A
C824   C311    1.428   1_556 S
C824   C313    1.427   1_556 S
C825   N860    1.367   .     A
C825   H857    1.082   .     S
C826   H858    1.082   .     S
C826   N861    1.367   .     A
C826   C709    1.416   1_655 S
C827   O868    1.291   .     A
C827   O867    1.291   .     A
C828   O870    1.295   .     A
C828   O869    1.293   .     A
C828   C830    1.462   .     S
C829   C840    1.393   .     A
C830   C840    1.399   .     A
C830   C839    1.396   .     A
C831   C832    1.386   .     A
C831   H846    1.083   .     S
C832   C311    1.398   1_556 S
C832   H325    1.083   1_556 S
C833   N862    1.433   .     S
C834   C838    1.410   .     A
C835   C839    1.401   .     A
C836   C837    1.392   .     A
C836   C307    1.404   1_556 S
C836   C313    1.421   1_556 S
C837   H859    1.084   .     S
C837   C838    1.387   .     A
C838   H848    1.078   .     S
C839   H845    1.077   .     S
C840   H843    1.083   .     S
Cu841  Cu842   2.676   .     S
Cu841  O865    1.948   .     S
Cu841  O863    1.965   .     S
Cu841  O869    1.936   .     S
Cu841  N860    2.011   .     S
Cu841  O867    1.965   .     S
Cu842  O866    1.936   .     S
Cu842  O870    1.948   .     S
Cu842  N861    2.011   .     S
Cu842  O864    1.965   .     S
Cu842  O868    1.965   .     S
H844   C307    1.084   1_556 S
H850   N862    1.046   .     S
H851   N862    1.046   .     S
C871   C879    1.450   .     S
C871   O921    1.291   .     A
C871   O922    1.291   .     A
C872   C892    1.418   .     A
C872   C874    1.477   .     S
C872   C889    1.402   .     A
C873   C879    1.401   .     A
C873   H907    1.083   .     S
C873   C527    1.384   1_565 S
C874   O923    1.296   .     A
C874   O924    1.297   .     A
C875   C876    1.401   .     A
C875   H910    1.083   .     S
C876   C877    1.401   .     A
C876   C885    1.450   .     S
C877   H911    1.083   .     S
C878   H912    1.083   .     S
C878   C879    1.401   .     A
C878   C529    1.384   1_565 S
C880   N919    1.367   .     A
C880   H913    1.079   .     S
C880   C939    1.415   .     S
C881   H914    1.082   .     S
C881   N918    1.366   .     A
C881   C996    1.415   1_455 S
C882   C892    1.420   .     A
C882   C369    1.428   1_556 S
C882   C371    1.427   1_556 S
C883   N918    1.367   .     A
C883   H915    1.082   .     S
C883   C1000   1.416   1_455 S
C884   H916    1.082   .     S
C884   N919    1.367   .     A
C884   C941    1.416   .     S
C885   O926    1.291   .     A
C885   O925    1.291   .     A
C886   O928    1.295   .     A
C886   O927    1.293   .     A
C886   C888    1.462   .     S
C887   C898    1.393   .     A
C888   C898    1.399   .     A
C888   C897    1.396   .     A
C889   C890    1.386   .     A
C889   H904    1.083   .     S
C890   C369    1.398   1_556 S
C890   H383    1.083   1_556 S
C891   N920    1.433   .     S
C892   C896    1.410   .     A
C893   C897    1.401   .     A
C894   C895    1.392   .     A
C894   C365    1.404   1_556 S
C894   C371    1.421   1_556 S
C895   H917    1.084   .     S
C895   C896    1.387   .     A
C896   H906    1.078   .     S
C897   H903    1.077   .     S
C898   H901    1.083   .     S
Cu899  Cu900   2.676   .     S
Cu899  O923    1.948   .     S
Cu899  O921    1.965   .     S
Cu899  O927    1.936   .     S
Cu899  N918    2.011   .     S
Cu899  O925    1.965   .     S
Cu900  O924    1.936   .     S
Cu900  O928    1.948   .     S
Cu900  N919    2.011   .     S
Cu900  O922    1.965   .     S
Cu900  O926    1.965   .     S
H902   C365    1.084   1_556 S
H908   N920    1.046   .     S
H909   N920    1.046   .     S
C929   C937    1.450   .     S
C929   O979    1.291   .     A
C929   O980    1.291   .     A
C930   C950    1.418   .     A
C930   C932    1.477   .     S
C930   C947    1.402   .     A
C931   C937    1.401   .     A
C931   H965    1.083   .     S
C931   C585    1.384   1_565 S
C932   O981    1.296   .     A
C932   O982    1.297   .     A
C933   C934    1.401   .     A
C933   H968    1.083   .     S
C934   C935    1.401   .     A
C934   C943    1.450   .     S
C935   H969    1.083   .     S
C936   H970    1.083   .     S
C936   C937    1.401   .     A
C936   C587    1.384   1_565 S
C938   N977    1.367   .     A
C938   H971    1.079   .     S
C938   C997    1.415   .     S
C939   H972    1.082   .     S
C939   N976    1.366   .     A
C940   C950    1.420   .     A
C940   C427    1.428   1_556 S
C940   C429    1.427   1_556 S
C941   N976    1.367   .     A
C941   H973    1.082   .     S
C942   H974    1.082   .     S
C942   N977    1.367   .     A
C942   C999    1.416   .     S
C943   O984    1.291   .     A
C943   O983    1.291   .     A
C944   O986    1.295   .     A
C944   O985    1.293   .     A
C944   C946    1.462   .     S
C945   C956    1.393   .     A
C946   C956    1.399   .     A
C946   C955    1.396   .     A
C947   C948    1.386   .     A
C947   H962    1.083   .     S
C948   C427    1.398   1_556 S
C948   H441    1.083   1_556 S
C949   N978    1.433   .     S
C950   C954    1.410   .     A
C951   C955    1.401   .     A
C952   C953    1.392   .     A
C952   C423    1.404   1_556 S
C952   C429    1.421   1_556 S
C953   H975    1.084   .     S
C953   C954    1.387   .     A
C954   H964    1.078   .     S
C955   H961    1.077   .     S
C956   H959    1.083   .     S
Cu957  Cu958   2.676   .     S
Cu957  O981    1.948   .     S
Cu957  O979    1.965   .     S
Cu957  O985    1.936   .     S
Cu957  N976    2.011   .     S
Cu957  O983    1.965   .     S
Cu958  O982    1.936   .     S
Cu958  O986    1.948   .     S
Cu958  N977    2.011   .     S
Cu958  O980    1.965   .     S
Cu958  O984    1.965   .     S
H960   C423    1.084   1_556 S
H966   N978    1.046   .     S
H967   N978    1.046   .     S
C987   C995    1.450   .     S
C987   O1037   1.291   .     A
C987   O1038   1.291   .     A
C988   C1008   1.418   .     A
C988   C990    1.477   .     S
C988   C1005   1.402   .     A
C989   C995    1.401   .     A
C989   H1023   1.083   .     S
C989   C643    1.384   1_565 S
C990   O1039   1.296   .     A
C990   O1040   1.297   .     A
C991   C992    1.401   .     A
C991   H1026   1.083   .     S
C992   C993    1.401   .     A
C992   C1001   1.450   .     S
C993   H1027   1.083   .     S
C994   H1028   1.083   .     S
C994   C995    1.401   .     A
C994   C645    1.384   1_565 S
C996   N1035   1.367   .     A
C996   H1029   1.079   .     S
C996   C881    1.415   1_655 S
C997   H1030   1.082   .     S
C997   N1034   1.366   .     A
C998   C1008   1.420   .     A
C998   C485    1.428   1_556 S
C998   C487    1.427   1_556 S
C999   N1034   1.367   .     A
C999   H1031   1.082   .     S
C1000  H1032   1.082   .     S
C1000  N1035   1.367   .     A
C1000  C883    1.416   1_655 S
C1001  O1042   1.291   .     A
C1001  O1041   1.291   .     A
C1002  O1044   1.295   .     A
C1002  O1043   1.293   .     A
C1002  C1004   1.462   .     S
C1003  C1014   1.393   .     A
C1004  C1014   1.399   .     A
C1004  C1013   1.396   .     A
C1005  C1006   1.386   .     A
C1005  H1020   1.083   .     S
C1006  C485    1.398   1_556 S
C1006  H499    1.083   1_556 S
C1007  N1036   1.433   .     S
C1008  C1012   1.410   .     A
C1009  C1013   1.401   .     A
C1010  C1011   1.392   .     A
C1010  C481    1.404   1_556 S
C1010  C487    1.421   1_556 S
C1011  H1033   1.084   .     S
C1011  C1012   1.387   .     A
C1012  H1022   1.078   .     S
C1013  H1019   1.077   .     S
C1014  H1017   1.083   .     S
Cu1015 Cu1016  2.676   .     S
Cu1015 O1039   1.948   .     S
Cu1015 O1037   1.965   .     S
Cu1015 O1043   1.936   .     S
Cu1015 N1034   2.011   .     S
Cu1015 O1041   1.965   .     S
Cu1016 O1040   1.936   .     S
Cu1016 O1044   1.948   .     S
Cu1016 N1035   2.011   .     S
Cu1016 O1038   1.965   .     S
Cu1016 O1042   1.965   .     S
H1018  C481    1.084   1_556 S
H1024  N1036   1.046   .     S
H1025  N1036   1.046   .     S
