data_str_m2_o1_o5_pcu_sym.59
_audit_creation_date              2020-01-03
_audit_creation_method            'Materials Studio'
_symmetry_space_group_name_H-M    'P1'
_symmetry_Int_Tables_number       1
_symmetry_cell_setting            triclinic
loop_
_symmetry_equiv_pos_as_xyz
  x,y,z
_cell_length_a                    32.4097
_cell_length_b                    28.9597
_cell_length_c                    27.2286
_cell_angle_alpha                 89.9694
_cell_angle_beta                  92.5523
_cell_angle_gamma                 89.8070
loop_
_atom_site_label
_atom_site_type_symbol
_atom_site_fract_x
_atom_site_fract_y
_atom_site_fract_z
_atom_site_U_iso_or_equiv
_atom_site_adp_type
_atom_site_occupancy
C1     C     0.08756   0.16672   0.16660   0.00000  Uiso   1.00
C2     C     0.02035   0.19444   0.13264   0.00000  Uiso   1.00
C3     C     0.29049   0.16644   0.16646   0.00000  Uiso   1.00
C4     C     0.04284   0.16690   0.16687   0.00000  Uiso   1.00
C5     C     0.14663   0.02455   0.12960   0.00000  Uiso   1.00
C6     C     0.18670   0.30879   0.20373   0.00000  Uiso   1.00
C7     C     0.18668   0.02431   0.20375   0.00000  Uiso   1.00
C8     C     0.14666   0.30902   0.12959   0.00000  Uiso   1.00
C9     C     0.24577   0.16661   0.16673   0.00000  Uiso   1.00
C10    C     0.16656   0.16668   0.07367   0.00000  Uiso   1.00
C11    C     0.16677   0.16666   0.25967   0.00000  Uiso   1.00
C12    C     0.16663   0.16668   0.02187   0.00000  Uiso   1.00
C13    C     0.16671   0.16665   0.31146   0.00000  Uiso   1.00
C14    C     0.02306   0.13806   0.19991   0.00000  Uiso   1.00
C15    C     0.31027   0.19528   0.13342   0.00000  Uiso   1.00
C16    C     0.31298   0.13889   0.20069   0.00000  Uiso   1.00
Cu17   Cu    0.16667   0.21355   0.16667   0.00000  Uiso   1.00
Cu18   Cu    0.16667   0.11978   0.16667   0.00000  Uiso   1.00
H19    H     0.03093   0.08172   0.23800   0.00000  Uiso   1.00
H20    H     0.30241   0.25161   0.09533   0.00000  Uiso   1.00
H21    H     0.30976   0.11209   0.26596   0.00000  Uiso   1.00
H22    H     0.02357   0.22124   0.06737   0.00000  Uiso   1.00
H23    H     0.11234   0.07397   0.10422   0.00000  Uiso   1.00
H24    H     0.22099   0.25936   0.22911   0.00000  Uiso   1.00
H25    H     0.22033   0.07376   0.22922   0.00000  Uiso   1.00
H26    H     0.11301   0.25957   0.10412   0.00000  Uiso   1.00
N27    N     0.16667   0.28402   0.16667   0.00000  Uiso   1.00
N28    N     0.16667   0.04931   0.16667   0.00000  Uiso   1.00
O29    O     0.10655   0.20625   0.16666   0.00000  Uiso   1.00
O30    O     0.28643   0.22349   0.10248   0.00000  Uiso   1.00
O31    O     0.29179   0.11536   0.23579   0.00000  Uiso   1.00
O32    O     0.04154   0.21797   0.09755   0.00000  Uiso   1.00
O33    O     0.12499   0.04586   0.09134   0.00000  Uiso   1.00
O34    O     0.20834   0.28747   0.24200   0.00000  Uiso   1.00
O35    O     0.20831   0.04538   0.24200   0.00000  Uiso   1.00
O36    O     0.12503   0.28795   0.09133   0.00000  Uiso   1.00
O37    O     0.22679   0.12709   0.16667   0.00000  Uiso   1.00
O38    O     0.22679   0.20625   0.16667   0.00000  Uiso   1.00
O39    O     0.10655   0.12709   0.16666   0.00000  Uiso   1.00
O40    O     0.16667   0.20625   0.09613   0.00000  Uiso   1.00
O41    O     0.16667   0.12708   0.23720   0.00000  Uiso   1.00
O42    O     0.16667   0.20625   0.23720   0.00000  Uiso   1.00
O43    O     0.16667   0.12708   0.09613   0.00000  Uiso   1.00
O44    O     0.04690   0.10985   0.23085   0.00000  Uiso   1.00
C45    C     0.42090   0.16672   0.16660   0.00000  Uiso   1.00
C46    C     0.35368   0.19444   0.13264   0.00000  Uiso   1.00
C47    C     0.62382   0.16644   0.16646   0.00000  Uiso   1.00
C48    C     0.37618   0.16690   0.16687   0.00000  Uiso   1.00
C49    C     0.47996   0.02455   0.12960   0.00000  Uiso   1.00
C50    C     0.52004   0.30879   0.20373   0.00000  Uiso   1.00
C51    C     0.52001   0.02431   0.20375   0.00000  Uiso   1.00
C52    C     0.47999   0.30902   0.12959   0.00000  Uiso   1.00
C53    C     0.57910   0.16661   0.16673   0.00000  Uiso   1.00
C54    C     0.49989   0.16668   0.07367   0.00000  Uiso   1.00
C55    C     0.50011   0.16666   0.25967   0.00000  Uiso   1.00
C56    C     0.49996   0.16668   0.02187   0.00000  Uiso   1.00
C57    C     0.50004   0.16665   0.31146   0.00000  Uiso   1.00
C58    C     0.35639   0.13806   0.19991   0.00000  Uiso   1.00
C59    C     0.64361   0.19528   0.13342   0.00000  Uiso   1.00
C60    C     0.64632   0.13889   0.20069   0.00000  Uiso   1.00
Cu61   Cu    0.50000   0.21355   0.16667   0.00000  Uiso   1.00
Cu62   Cu    0.50000   0.11978   0.16667   0.00000  Uiso   1.00
H63    H     0.36426   0.08172   0.23800   0.00000  Uiso   1.00
H64    H     0.63574   0.25161   0.09533   0.00000  Uiso   1.00
H65    H     0.64310   0.11209   0.26596   0.00000  Uiso   1.00
H66    H     0.35690   0.22124   0.06737   0.00000  Uiso   1.00
H67    H     0.44568   0.07397   0.10422   0.00000  Uiso   1.00
H68    H     0.55432   0.25936   0.22911   0.00000  Uiso   1.00
H69    H     0.55366   0.07376   0.22922   0.00000  Uiso   1.00
H70    H     0.44634   0.25957   0.10412   0.00000  Uiso   1.00
N71    N     0.50000   0.28402   0.16667   0.00000  Uiso   1.00
N72    N     0.50000   0.04931   0.16667   0.00000  Uiso   1.00
O73    O     0.43988   0.20625   0.16666   0.00000  Uiso   1.00
O74    O     0.61977   0.22349   0.10248   0.00000  Uiso   1.00
O75    O     0.62512   0.11536   0.23579   0.00000  Uiso   1.00
O76    O     0.37488   0.21797   0.09755   0.00000  Uiso   1.00
O77    O     0.45832   0.04586   0.09134   0.00000  Uiso   1.00
O78    O     0.54168   0.28747   0.24200   0.00000  Uiso   1.00
O79    O     0.54164   0.04538   0.24200   0.00000  Uiso   1.00
O80    O     0.45836   0.28795   0.09133   0.00000  Uiso   1.00
O81    O     0.56012   0.12709   0.16667   0.00000  Uiso   1.00
O82    O     0.56012   0.20625   0.16667   0.00000  Uiso   1.00
O83    O     0.43988   0.12709   0.16666   0.00000  Uiso   1.00
O84    O     0.50000   0.20625   0.09613   0.00000  Uiso   1.00
O85    O     0.50000   0.12708   0.23720   0.00000  Uiso   1.00
O86    O     0.50000   0.20625   0.23720   0.00000  Uiso   1.00
O87    O     0.50000   0.12708   0.09613   0.00000  Uiso   1.00
O88    O     0.38023   0.10985   0.23085   0.00000  Uiso   1.00
C89    C     0.75423   0.16672   0.16660   0.00000  Uiso   1.00
C90    C     0.68702   0.19444   0.13264   0.00000  Uiso   1.00
C91    C     0.95716   0.16644   0.16646   0.00000  Uiso   1.00
C92    C     0.70951   0.16690   0.16687   0.00000  Uiso   1.00
C93    C     0.81330   0.02455   0.12960   0.00000  Uiso   1.00
C94    C     0.85337   0.30879   0.20373   0.00000  Uiso   1.00
C95    C     0.85334   0.02431   0.20375   0.00000  Uiso   1.00
C96    C     0.81332   0.30902   0.12959   0.00000  Uiso   1.00
C97    C     0.91244   0.16661   0.16673   0.00000  Uiso   1.00
C98    C     0.83323   0.16668   0.07367   0.00000  Uiso   1.00
C99    C     0.83344   0.16666   0.25967   0.00000  Uiso   1.00
C100   C     0.83329   0.16668   0.02187   0.00000  Uiso   1.00
C101   C     0.83337   0.16665   0.31146   0.00000  Uiso   1.00
C102   C     0.68973   0.13806   0.19991   0.00000  Uiso   1.00
C103   C     0.97694   0.19528   0.13342   0.00000  Uiso   1.00
C104   C     0.97965   0.13889   0.20069   0.00000  Uiso   1.00
Cu105  Cu    0.83333   0.21355   0.16667   0.00000  Uiso   1.00
Cu106  Cu    0.83333   0.11978   0.16667   0.00000  Uiso   1.00
H107   H     0.69759   0.08172   0.23800   0.00000  Uiso   1.00
H108   H     0.96907   0.25161   0.09533   0.00000  Uiso   1.00
H109   H     0.97643   0.11209   0.26596   0.00000  Uiso   1.00
H110   H     0.69024   0.22124   0.06737   0.00000  Uiso   1.00
H111   H     0.77901   0.07397   0.10422   0.00000  Uiso   1.00
H112   H     0.88766   0.25936   0.22911   0.00000  Uiso   1.00
H113   H     0.88699   0.07376   0.22922   0.00000  Uiso   1.00
H114   H     0.77968   0.25957   0.10412   0.00000  Uiso   1.00
N115   N     0.83333   0.28402   0.16667   0.00000  Uiso   1.00
N116   N     0.83333   0.04931   0.16667   0.00000  Uiso   1.00
O117   O     0.77321   0.20625   0.16666   0.00000  Uiso   1.00
O118   O     0.95310   0.22349   0.10248   0.00000  Uiso   1.00
O119   O     0.95846   0.11536   0.23579   0.00000  Uiso   1.00
O120   O     0.70821   0.21797   0.09755   0.00000  Uiso   1.00
O121   O     0.79166   0.04586   0.09134   0.00000  Uiso   1.00
O122   O     0.87501   0.28747   0.24200   0.00000  Uiso   1.00
O123   O     0.87497   0.04538   0.24200   0.00000  Uiso   1.00
O124   O     0.79169   0.28795   0.09133   0.00000  Uiso   1.00
O125   O     0.89345   0.12709   0.16667   0.00000  Uiso   1.00
O126   O     0.89345   0.20625   0.16667   0.00000  Uiso   1.00
O127   O     0.77321   0.12709   0.16666   0.00000  Uiso   1.00
O128   O     0.83333   0.20625   0.09613   0.00000  Uiso   1.00
O129   O     0.83333   0.12708   0.23720   0.00000  Uiso   1.00
O130   O     0.83333   0.20625   0.23720   0.00000  Uiso   1.00
O131   O     0.83333   0.12708   0.09613   0.00000  Uiso   1.00
O132   O     0.71357   0.10985   0.23085   0.00000  Uiso   1.00
C133   C     0.08756   0.50006   0.16660   0.00000  Uiso   1.00
C134   C     0.02035   0.52777   0.13264   0.00000  Uiso   1.00
C135   C     0.29049   0.49977   0.16646   0.00000  Uiso   1.00
C136   C     0.04284   0.50023   0.16687   0.00000  Uiso   1.00
C137   C     0.14663   0.35788   0.12960   0.00000  Uiso   1.00
C138   C     0.18670   0.64212   0.20373   0.00000  Uiso   1.00
C139   C     0.18668   0.35764   0.20375   0.00000  Uiso   1.00
C140   C     0.14666   0.64236   0.12959   0.00000  Uiso   1.00
C141   C     0.24577   0.49994   0.16673   0.00000  Uiso   1.00
C142   C     0.16656   0.50001   0.07367   0.00000  Uiso   1.00
C143   C     0.16677   0.49999   0.25967   0.00000  Uiso   1.00
C144   C     0.16663   0.50001   0.02187   0.00000  Uiso   1.00
C145   C     0.16671   0.49999   0.31146   0.00000  Uiso   1.00
C146   C     0.02306   0.47139   0.19991   0.00000  Uiso   1.00
C147   C     0.31027   0.52861   0.13342   0.00000  Uiso   1.00
C148   C     0.31298   0.47223   0.20069   0.00000  Uiso   1.00
Cu149  Cu    0.16667   0.54689   0.16667   0.00000  Uiso   1.00
Cu150  Cu    0.16667   0.45311   0.16667   0.00000  Uiso   1.00
H151   H     0.03093   0.41505   0.23800   0.00000  Uiso   1.00
H152   H     0.30241   0.58495   0.09533   0.00000  Uiso   1.00
H153   H     0.30976   0.44543   0.26596   0.00000  Uiso   1.00
H154   H     0.02357   0.55457   0.06737   0.00000  Uiso   1.00
H155   H     0.11234   0.40731   0.10422   0.00000  Uiso   1.00
H156   H     0.22099   0.59269   0.22911   0.00000  Uiso   1.00
H157   H     0.22033   0.40709   0.22922   0.00000  Uiso   1.00
H158   H     0.11301   0.59291   0.10412   0.00000  Uiso   1.00
N159   N     0.16667   0.61736   0.16667   0.00000  Uiso   1.00
N160   N     0.16667   0.38264   0.16667   0.00000  Uiso   1.00
O161   O     0.10655   0.53958   0.16666   0.00000  Uiso   1.00
O162   O     0.28643   0.55682   0.10248   0.00000  Uiso   1.00
O163   O     0.29179   0.44870   0.23579   0.00000  Uiso   1.00
O164   O     0.04154   0.55130   0.09755   0.00000  Uiso   1.00
O165   O     0.12499   0.37920   0.09134   0.00000  Uiso   1.00
O166   O     0.20834   0.62080   0.24200   0.00000  Uiso   1.00
O167   O     0.20831   0.37871   0.24200   0.00000  Uiso   1.00
O168   O     0.12503   0.62129   0.09133   0.00000  Uiso   1.00
O169   O     0.22679   0.46042   0.16667   0.00000  Uiso   1.00
O170   O     0.22679   0.53958   0.16667   0.00000  Uiso   1.00
O171   O     0.10655   0.46042   0.16666   0.00000  Uiso   1.00
O172   O     0.16667   0.53959   0.09613   0.00000  Uiso   1.00
O173   O     0.16667   0.46041   0.23720   0.00000  Uiso   1.00
O174   O     0.16667   0.53959   0.23720   0.00000  Uiso   1.00
O175   O     0.16667   0.46041   0.09613   0.00000  Uiso   1.00
O176   O     0.04690   0.44318   0.23085   0.00000  Uiso   1.00
C177   C     0.42090   0.50006   0.16660   0.00000  Uiso   1.00
C178   C     0.35368   0.52777   0.13264   0.00000  Uiso   1.00
C179   C     0.62382   0.49977   0.16646   0.00000  Uiso   1.00
C180   C     0.37618   0.50023   0.16687   0.00000  Uiso   1.00
C181   C     0.47996   0.35788   0.12960   0.00000  Uiso   1.00
C182   C     0.52004   0.64212   0.20373   0.00000  Uiso   1.00
C183   C     0.52001   0.35764   0.20375   0.00000  Uiso   1.00
C184   C     0.47999   0.64236   0.12959   0.00000  Uiso   1.00
C185   C     0.57910   0.49994   0.16673   0.00000  Uiso   1.00
C186   C     0.49989   0.50001   0.07367   0.00000  Uiso   1.00
C187   C     0.50011   0.49999   0.25967   0.00000  Uiso   1.00
C188   C     0.49996   0.50001   0.02187   0.00000  Uiso   1.00
C189   C     0.50004   0.49999   0.31146   0.00000  Uiso   1.00
C190   C     0.35639   0.47139   0.19991   0.00000  Uiso   1.00
C191   C     0.64361   0.52861   0.13342   0.00000  Uiso   1.00
C192   C     0.64632   0.47223   0.20069   0.00000  Uiso   1.00
Cu193  Cu    0.50000   0.54689   0.16667   0.00000  Uiso   1.00
Cu194  Cu    0.50000   0.45311   0.16667   0.00000  Uiso   1.00
H195   H     0.36426   0.41505   0.23800   0.00000  Uiso   1.00
H196   H     0.63574   0.58495   0.09533   0.00000  Uiso   1.00
H197   H     0.64310   0.44543   0.26596   0.00000  Uiso   1.00
H198   H     0.35690   0.55457   0.06737   0.00000  Uiso   1.00
H199   H     0.44568   0.40731   0.10422   0.00000  Uiso   1.00
H200   H     0.55432   0.59269   0.22911   0.00000  Uiso   1.00
H201   H     0.55366   0.40709   0.22922   0.00000  Uiso   1.00
H202   H     0.44634   0.59291   0.10412   0.00000  Uiso   1.00
N203   N     0.50000   0.61736   0.16667   0.00000  Uiso   1.00
N204   N     0.50000   0.38264   0.16667   0.00000  Uiso   1.00
O205   O     0.43988   0.53958   0.16666   0.00000  Uiso   1.00
O206   O     0.61977   0.55682   0.10248   0.00000  Uiso   1.00
O207   O     0.62512   0.44870   0.23579   0.00000  Uiso   1.00
O208   O     0.37488   0.55130   0.09755   0.00000  Uiso   1.00
O209   O     0.45832   0.37920   0.09134   0.00000  Uiso   1.00
O210   O     0.54168   0.62080   0.24200   0.00000  Uiso   1.00
O211   O     0.54164   0.37871   0.24200   0.00000  Uiso   1.00
O212   O     0.45836   0.62129   0.09133   0.00000  Uiso   1.00
O213   O     0.56012   0.46042   0.16667   0.00000  Uiso   1.00
O214   O     0.56012   0.53958   0.16667   0.00000  Uiso   1.00
O215   O     0.43988   0.46042   0.16666   0.00000  Uiso   1.00
O216   O     0.50000   0.53959   0.09613   0.00000  Uiso   1.00
O217   O     0.50000   0.46041   0.23720   0.00000  Uiso   1.00
O218   O     0.50000   0.53959   0.23720   0.00000  Uiso   1.00
O219   O     0.50000   0.46041   0.09613   0.00000  Uiso   1.00
O220   O     0.38023   0.44318   0.23085   0.00000  Uiso   1.00
C221   C     0.75423   0.50006   0.16660   0.00000  Uiso   1.00
C222   C     0.68702   0.52777   0.13264   0.00000  Uiso   1.00
C223   C     0.95716   0.49977   0.16646   0.00000  Uiso   1.00
C224   C     0.70951   0.50023   0.16687   0.00000  Uiso   1.00
C225   C     0.81330   0.35788   0.12960   0.00000  Uiso   1.00
C226   C     0.85337   0.64212   0.20373   0.00000  Uiso   1.00
C227   C     0.85334   0.35764   0.20375   0.00000  Uiso   1.00
C228   C     0.81332   0.64236   0.12959   0.00000  Uiso   1.00
C229   C     0.91244   0.49994   0.16673   0.00000  Uiso   1.00
C230   C     0.83323   0.50001   0.07367   0.00000  Uiso   1.00
C231   C     0.83344   0.49999   0.25967   0.00000  Uiso   1.00
C232   C     0.83329   0.50001   0.02187   0.00000  Uiso   1.00
C233   C     0.83337   0.49999   0.31146   0.00000  Uiso   1.00
C234   C     0.68973   0.47139   0.19991   0.00000  Uiso   1.00
C235   C     0.97694   0.52861   0.13342   0.00000  Uiso   1.00
C236   C     0.97965   0.47223   0.20069   0.00000  Uiso   1.00
Cu237  Cu    0.83333   0.54689   0.16667   0.00000  Uiso   1.00
Cu238  Cu    0.83333   0.45311   0.16667   0.00000  Uiso   1.00
H239   H     0.69759   0.41505   0.23800   0.00000  Uiso   1.00
H240   H     0.96907   0.58495   0.09533   0.00000  Uiso   1.00
H241   H     0.97643   0.44543   0.26596   0.00000  Uiso   1.00
H242   H     0.69024   0.55457   0.06737   0.00000  Uiso   1.00
H243   H     0.77901   0.40731   0.10422   0.00000  Uiso   1.00
H244   H     0.88766   0.59269   0.22911   0.00000  Uiso   1.00
H245   H     0.88699   0.40709   0.22922   0.00000  Uiso   1.00
H246   H     0.77968   0.59291   0.10412   0.00000  Uiso   1.00
N247   N     0.83333   0.61736   0.16667   0.00000  Uiso   1.00
N248   N     0.83333   0.38264   0.16667   0.00000  Uiso   1.00
O249   O     0.77321   0.53958   0.16666   0.00000  Uiso   1.00
O250   O     0.95310   0.55682   0.10248   0.00000  Uiso   1.00
O251   O     0.95846   0.44870   0.23579   0.00000  Uiso   1.00
O252   O     0.70821   0.55130   0.09755   0.00000  Uiso   1.00
O253   O     0.79166   0.37920   0.09134   0.00000  Uiso   1.00
O254   O     0.87501   0.62080   0.24200   0.00000  Uiso   1.00
O255   O     0.87497   0.37871   0.24200   0.00000  Uiso   1.00
O256   O     0.79169   0.62129   0.09133   0.00000  Uiso   1.00
O257   O     0.89345   0.46042   0.16667   0.00000  Uiso   1.00
O258   O     0.89345   0.53958   0.16667   0.00000  Uiso   1.00
O259   O     0.77321   0.46042   0.16666   0.00000  Uiso   1.00
O260   O     0.83333   0.53959   0.09613   0.00000  Uiso   1.00
O261   O     0.83333   0.46041   0.23720   0.00000  Uiso   1.00
O262   O     0.83333   0.53959   0.23720   0.00000  Uiso   1.00
O263   O     0.83333   0.46041   0.09613   0.00000  Uiso   1.00
O264   O     0.71357   0.44318   0.23085   0.00000  Uiso   1.00
C265   C     0.08756   0.83339   0.16660   0.00000  Uiso   1.00
C266   C     0.02035   0.86111   0.13264   0.00000  Uiso   1.00
C267   C     0.29049   0.83310   0.16646   0.00000  Uiso   1.00
C268   C     0.04284   0.83356   0.16687   0.00000  Uiso   1.00
C269   C     0.14663   0.69121   0.12960   0.00000  Uiso   1.00
C270   C     0.18670   0.97545   0.20373   0.00000  Uiso   1.00
C271   C     0.18668   0.69098   0.20375   0.00000  Uiso   1.00
C272   C     0.14666   0.97569   0.12959   0.00000  Uiso   1.00
C273   C     0.24577   0.83328   0.16673   0.00000  Uiso   1.00
C274   C     0.16656   0.83334   0.07367   0.00000  Uiso   1.00
C275   C     0.16677   0.83332   0.25967   0.00000  Uiso   1.00
C276   C     0.16663   0.83334   0.02187   0.00000  Uiso   1.00
C277   C     0.16671   0.83332   0.31146   0.00000  Uiso   1.00
C278   C     0.02306   0.80472   0.19991   0.00000  Uiso   1.00
C279   C     0.31027   0.86194   0.13342   0.00000  Uiso   1.00
C280   C     0.31298   0.80556   0.20069   0.00000  Uiso   1.00
Cu281  Cu    0.16667   0.88022   0.16667   0.00000  Uiso   1.00
Cu282  Cu    0.16667   0.78645   0.16667   0.00000  Uiso   1.00
H283   H     0.03093   0.74839   0.23800   0.00000  Uiso   1.00
H284   H     0.30241   0.91828   0.09533   0.00000  Uiso   1.00
H285   H     0.30976   0.77876   0.26596   0.00000  Uiso   1.00
H286   H     0.02357   0.88791   0.06737   0.00000  Uiso   1.00
H287   H     0.11234   0.74064   0.10422   0.00000  Uiso   1.00
H288   H     0.22099   0.92603   0.22911   0.00000  Uiso   1.00
H289   H     0.22033   0.74043   0.22922   0.00000  Uiso   1.00
H290   H     0.11301   0.92624   0.10412   0.00000  Uiso   1.00
N291   N     0.16667   0.95069   0.16667   0.00000  Uiso   1.00
N292   N     0.16667   0.71598   0.16667   0.00000  Uiso   1.00
O293   O     0.10655   0.87291   0.16666   0.00000  Uiso   1.00
O294   O     0.28643   0.89015   0.10248   0.00000  Uiso   1.00
O295   O     0.29179   0.78203   0.23579   0.00000  Uiso   1.00
O296   O     0.04154   0.88464   0.09755   0.00000  Uiso   1.00
O297   O     0.12499   0.71253   0.09134   0.00000  Uiso   1.00
O298   O     0.20834   0.95414   0.24200   0.00000  Uiso   1.00
O299   O     0.20831   0.71204   0.24200   0.00000  Uiso   1.00
O300   O     0.12503   0.95462   0.09133   0.00000  Uiso   1.00
O301   O     0.22679   0.79375   0.16667   0.00000  Uiso   1.00
O302   O     0.22679   0.87291   0.16667   0.00000  Uiso   1.00
O303   O     0.10655   0.79375   0.16666   0.00000  Uiso   1.00
O304   O     0.16667   0.87292   0.09613   0.00000  Uiso   1.00
O305   O     0.16667   0.79375   0.23720   0.00000  Uiso   1.00
O306   O     0.16667   0.87292   0.23720   0.00000  Uiso   1.00
O307   O     0.16667   0.79375   0.09613   0.00000  Uiso   1.00
O308   O     0.04690   0.77651   0.23085   0.00000  Uiso   1.00
C309   C     0.42090   0.83339   0.16660   0.00000  Uiso   1.00
C310   C     0.35368   0.86111   0.13264   0.00000  Uiso   1.00
C311   C     0.62382   0.83310   0.16646   0.00000  Uiso   1.00
C312   C     0.37618   0.83356   0.16687   0.00000  Uiso   1.00
C313   C     0.47996   0.69121   0.12960   0.00000  Uiso   1.00
C314   C     0.52004   0.97545   0.20373   0.00000  Uiso   1.00
C315   C     0.52001   0.69098   0.20375   0.00000  Uiso   1.00
C316   C     0.47999   0.97569   0.12959   0.00000  Uiso   1.00
C317   C     0.57910   0.83328   0.16673   0.00000  Uiso   1.00
C318   C     0.49989   0.83334   0.07367   0.00000  Uiso   1.00
C319   C     0.50011   0.83332   0.25967   0.00000  Uiso   1.00
C320   C     0.49996   0.83334   0.02187   0.00000  Uiso   1.00
C321   C     0.50004   0.83332   0.31146   0.00000  Uiso   1.00
C322   C     0.35639   0.80472   0.19991   0.00000  Uiso   1.00
C323   C     0.64361   0.86194   0.13342   0.00000  Uiso   1.00
C324   C     0.64632   0.80556   0.20069   0.00000  Uiso   1.00
Cu325  Cu    0.50000   0.88022   0.16667   0.00000  Uiso   1.00
Cu326  Cu    0.50000   0.78645   0.16667   0.00000  Uiso   1.00
H327   H     0.36426   0.74839   0.23800   0.00000  Uiso   1.00
H328   H     0.63574   0.91828   0.09533   0.00000  Uiso   1.00
H329   H     0.64310   0.77876   0.26596   0.00000  Uiso   1.00
H330   H     0.35690   0.88791   0.06737   0.00000  Uiso   1.00
H331   H     0.44568   0.74064   0.10422   0.00000  Uiso   1.00
H332   H     0.55432   0.92603   0.22911   0.00000  Uiso   1.00
H333   H     0.55366   0.74043   0.22922   0.00000  Uiso   1.00
H334   H     0.44634   0.92624   0.10412   0.00000  Uiso   1.00
N335   N     0.50000   0.95069   0.16667   0.00000  Uiso   1.00
N336   N     0.50000   0.71598   0.16667   0.00000  Uiso   1.00
O337   O     0.43988   0.87291   0.16666   0.00000  Uiso   1.00
O338   O     0.61977   0.89015   0.10248   0.00000  Uiso   1.00
O339   O     0.62512   0.78203   0.23579   0.00000  Uiso   1.00
O340   O     0.37488   0.88464   0.09755   0.00000  Uiso   1.00
O341   O     0.45832   0.71253   0.09134   0.00000  Uiso   1.00
O342   O     0.54168   0.95414   0.24200   0.00000  Uiso   1.00
O343   O     0.54164   0.71204   0.24200   0.00000  Uiso   1.00
O344   O     0.45836   0.95462   0.09133   0.00000  Uiso   1.00
O345   O     0.56012   0.79375   0.16667   0.00000  Uiso   1.00
O346   O     0.56012   0.87291   0.16667   0.00000  Uiso   1.00
O347   O     0.43988   0.79375   0.16666   0.00000  Uiso   1.00
O348   O     0.50000   0.87292   0.09613   0.00000  Uiso   1.00
O349   O     0.50000   0.79375   0.23720   0.00000  Uiso   1.00
O350   O     0.50000   0.87292   0.23720   0.00000  Uiso   1.00
O351   O     0.50000   0.79375   0.09613   0.00000  Uiso   1.00
O352   O     0.38023   0.77651   0.23085   0.00000  Uiso   1.00
C353   C     0.75423   0.83339   0.16660   0.00000  Uiso   1.00
C354   C     0.68702   0.86111   0.13264   0.00000  Uiso   1.00
C355   C     0.95716   0.83310   0.16646   0.00000  Uiso   1.00
C356   C     0.70951   0.83356   0.16687   0.00000  Uiso   1.00
C357   C     0.81330   0.69121   0.12960   0.00000  Uiso   1.00
C358   C     0.85337   0.97545   0.20373   0.00000  Uiso   1.00
C359   C     0.85334   0.69098   0.20375   0.00000  Uiso   1.00
C360   C     0.81332   0.97569   0.12959   0.00000  Uiso   1.00
C361   C     0.91244   0.83328   0.16673   0.00000  Uiso   1.00
C362   C     0.83323   0.83334   0.07367   0.00000  Uiso   1.00
C363   C     0.83344   0.83332   0.25967   0.00000  Uiso   1.00
C364   C     0.83329   0.83334   0.02187   0.00000  Uiso   1.00
C365   C     0.83337   0.83332   0.31146   0.00000  Uiso   1.00
C366   C     0.68973   0.80472   0.19991   0.00000  Uiso   1.00
C367   C     0.97694   0.86194   0.13342   0.00000  Uiso   1.00
C368   C     0.97965   0.80556   0.20069   0.00000  Uiso   1.00
Cu369  Cu    0.83333   0.88022   0.16667   0.00000  Uiso   1.00
Cu370  Cu    0.83333   0.78645   0.16667   0.00000  Uiso   1.00
H371   H     0.69759   0.74839   0.23800   0.00000  Uiso   1.00
H372   H     0.96907   0.91828   0.09533   0.00000  Uiso   1.00
H373   H     0.97643   0.77876   0.26596   0.00000  Uiso   1.00
H374   H     0.69024   0.88791   0.06737   0.00000  Uiso   1.00
H375   H     0.77901   0.74064   0.10422   0.00000  Uiso   1.00
H376   H     0.88766   0.92603   0.22911   0.00000  Uiso   1.00
H377   H     0.88699   0.74043   0.22922   0.00000  Uiso   1.00
H378   H     0.77968   0.92624   0.10412   0.00000  Uiso   1.00
N379   N     0.83333   0.95069   0.16667   0.00000  Uiso   1.00
N380   N     0.83333   0.71598   0.16667   0.00000  Uiso   1.00
O381   O     0.77321   0.87291   0.16666   0.00000  Uiso   1.00
O382   O     0.95310   0.89015   0.10248   0.00000  Uiso   1.00
O383   O     0.95846   0.78203   0.23579   0.00000  Uiso   1.00
O384   O     0.70821   0.88464   0.09755   0.00000  Uiso   1.00
O385   O     0.79166   0.71253   0.09134   0.00000  Uiso   1.00
O386   O     0.87501   0.95414   0.24200   0.00000  Uiso   1.00
O387   O     0.87497   0.71204   0.24200   0.00000  Uiso   1.00
O388   O     0.79169   0.95462   0.09133   0.00000  Uiso   1.00
O389   O     0.89345   0.79375   0.16667   0.00000  Uiso   1.00
O390   O     0.89345   0.87291   0.16667   0.00000  Uiso   1.00
O391   O     0.77321   0.79375   0.16666   0.00000  Uiso   1.00
O392   O     0.83333   0.87292   0.09613   0.00000  Uiso   1.00
O393   O     0.83333   0.79375   0.23720   0.00000  Uiso   1.00
O394   O     0.83333   0.87292   0.23720   0.00000  Uiso   1.00
O395   O     0.83333   0.79375   0.09613   0.00000  Uiso   1.00
O396   O     0.71357   0.77651   0.23085   0.00000  Uiso   1.00
C397   C     0.08756   0.16672   0.49993   0.00000  Uiso   1.00
C398   C     0.02035   0.19444   0.46598   0.00000  Uiso   1.00
C399   C     0.29049   0.16644   0.49979   0.00000  Uiso   1.00
C400   C     0.04284   0.16690   0.50021   0.00000  Uiso   1.00
C401   C     0.14663   0.02455   0.46293   0.00000  Uiso   1.00
C402   C     0.18670   0.30879   0.53707   0.00000  Uiso   1.00
C403   C     0.18668   0.02431   0.53708   0.00000  Uiso   1.00
C404   C     0.14666   0.30902   0.46292   0.00000  Uiso   1.00
C405   C     0.24577   0.16661   0.50007   0.00000  Uiso   1.00
C406   C     0.16656   0.16668   0.40700   0.00000  Uiso   1.00
C407   C     0.16677   0.16666   0.59300   0.00000  Uiso   1.00
C408   C     0.16663   0.16668   0.35521   0.00000  Uiso   1.00
C409   C     0.16671   0.16665   0.64479   0.00000  Uiso   1.00
C410   C     0.02306   0.13806   0.53324   0.00000  Uiso   1.00
C411   C     0.31027   0.19528   0.46676   0.00000  Uiso   1.00
C412   C     0.31298   0.13889   0.53402   0.00000  Uiso   1.00
Cu413  Cu    0.16667   0.21355   0.50000   0.00000  Uiso   1.00
Cu414  Cu    0.16667   0.11978   0.50000   0.00000  Uiso   1.00
H415   H     0.03093   0.08172   0.57134   0.00000  Uiso   1.00
H416   H     0.30241   0.25161   0.42866   0.00000  Uiso   1.00
H417   H     0.30976   0.11209   0.59929   0.00000  Uiso   1.00
H418   H     0.02357   0.22124   0.40071   0.00000  Uiso   1.00
H419   H     0.11234   0.07397   0.43755   0.00000  Uiso   1.00
H420   H     0.22099   0.25936   0.56245   0.00000  Uiso   1.00
H421   H     0.22033   0.07376   0.56255   0.00000  Uiso   1.00
H422   H     0.11301   0.25957   0.43745   0.00000  Uiso   1.00
N423   N     0.16667   0.28402   0.50000   0.00000  Uiso   1.00
N424   N     0.16667   0.04931   0.50000   0.00000  Uiso   1.00
O425   O     0.10655   0.20625   0.50000   0.00000  Uiso   1.00
O426   O     0.28643   0.22349   0.43581   0.00000  Uiso   1.00
O427   O     0.29179   0.11536   0.56912   0.00000  Uiso   1.00
O428   O     0.04154   0.21797   0.43088   0.00000  Uiso   1.00
O429   O     0.12499   0.04586   0.42467   0.00000  Uiso   1.00
O430   O     0.20834   0.28747   0.57533   0.00000  Uiso   1.00
O431   O     0.20831   0.04538   0.57534   0.00000  Uiso   1.00
O432   O     0.12503   0.28795   0.42466   0.00000  Uiso   1.00
O433   O     0.22679   0.12709   0.50000   0.00000  Uiso   1.00
O434   O     0.22679   0.20625   0.50000   0.00000  Uiso   1.00
O435   O     0.10655   0.12709   0.50000   0.00000  Uiso   1.00
O436   O     0.16667   0.20625   0.42946   0.00000  Uiso   1.00
O437   O     0.16667   0.12708   0.57054   0.00000  Uiso   1.00
O438   O     0.16667   0.20625   0.57054   0.00000  Uiso   1.00
O439   O     0.16667   0.12708   0.42946   0.00000  Uiso   1.00
O440   O     0.04690   0.10985   0.56419   0.00000  Uiso   1.00
C441   C     0.42090   0.16672   0.49993   0.00000  Uiso   1.00
C442   C     0.35368   0.19444   0.46598   0.00000  Uiso   1.00
C443   C     0.62382   0.16644   0.49979   0.00000  Uiso   1.00
C444   C     0.37618   0.16690   0.50021   0.00000  Uiso   1.00
C445   C     0.47996   0.02455   0.46293   0.00000  Uiso   1.00
C446   C     0.52004   0.30879   0.53707   0.00000  Uiso   1.00
C447   C     0.52001   0.02431   0.53708   0.00000  Uiso   1.00
C448   C     0.47999   0.30902   0.46292   0.00000  Uiso   1.00
C449   C     0.57910   0.16661   0.50007   0.00000  Uiso   1.00
C450   C     0.49989   0.16668   0.40700   0.00000  Uiso   1.00
C451   C     0.50011   0.16666   0.59300   0.00000  Uiso   1.00
C452   C     0.49996   0.16668   0.35521   0.00000  Uiso   1.00
C453   C     0.50004   0.16665   0.64479   0.00000  Uiso   1.00
C454   C     0.35639   0.13806   0.53324   0.00000  Uiso   1.00
C455   C     0.64361   0.19528   0.46676   0.00000  Uiso   1.00
C456   C     0.64632   0.13889   0.53402   0.00000  Uiso   1.00
Cu457  Cu    0.50000   0.21355   0.50000   0.00000  Uiso   1.00
Cu458  Cu    0.50000   0.11978   0.50000   0.00000  Uiso   1.00
H459   H     0.36426   0.08172   0.57134   0.00000  Uiso   1.00
H460   H     0.63574   0.25161   0.42866   0.00000  Uiso   1.00
H461   H     0.64310   0.11209   0.59929   0.00000  Uiso   1.00
H462   H     0.35690   0.22124   0.40071   0.00000  Uiso   1.00
H463   H     0.44568   0.07397   0.43755   0.00000  Uiso   1.00
H464   H     0.55432   0.25936   0.56245   0.00000  Uiso   1.00
H465   H     0.55366   0.07376   0.56255   0.00000  Uiso   1.00
H466   H     0.44634   0.25957   0.43745   0.00000  Uiso   1.00
N467   N     0.50000   0.28402   0.50000   0.00000  Uiso   1.00
N468   N     0.50000   0.04931   0.50000   0.00000  Uiso   1.00
O469   O     0.43988   0.20625   0.50000   0.00000  Uiso   1.00
O470   O     0.61977   0.22349   0.43581   0.00000  Uiso   1.00
O471   O     0.62512   0.11536   0.56912   0.00000  Uiso   1.00
O472   O     0.37488   0.21797   0.43088   0.00000  Uiso   1.00
O473   O     0.45832   0.04586   0.42467   0.00000  Uiso   1.00
O474   O     0.54168   0.28747   0.57533   0.00000  Uiso   1.00
O475   O     0.54164   0.04538   0.57534   0.00000  Uiso   1.00
O476   O     0.45836   0.28795   0.42466   0.00000  Uiso   1.00
O477   O     0.56012   0.12709   0.50000   0.00000  Uiso   1.00
O478   O     0.56012   0.20625   0.50000   0.00000  Uiso   1.00
O479   O     0.43988   0.12709   0.50000   0.00000  Uiso   1.00
O480   O     0.50000   0.20625   0.42946   0.00000  Uiso   1.00
O481   O     0.50000   0.12708   0.57054   0.00000  Uiso   1.00
O482   O     0.50000   0.20625   0.57054   0.00000  Uiso   1.00
O483   O     0.50000   0.12708   0.42946   0.00000  Uiso   1.00
O484   O     0.38023   0.10985   0.56419   0.00000  Uiso   1.00
C485   C     0.75423   0.16672   0.49993   0.00000  Uiso   1.00
C486   C     0.68702   0.19444   0.46598   0.00000  Uiso   1.00
C487   C     0.95716   0.16644   0.49979   0.00000  Uiso   1.00
C488   C     0.70951   0.16690   0.50021   0.00000  Uiso   1.00
C489   C     0.81330   0.02455   0.46293   0.00000  Uiso   1.00
C490   C     0.85337   0.30879   0.53707   0.00000  Uiso   1.00
C491   C     0.85334   0.02431   0.53708   0.00000  Uiso   1.00
C492   C     0.81332   0.30902   0.46292   0.00000  Uiso   1.00
C493   C     0.91244   0.16661   0.50007   0.00000  Uiso   1.00
C494   C     0.83323   0.16668   0.40700   0.00000  Uiso   1.00
C495   C     0.83344   0.16666   0.59300   0.00000  Uiso   1.00
C496   C     0.83329   0.16668   0.35521   0.00000  Uiso   1.00
C497   C     0.83337   0.16665   0.64479   0.00000  Uiso   1.00
C498   C     0.68973   0.13806   0.53324   0.00000  Uiso   1.00
C499   C     0.97694   0.19528   0.46676   0.00000  Uiso   1.00
C500   C     0.97965   0.13889   0.53402   0.00000  Uiso   1.00
Cu501  Cu    0.83333   0.21355   0.50000   0.00000  Uiso   1.00
Cu502  Cu    0.83333   0.11978   0.50000   0.00000  Uiso   1.00
H503   H     0.69759   0.08172   0.57134   0.00000  Uiso   1.00
H504   H     0.96907   0.25161   0.42866   0.00000  Uiso   1.00
H505   H     0.97643   0.11209   0.59929   0.00000  Uiso   1.00
H506   H     0.69024   0.22124   0.40071   0.00000  Uiso   1.00
H507   H     0.77901   0.07397   0.43755   0.00000  Uiso   1.00
H508   H     0.88766   0.25936   0.56245   0.00000  Uiso   1.00
H509   H     0.88699   0.07376   0.56255   0.00000  Uiso   1.00
H510   H     0.77968   0.25957   0.43745   0.00000  Uiso   1.00
N511   N     0.83333   0.28402   0.50000   0.00000  Uiso   1.00
N512   N     0.83333   0.04931   0.50000   0.00000  Uiso   1.00
O513   O     0.77321   0.20625   0.50000   0.00000  Uiso   1.00
O514   O     0.95310   0.22349   0.43581   0.00000  Uiso   1.00
O515   O     0.95846   0.11536   0.56912   0.00000  Uiso   1.00
O516   O     0.70821   0.21797   0.43088   0.00000  Uiso   1.00
O517   O     0.79166   0.04586   0.42467   0.00000  Uiso   1.00
O518   O     0.87501   0.28747   0.57533   0.00000  Uiso   1.00
O519   O     0.87497   0.04538   0.57534   0.00000  Uiso   1.00
O520   O     0.79169   0.28795   0.42466   0.00000  Uiso   1.00
O521   O     0.89345   0.12709   0.50000   0.00000  Uiso   1.00
O522   O     0.89345   0.20625   0.50000   0.00000  Uiso   1.00
O523   O     0.77321   0.12709   0.50000   0.00000  Uiso   1.00
O524   O     0.83333   0.20625   0.42946   0.00000  Uiso   1.00
O525   O     0.83333   0.12708   0.57054   0.00000  Uiso   1.00
O526   O     0.83333   0.20625   0.57054   0.00000  Uiso   1.00
O527   O     0.83333   0.12708   0.42946   0.00000  Uiso   1.00
O528   O     0.71357   0.10985   0.56419   0.00000  Uiso   1.00
C529   C     0.08756   0.50006   0.49993   0.00000  Uiso   1.00
C530   C     0.02035   0.52777   0.46598   0.00000  Uiso   1.00
C531   C     0.29049   0.49977   0.49979   0.00000  Uiso   1.00
C532   C     0.04284   0.50023   0.50021   0.00000  Uiso   1.00
C533   C     0.14663   0.35788   0.46293   0.00000  Uiso   1.00
C534   C     0.18670   0.64212   0.53707   0.00000  Uiso   1.00
C535   C     0.18668   0.35764   0.53708   0.00000  Uiso   1.00
C536   C     0.14666   0.64236   0.46292   0.00000  Uiso   1.00
C537   C     0.24577   0.49994   0.50007   0.00000  Uiso   1.00
C538   C     0.16656   0.50001   0.40700   0.00000  Uiso   1.00
C539   C     0.16677   0.49999   0.59300   0.00000  Uiso   1.00
C540   C     0.16663   0.50001   0.35521   0.00000  Uiso   1.00
C541   C     0.16671   0.49999   0.64479   0.00000  Uiso   1.00
C542   C     0.02306   0.47139   0.53324   0.00000  Uiso   1.00
C543   C     0.31027   0.52861   0.46676   0.00000  Uiso   1.00
C544   C     0.31298   0.47223   0.53402   0.00000  Uiso   1.00
Cu545  Cu    0.16667   0.54689   0.50000   0.00000  Uiso   1.00
Cu546  Cu    0.16667   0.45311   0.50000   0.00000  Uiso   1.00
H547   H     0.03093   0.41505   0.57134   0.00000  Uiso   1.00
H548   H     0.30241   0.58495   0.42866   0.00000  Uiso   1.00
H549   H     0.30976   0.44543   0.59929   0.00000  Uiso   1.00
H550   H     0.02357   0.55457   0.40071   0.00000  Uiso   1.00
H551   H     0.11234   0.40731   0.43755   0.00000  Uiso   1.00
H552   H     0.22099   0.59269   0.56245   0.00000  Uiso   1.00
H553   H     0.22033   0.40709   0.56255   0.00000  Uiso   1.00
H554   H     0.11301   0.59291   0.43745   0.00000  Uiso   1.00
N555   N     0.16667   0.61736   0.50000   0.00000  Uiso   1.00
N556   N     0.16667   0.38264   0.50000   0.00000  Uiso   1.00
O557   O     0.10655   0.53958   0.50000   0.00000  Uiso   1.00
O558   O     0.28643   0.55682   0.43581   0.00000  Uiso   1.00
O559   O     0.29179   0.44870   0.56912   0.00000  Uiso   1.00
O560   O     0.04154   0.55130   0.43088   0.00000  Uiso   1.00
O561   O     0.12499   0.37920   0.42467   0.00000  Uiso   1.00
O562   O     0.20834   0.62080   0.57533   0.00000  Uiso   1.00
O563   O     0.20831   0.37871   0.57534   0.00000  Uiso   1.00
O564   O     0.12503   0.62129   0.42466   0.00000  Uiso   1.00
O565   O     0.22679   0.46042   0.50000   0.00000  Uiso   1.00
O566   O     0.22679   0.53958   0.50000   0.00000  Uiso   1.00
O567   O     0.10655   0.46042   0.50000   0.00000  Uiso   1.00
O568   O     0.16667   0.53959   0.42946   0.00000  Uiso   1.00
O569   O     0.16667   0.46041   0.57054   0.00000  Uiso   1.00
O570   O     0.16667   0.53959   0.57054   0.00000  Uiso   1.00
O571   O     0.16667   0.46041   0.42946   0.00000  Uiso   1.00
O572   O     0.04690   0.44318   0.56419   0.00000  Uiso   1.00
C573   C     0.42090   0.50006   0.49993   0.00000  Uiso   1.00
C574   C     0.35368   0.52777   0.46598   0.00000  Uiso   1.00
C575   C     0.62382   0.49977   0.49979   0.00000  Uiso   1.00
C576   C     0.37618   0.50023   0.50021   0.00000  Uiso   1.00
C577   C     0.47996   0.35788   0.46293   0.00000  Uiso   1.00
C578   C     0.52004   0.64212   0.53707   0.00000  Uiso   1.00
C579   C     0.52001   0.35764   0.53708   0.00000  Uiso   1.00
C580   C     0.47999   0.64236   0.46292   0.00000  Uiso   1.00
C581   C     0.57910   0.49994   0.50007   0.00000  Uiso   1.00
C582   C     0.49989   0.50001   0.40700   0.00000  Uiso   1.00
C583   C     0.50011   0.49999   0.59300   0.00000  Uiso   1.00
C584   C     0.49996   0.50001   0.35521   0.00000  Uiso   1.00
C585   C     0.50004   0.49999   0.64479   0.00000  Uiso   1.00
C586   C     0.35639   0.47139   0.53324   0.00000  Uiso   1.00
C587   C     0.64361   0.52861   0.46676   0.00000  Uiso   1.00
C588   C     0.64632   0.47223   0.53402   0.00000  Uiso   1.00
Cu589  Cu    0.50000   0.54689   0.50000   0.00000  Uiso   1.00
Cu590  Cu    0.50000   0.45311   0.50000   0.00000  Uiso   1.00
H591   H     0.36426   0.41505   0.57134   0.00000  Uiso   1.00
H592   H     0.63574   0.58495   0.42866   0.00000  Uiso   1.00
H593   H     0.64310   0.44543   0.59929   0.00000  Uiso   1.00
H594   H     0.35690   0.55457   0.40071   0.00000  Uiso   1.00
H595   H     0.44568   0.40731   0.43755   0.00000  Uiso   1.00
H596   H     0.55432   0.59269   0.56245   0.00000  Uiso   1.00
H597   H     0.55366   0.40709   0.56255   0.00000  Uiso   1.00
H598   H     0.44634   0.59291   0.43745   0.00000  Uiso   1.00
N599   N     0.50000   0.61736   0.50000   0.00000  Uiso   1.00
N600   N     0.50000   0.38264   0.50000   0.00000  Uiso   1.00
O601   O     0.43988   0.53958   0.50000   0.00000  Uiso   1.00
O602   O     0.61977   0.55682   0.43581   0.00000  Uiso   1.00
O603   O     0.62512   0.44870   0.56912   0.00000  Uiso   1.00
O604   O     0.37488   0.55130   0.43088   0.00000  Uiso   1.00
O605   O     0.45832   0.37920   0.42467   0.00000  Uiso   1.00
O606   O     0.54168   0.62080   0.57533   0.00000  Uiso   1.00
O607   O     0.54164   0.37871   0.57534   0.00000  Uiso   1.00
O608   O     0.45836   0.62129   0.42466   0.00000  Uiso   1.00
O609   O     0.56012   0.46042   0.50000   0.00000  Uiso   1.00
O610   O     0.56012   0.53958   0.50000   0.00000  Uiso   1.00
O611   O     0.43988   0.46042   0.50000   0.00000  Uiso   1.00
O612   O     0.50000   0.53959   0.42946   0.00000  Uiso   1.00
O613   O     0.50000   0.46041   0.57054   0.00000  Uiso   1.00
O614   O     0.50000   0.53959   0.57054   0.00000  Uiso   1.00
O615   O     0.50000   0.46041   0.42946   0.00000  Uiso   1.00
O616   O     0.38023   0.44318   0.56419   0.00000  Uiso   1.00
C617   C     0.75423   0.50006   0.49993   0.00000  Uiso   1.00
C618   C     0.68702   0.52777   0.46598   0.00000  Uiso   1.00
C619   C     0.95716   0.49977   0.49979   0.00000  Uiso   1.00
C620   C     0.70951   0.50023   0.50021   0.00000  Uiso   1.00
C621   C     0.81330   0.35788   0.46293   0.00000  Uiso   1.00
C622   C     0.85337   0.64212   0.53707   0.00000  Uiso   1.00
C623   C     0.85334   0.35764   0.53708   0.00000  Uiso   1.00
C624   C     0.81332   0.64236   0.46292   0.00000  Uiso   1.00
C625   C     0.91244   0.49994   0.50007   0.00000  Uiso   1.00
C626   C     0.83323   0.50001   0.40700   0.00000  Uiso   1.00
C627   C     0.83344   0.49999   0.59300   0.00000  Uiso   1.00
C628   C     0.83329   0.50001   0.35521   0.00000  Uiso   1.00
C629   C     0.83337   0.49999   0.64479   0.00000  Uiso   1.00
C630   C     0.68973   0.47139   0.53324   0.00000  Uiso   1.00
C631   C     0.97694   0.52861   0.46676   0.00000  Uiso   1.00
C632   C     0.97965   0.47223   0.53402   0.00000  Uiso   1.00
Cu633  Cu    0.83333   0.54689   0.50000   0.00000  Uiso   1.00
Cu634  Cu    0.83333   0.45311   0.50000   0.00000  Uiso   1.00
H635   H     0.69759   0.41505   0.57134   0.00000  Uiso   1.00
H636   H     0.96907   0.58495   0.42866   0.00000  Uiso   1.00
H637   H     0.97643   0.44543   0.59929   0.00000  Uiso   1.00
H638   H     0.69024   0.55457   0.40071   0.00000  Uiso   1.00
H639   H     0.77901   0.40731   0.43755   0.00000  Uiso   1.00
H640   H     0.88766   0.59269   0.56245   0.00000  Uiso   1.00
H641   H     0.88699   0.40709   0.56255   0.00000  Uiso   1.00
H642   H     0.77968   0.59291   0.43745   0.00000  Uiso   1.00
N643   N     0.83333   0.61736   0.50000   0.00000  Uiso   1.00
N644   N     0.83333   0.38264   0.50000   0.00000  Uiso   1.00
O645   O     0.77321   0.53958   0.50000   0.00000  Uiso   1.00
O646   O     0.95310   0.55682   0.43581   0.00000  Uiso   1.00
O647   O     0.95846   0.44870   0.56912   0.00000  Uiso   1.00
O648   O     0.70821   0.55130   0.43088   0.00000  Uiso   1.00
O649   O     0.79166   0.37920   0.42467   0.00000  Uiso   1.00
O650   O     0.87501   0.62080   0.57533   0.00000  Uiso   1.00
O651   O     0.87497   0.37871   0.57534   0.00000  Uiso   1.00
O652   O     0.79169   0.62129   0.42466   0.00000  Uiso   1.00
O653   O     0.89345   0.46042   0.50000   0.00000  Uiso   1.00
O654   O     0.89345   0.53958   0.50000   0.00000  Uiso   1.00
O655   O     0.77321   0.46042   0.50000   0.00000  Uiso   1.00
O656   O     0.83333   0.53959   0.42946   0.00000  Uiso   1.00
O657   O     0.83333   0.46041   0.57054   0.00000  Uiso   1.00
O658   O     0.83333   0.53959   0.57054   0.00000  Uiso   1.00
O659   O     0.83333   0.46041   0.42946   0.00000  Uiso   1.00
O660   O     0.71357   0.44318   0.56419   0.00000  Uiso   1.00
C661   C     0.08756   0.83339   0.49993   0.00000  Uiso   1.00
C662   C     0.02035   0.86111   0.46598   0.00000  Uiso   1.00
C663   C     0.29049   0.83310   0.49979   0.00000  Uiso   1.00
C664   C     0.04284   0.83356   0.50021   0.00000  Uiso   1.00
C665   C     0.14663   0.69121   0.46293   0.00000  Uiso   1.00
C666   C     0.18670   0.97545   0.53707   0.00000  Uiso   1.00
C667   C     0.18668   0.69098   0.53708   0.00000  Uiso   1.00
C668   C     0.14666   0.97569   0.46292   0.00000  Uiso   1.00
C669   C     0.24577   0.83328   0.50007   0.00000  Uiso   1.00
C670   C     0.16656   0.83334   0.40700   0.00000  Uiso   1.00
C671   C     0.16677   0.83332   0.59300   0.00000  Uiso   1.00
C672   C     0.16663   0.83334   0.35521   0.00000  Uiso   1.00
C673   C     0.16671   0.83332   0.64479   0.00000  Uiso   1.00
C674   C     0.02306   0.80472   0.53324   0.00000  Uiso   1.00
C675   C     0.31027   0.86194   0.46676   0.00000  Uiso   1.00
C676   C     0.31298   0.80556   0.53402   0.00000  Uiso   1.00
Cu677  Cu    0.16667   0.88022   0.50000   0.00000  Uiso   1.00
Cu678  Cu    0.16667   0.78645   0.50000   0.00000  Uiso   1.00
H679   H     0.03093   0.74839   0.57134   0.00000  Uiso   1.00
H680   H     0.30241   0.91828   0.42866   0.00000  Uiso   1.00
H681   H     0.30976   0.77876   0.59929   0.00000  Uiso   1.00
H682   H     0.02357   0.88791   0.40071   0.00000  Uiso   1.00
H683   H     0.11234   0.74064   0.43755   0.00000  Uiso   1.00
H684   H     0.22099   0.92603   0.56245   0.00000  Uiso   1.00
H685   H     0.22033   0.74043   0.56255   0.00000  Uiso   1.00
H686   H     0.11301   0.92624   0.43745   0.00000  Uiso   1.00
N687   N     0.16667   0.95069   0.50000   0.00000  Uiso   1.00
N688   N     0.16667   0.71598   0.50000   0.00000  Uiso   1.00
O689   O     0.10655   0.87291   0.50000   0.00000  Uiso   1.00
O690   O     0.28643   0.89015   0.43581   0.00000  Uiso   1.00
O691   O     0.29179   0.78203   0.56912   0.00000  Uiso   1.00
O692   O     0.04154   0.88464   0.43088   0.00000  Uiso   1.00
O693   O     0.12499   0.71253   0.42467   0.00000  Uiso   1.00
O694   O     0.20834   0.95414   0.57533   0.00000  Uiso   1.00
O695   O     0.20831   0.71204   0.57534   0.00000  Uiso   1.00
O696   O     0.12503   0.95462   0.42466   0.00000  Uiso   1.00
O697   O     0.22679   0.79375   0.50000   0.00000  Uiso   1.00
O698   O     0.22679   0.87291   0.50000   0.00000  Uiso   1.00
O699   O     0.10655   0.79375   0.50000   0.00000  Uiso   1.00
O700   O     0.16667   0.87292   0.42946   0.00000  Uiso   1.00
O701   O     0.16667   0.79375   0.57054   0.00000  Uiso   1.00
O702   O     0.16667   0.87292   0.57054   0.00000  Uiso   1.00
O703   O     0.16667   0.79375   0.42946   0.00000  Uiso   1.00
O704   O     0.04690   0.77651   0.56419   0.00000  Uiso   1.00
C705   C     0.42090   0.83339   0.49993   0.00000  Uiso   1.00
C706   C     0.35368   0.86111   0.46598   0.00000  Uiso   1.00
C707   C     0.62382   0.83310   0.49979   0.00000  Uiso   1.00
C708   C     0.37618   0.83356   0.50021   0.00000  Uiso   1.00
C709   C     0.47996   0.69121   0.46293   0.00000  Uiso   1.00
C710   C     0.52004   0.97545   0.53707   0.00000  Uiso   1.00
C711   C     0.52001   0.69098   0.53708   0.00000  Uiso   1.00
C712   C     0.47999   0.97569   0.46292   0.00000  Uiso   1.00
C713   C     0.57910   0.83328   0.50007   0.00000  Uiso   1.00
C714   C     0.49989   0.83334   0.40700   0.00000  Uiso   1.00
C715   C     0.50011   0.83332   0.59300   0.00000  Uiso   1.00
C716   C     0.49996   0.83334   0.35521   0.00000  Uiso   1.00
C717   C     0.50004   0.83332   0.64479   0.00000  Uiso   1.00
C718   C     0.35639   0.80472   0.53324   0.00000  Uiso   1.00
C719   C     0.64361   0.86194   0.46676   0.00000  Uiso   1.00
C720   C     0.64632   0.80556   0.53402   0.00000  Uiso   1.00
Cu721  Cu    0.50000   0.88022   0.50000   0.00000  Uiso   1.00
Cu722  Cu    0.50000   0.78645   0.50000   0.00000  Uiso   1.00
H723   H     0.36426   0.74839   0.57134   0.00000  Uiso   1.00
H724   H     0.63574   0.91828   0.42866   0.00000  Uiso   1.00
H725   H     0.64310   0.77876   0.59929   0.00000  Uiso   1.00
H726   H     0.35690   0.88791   0.40071   0.00000  Uiso   1.00
H727   H     0.44568   0.74064   0.43755   0.00000  Uiso   1.00
H728   H     0.55432   0.92603   0.56245   0.00000  Uiso   1.00
H729   H     0.55366   0.74043   0.56255   0.00000  Uiso   1.00
H730   H     0.44634   0.92624   0.43745   0.00000  Uiso   1.00
N731   N     0.50000   0.95069   0.50000   0.00000  Uiso   1.00
N732   N     0.50000   0.71598   0.50000   0.00000  Uiso   1.00
O733   O     0.43988   0.87291   0.50000   0.00000  Uiso   1.00
O734   O     0.61977   0.89015   0.43581   0.00000  Uiso   1.00
O735   O     0.62512   0.78203   0.56912   0.00000  Uiso   1.00
O736   O     0.37488   0.88464   0.43088   0.00000  Uiso   1.00
O737   O     0.45832   0.71253   0.42467   0.00000  Uiso   1.00
O738   O     0.54168   0.95414   0.57533   0.00000  Uiso   1.00
O739   O     0.54164   0.71204   0.57534   0.00000  Uiso   1.00
O740   O     0.45836   0.95462   0.42466   0.00000  Uiso   1.00
O741   O     0.56012   0.79375   0.50000   0.00000  Uiso   1.00
O742   O     0.56012   0.87291   0.50000   0.00000  Uiso   1.00
O743   O     0.43988   0.79375   0.50000   0.00000  Uiso   1.00
O744   O     0.50000   0.87292   0.42946   0.00000  Uiso   1.00
O745   O     0.50000   0.79375   0.57054   0.00000  Uiso   1.00
O746   O     0.50000   0.87292   0.57054   0.00000  Uiso   1.00
O747   O     0.50000   0.79375   0.42946   0.00000  Uiso   1.00
O748   O     0.38023   0.77651   0.56419   0.00000  Uiso   1.00
C749   C     0.75423   0.83339   0.49993   0.00000  Uiso   1.00
C750   C     0.68702   0.86111   0.46598   0.00000  Uiso   1.00
C751   C     0.95716   0.83310   0.49979   0.00000  Uiso   1.00
C752   C     0.70951   0.83356   0.50021   0.00000  Uiso   1.00
C753   C     0.81330   0.69121   0.46293   0.00000  Uiso   1.00
C754   C     0.85337   0.97545   0.53707   0.00000  Uiso   1.00
C755   C     0.85334   0.69098   0.53708   0.00000  Uiso   1.00
C756   C     0.81332   0.97569   0.46292   0.00000  Uiso   1.00
C757   C     0.91244   0.83328   0.50007   0.00000  Uiso   1.00
C758   C     0.83323   0.83334   0.40700   0.00000  Uiso   1.00
C759   C     0.83344   0.83332   0.59300   0.00000  Uiso   1.00
C760   C     0.83329   0.83334   0.35521   0.00000  Uiso   1.00
C761   C     0.83337   0.83332   0.64479   0.00000  Uiso   1.00
C762   C     0.68973   0.80472   0.53324   0.00000  Uiso   1.00
C763   C     0.97694   0.86194   0.46676   0.00000  Uiso   1.00
C764   C     0.97965   0.80556   0.53402   0.00000  Uiso   1.00
Cu765  Cu    0.83333   0.88022   0.50000   0.00000  Uiso   1.00
Cu766  Cu    0.83333   0.78645   0.50000   0.00000  Uiso   1.00
H767   H     0.69759   0.74839   0.57134   0.00000  Uiso   1.00
H768   H     0.96907   0.91828   0.42866   0.00000  Uiso   1.00
H769   H     0.97643   0.77876   0.59929   0.00000  Uiso   1.00
H770   H     0.69024   0.88791   0.40071   0.00000  Uiso   1.00
H771   H     0.77901   0.74064   0.43755   0.00000  Uiso   1.00
H772   H     0.88766   0.92603   0.56245   0.00000  Uiso   1.00
H773   H     0.88699   0.74043   0.56255   0.00000  Uiso   1.00
H774   H     0.77968   0.92624   0.43745   0.00000  Uiso   1.00
N775   N     0.83333   0.95069   0.50000   0.00000  Uiso   1.00
N776   N     0.83333   0.71598   0.50000   0.00000  Uiso   1.00
O777   O     0.77321   0.87291   0.50000   0.00000  Uiso   1.00
O778   O     0.95310   0.89015   0.43581   0.00000  Uiso   1.00
O779   O     0.95846   0.78203   0.56912   0.00000  Uiso   1.00
O780   O     0.70821   0.88464   0.43088   0.00000  Uiso   1.00
O781   O     0.79166   0.71253   0.42467   0.00000  Uiso   1.00
O782   O     0.87501   0.95414   0.57533   0.00000  Uiso   1.00
O783   O     0.87497   0.71204   0.57534   0.00000  Uiso   1.00
O784   O     0.79169   0.95462   0.42466   0.00000  Uiso   1.00
O785   O     0.89345   0.79375   0.50000   0.00000  Uiso   1.00
O786   O     0.89345   0.87291   0.50000   0.00000  Uiso   1.00
O787   O     0.77321   0.79375   0.50000   0.00000  Uiso   1.00
O788   O     0.83333   0.87292   0.42946   0.00000  Uiso   1.00
O789   O     0.83333   0.79375   0.57054   0.00000  Uiso   1.00
O790   O     0.83333   0.87292   0.57054   0.00000  Uiso   1.00
O791   O     0.83333   0.79375   0.42946   0.00000  Uiso   1.00
O792   O     0.71357   0.77651   0.56419   0.00000  Uiso   1.00
C793   C     0.08756   0.16672   0.83327   0.00000  Uiso   1.00
C794   C     0.02035   0.19444   0.79931   0.00000  Uiso   1.00
C795   C     0.29049   0.16644   0.83313   0.00000  Uiso   1.00
C796   C     0.04284   0.16690   0.83354   0.00000  Uiso   1.00
C797   C     0.14663   0.02455   0.79627   0.00000  Uiso   1.00
C798   C     0.18670   0.30879   0.87040   0.00000  Uiso   1.00
C799   C     0.18668   0.02431   0.87041   0.00000  Uiso   1.00
C800   C     0.14666   0.30902   0.79625   0.00000  Uiso   1.00
C801   C     0.24577   0.16661   0.83340   0.00000  Uiso   1.00
C802   C     0.16656   0.16668   0.74033   0.00000  Uiso   1.00
C803   C     0.16677   0.16666   0.92633   0.00000  Uiso   1.00
C804   C     0.16663   0.16668   0.68854   0.00000  Uiso   1.00
C805   C     0.16671   0.16665   0.97813   0.00000  Uiso   1.00
C806   C     0.02306   0.13806   0.86658   0.00000  Uiso   1.00
C807   C     0.31027   0.19528   0.80009   0.00000  Uiso   1.00
C808   C     0.31298   0.13889   0.86736   0.00000  Uiso   1.00
Cu809  Cu    0.16667   0.21355   0.83333   0.00000  Uiso   1.00
Cu810  Cu    0.16667   0.11978   0.83333   0.00000  Uiso   1.00
H811   H     0.03093   0.08172   0.90467   0.00000  Uiso   1.00
H812   H     0.30241   0.25161   0.76200   0.00000  Uiso   1.00
H813   H     0.30976   0.11209   0.93263   0.00000  Uiso   1.00
H814   H     0.02357   0.22124   0.73404   0.00000  Uiso   1.00
H815   H     0.11234   0.07397   0.77089   0.00000  Uiso   1.00
H816   H     0.22099   0.25936   0.89578   0.00000  Uiso   1.00
H817   H     0.22033   0.07376   0.89588   0.00000  Uiso   1.00
H818   H     0.11301   0.25957   0.77078   0.00000  Uiso   1.00
N819   N     0.16667   0.28402   0.83333   0.00000  Uiso   1.00
N820   N     0.16667   0.04931   0.83333   0.00000  Uiso   1.00
O821   O     0.10655   0.20625   0.83333   0.00000  Uiso   1.00
O822   O     0.28643   0.22349   0.76915   0.00000  Uiso   1.00
O823   O     0.29179   0.11536   0.90245   0.00000  Uiso   1.00
O824   O     0.04154   0.21797   0.76421   0.00000  Uiso   1.00
O825   O     0.12499   0.04586   0.75800   0.00000  Uiso   1.00
O826   O     0.20834   0.28747   0.90866   0.00000  Uiso   1.00
O827   O     0.20831   0.04538   0.90867   0.00000  Uiso   1.00
O828   O     0.12503   0.28795   0.75800   0.00000  Uiso   1.00
O829   O     0.22679   0.12709   0.83334   0.00000  Uiso   1.00
O830   O     0.22679   0.20625   0.83334   0.00000  Uiso   1.00
O831   O     0.10655   0.12709   0.83333   0.00000  Uiso   1.00
O832   O     0.16667   0.20625   0.76280   0.00000  Uiso   1.00
O833   O     0.16667   0.12708   0.90387   0.00000  Uiso   1.00
O834   O     0.16667   0.20625   0.90387   0.00000  Uiso   1.00
O835   O     0.16667   0.12708   0.76280   0.00000  Uiso   1.00
O836   O     0.04690   0.10985   0.89752   0.00000  Uiso   1.00
C837   C     0.42090   0.16672   0.83327   0.00000  Uiso   1.00
C838   C     0.35368   0.19444   0.79931   0.00000  Uiso   1.00
C839   C     0.62382   0.16644   0.83313   0.00000  Uiso   1.00
C840   C     0.37618   0.16690   0.83354   0.00000  Uiso   1.00
C841   C     0.47996   0.02455   0.79627   0.00000  Uiso   1.00
C842   C     0.52004   0.30879   0.87040   0.00000  Uiso   1.00
C843   C     0.52001   0.02431   0.87041   0.00000  Uiso   1.00
C844   C     0.47999   0.30902   0.79625   0.00000  Uiso   1.00
C845   C     0.57910   0.16661   0.83340   0.00000  Uiso   1.00
C846   C     0.49989   0.16668   0.74033   0.00000  Uiso   1.00
C847   C     0.50011   0.16666   0.92633   0.00000  Uiso   1.00
C848   C     0.49996   0.16668   0.68854   0.00000  Uiso   1.00
C849   C     0.50004   0.16665   0.97813   0.00000  Uiso   1.00
C850   C     0.35639   0.13806   0.86658   0.00000  Uiso   1.00
C851   C     0.64361   0.19528   0.80009   0.00000  Uiso   1.00
C852   C     0.64632   0.13889   0.86736   0.00000  Uiso   1.00
Cu853  Cu    0.50000   0.21355   0.83333   0.00000  Uiso   1.00
Cu854  Cu    0.50000   0.11978   0.83333   0.00000  Uiso   1.00
H855   H     0.36426   0.08172   0.90467   0.00000  Uiso   1.00
H856   H     0.63574   0.25161   0.76200   0.00000  Uiso   1.00
H857   H     0.64310   0.11209   0.93263   0.00000  Uiso   1.00
H858   H     0.35690   0.22124   0.73404   0.00000  Uiso   1.00
H859   H     0.44568   0.07397   0.77089   0.00000  Uiso   1.00
H860   H     0.55432   0.25936   0.89578   0.00000  Uiso   1.00
H861   H     0.55366   0.07376   0.89588   0.00000  Uiso   1.00
H862   H     0.44634   0.25957   0.77078   0.00000  Uiso   1.00
N863   N     0.50000   0.28402   0.83333   0.00000  Uiso   1.00
N864   N     0.50000   0.04931   0.83333   0.00000  Uiso   1.00
O865   O     0.43988   0.20625   0.83333   0.00000  Uiso   1.00
O866   O     0.61977   0.22349   0.76915   0.00000  Uiso   1.00
O867   O     0.62512   0.11536   0.90245   0.00000  Uiso   1.00
O868   O     0.37488   0.21797   0.76421   0.00000  Uiso   1.00
O869   O     0.45832   0.04586   0.75800   0.00000  Uiso   1.00
O870   O     0.54168   0.28747   0.90866   0.00000  Uiso   1.00
O871   O     0.54164   0.04538   0.90867   0.00000  Uiso   1.00
O872   O     0.45836   0.28795   0.75800   0.00000  Uiso   1.00
O873   O     0.56012   0.12709   0.83334   0.00000  Uiso   1.00
O874   O     0.56012   0.20625   0.83334   0.00000  Uiso   1.00
O875   O     0.43988   0.12709   0.83333   0.00000  Uiso   1.00
O876   O     0.50000   0.20625   0.76280   0.00000  Uiso   1.00
O877   O     0.50000   0.12708   0.90387   0.00000  Uiso   1.00
O878   O     0.50000   0.20625   0.90387   0.00000  Uiso   1.00
O879   O     0.50000   0.12708   0.76280   0.00000  Uiso   1.00
O880   O     0.38023   0.10985   0.89752   0.00000  Uiso   1.00
C881   C     0.75423   0.16672   0.83327   0.00000  Uiso   1.00
C882   C     0.68702   0.19444   0.79931   0.00000  Uiso   1.00
C883   C     0.95716   0.16644   0.83313   0.00000  Uiso   1.00
C884   C     0.70951   0.16690   0.83354   0.00000  Uiso   1.00
C885   C     0.81330   0.02455   0.79627   0.00000  Uiso   1.00
C886   C     0.85337   0.30879   0.87040   0.00000  Uiso   1.00
C887   C     0.85334   0.02431   0.87041   0.00000  Uiso   1.00
C888   C     0.81332   0.30902   0.79625   0.00000  Uiso   1.00
C889   C     0.91244   0.16661   0.83340   0.00000  Uiso   1.00
C890   C     0.83323   0.16668   0.74033   0.00000  Uiso   1.00
C891   C     0.83344   0.16666   0.92633   0.00000  Uiso   1.00
C892   C     0.83329   0.16668   0.68854   0.00000  Uiso   1.00
C893   C     0.83337   0.16665   0.97813   0.00000  Uiso   1.00
C894   C     0.68973   0.13806   0.86658   0.00000  Uiso   1.00
C895   C     0.97694   0.19528   0.80009   0.00000  Uiso   1.00
C896   C     0.97965   0.13889   0.86736   0.00000  Uiso   1.00
Cu897  Cu    0.83333   0.21355   0.83333   0.00000  Uiso   1.00
Cu898  Cu    0.83333   0.11978   0.83333   0.00000  Uiso   1.00
H899   H     0.69759   0.08172   0.90467   0.00000  Uiso   1.00
H900   H     0.96907   0.25161   0.76200   0.00000  Uiso   1.00
H901   H     0.97643   0.11209   0.93263   0.00000  Uiso   1.00
H902   H     0.69024   0.22124   0.73404   0.00000  Uiso   1.00
H903   H     0.77901   0.07397   0.77089   0.00000  Uiso   1.00
H904   H     0.88766   0.25936   0.89578   0.00000  Uiso   1.00
H905   H     0.88699   0.07376   0.89588   0.00000  Uiso   1.00
H906   H     0.77968   0.25957   0.77078   0.00000  Uiso   1.00
N907   N     0.83333   0.28402   0.83333   0.00000  Uiso   1.00
N908   N     0.83333   0.04931   0.83333   0.00000  Uiso   1.00
O909   O     0.77321   0.20625   0.83333   0.00000  Uiso   1.00
O910   O     0.95310   0.22349   0.76915   0.00000  Uiso   1.00
O911   O     0.95846   0.11536   0.90245   0.00000  Uiso   1.00
O912   O     0.70821   0.21797   0.76421   0.00000  Uiso   1.00
O913   O     0.79166   0.04586   0.75800   0.00000  Uiso   1.00
O914   O     0.87501   0.28747   0.90866   0.00000  Uiso   1.00
O915   O     0.87497   0.04538   0.90867   0.00000  Uiso   1.00
O916   O     0.79169   0.28795   0.75800   0.00000  Uiso   1.00
O917   O     0.89345   0.12709   0.83334   0.00000  Uiso   1.00
O918   O     0.89345   0.20625   0.83334   0.00000  Uiso   1.00
O919   O     0.77321   0.12709   0.83333   0.00000  Uiso   1.00
O920   O     0.83333   0.20625   0.76280   0.00000  Uiso   1.00
O921   O     0.83333   0.12708   0.90387   0.00000  Uiso   1.00
O922   O     0.83333   0.20625   0.90387   0.00000  Uiso   1.00
O923   O     0.83333   0.12708   0.76280   0.00000  Uiso   1.00
O924   O     0.71357   0.10985   0.89752   0.00000  Uiso   1.00
C925   C     0.08756   0.50006   0.83327   0.00000  Uiso   1.00
C926   C     0.02035   0.52777   0.79931   0.00000  Uiso   1.00
C927   C     0.29049   0.49977   0.83313   0.00000  Uiso   1.00
C928   C     0.04284   0.50023   0.83354   0.00000  Uiso   1.00
C929   C     0.14663   0.35788   0.79627   0.00000  Uiso   1.00
C930   C     0.18670   0.64212   0.87040   0.00000  Uiso   1.00
C931   C     0.18668   0.35764   0.87041   0.00000  Uiso   1.00
C932   C     0.14666   0.64236   0.79625   0.00000  Uiso   1.00
C933   C     0.24577   0.49994   0.83340   0.00000  Uiso   1.00
C934   C     0.16656   0.50001   0.74033   0.00000  Uiso   1.00
C935   C     0.16677   0.49999   0.92633   0.00000  Uiso   1.00
C936   C     0.16663   0.50001   0.68854   0.00000  Uiso   1.00
C937   C     0.16671   0.49999   0.97813   0.00000  Uiso   1.00
C938   C     0.02306   0.47139   0.86658   0.00000  Uiso   1.00
C939   C     0.31027   0.52861   0.80009   0.00000  Uiso   1.00
C940   C     0.31298   0.47223   0.86736   0.00000  Uiso   1.00
Cu941  Cu    0.16667   0.54689   0.83333   0.00000  Uiso   1.00
Cu942  Cu    0.16667   0.45311   0.83333   0.00000  Uiso   1.00
H943   H     0.03093   0.41505   0.90467   0.00000  Uiso   1.00
H944   H     0.30241   0.58495   0.76200   0.00000  Uiso   1.00
H945   H     0.30976   0.44543   0.93263   0.00000  Uiso   1.00
H946   H     0.02357   0.55457   0.73404   0.00000  Uiso   1.00
H947   H     0.11234   0.40731   0.77089   0.00000  Uiso   1.00
H948   H     0.22099   0.59269   0.89578   0.00000  Uiso   1.00
H949   H     0.22033   0.40709   0.89588   0.00000  Uiso   1.00
H950   H     0.11301   0.59291   0.77078   0.00000  Uiso   1.00
N951   N     0.16667   0.61736   0.83333   0.00000  Uiso   1.00
N952   N     0.16667   0.38264   0.83333   0.00000  Uiso   1.00
O953   O     0.10655   0.53958   0.83333   0.00000  Uiso   1.00
O954   O     0.28643   0.55682   0.76915   0.00000  Uiso   1.00
O955   O     0.29179   0.44870   0.90245   0.00000  Uiso   1.00
O956   O     0.04154   0.55130   0.76421   0.00000  Uiso   1.00
O957   O     0.12499   0.37920   0.75800   0.00000  Uiso   1.00
O958   O     0.20834   0.62080   0.90866   0.00000  Uiso   1.00
O959   O     0.20831   0.37871   0.90867   0.00000  Uiso   1.00
O960   O     0.12503   0.62129   0.75800   0.00000  Uiso   1.00
O961   O     0.22679   0.46042   0.83334   0.00000  Uiso   1.00
O962   O     0.22679   0.53958   0.83334   0.00000  Uiso   1.00
O963   O     0.10655   0.46042   0.83333   0.00000  Uiso   1.00
O964   O     0.16667   0.53959   0.76280   0.00000  Uiso   1.00
O965   O     0.16667   0.46041   0.90387   0.00000  Uiso   1.00
O966   O     0.16667   0.53959   0.90387   0.00000  Uiso   1.00
O967   O     0.16667   0.46041   0.76280   0.00000  Uiso   1.00
O968   O     0.04690   0.44318   0.89752   0.00000  Uiso   1.00
C969   C     0.42090   0.50006   0.83327   0.00000  Uiso   1.00
C970   C     0.35368   0.52777   0.79931   0.00000  Uiso   1.00
C971   C     0.62382   0.49977   0.83313   0.00000  Uiso   1.00
C972   C     0.37618   0.50023   0.83354   0.00000  Uiso   1.00
C973   C     0.47996   0.35788   0.79627   0.00000  Uiso   1.00
C974   C     0.52004   0.64212   0.87040   0.00000  Uiso   1.00
C975   C     0.52001   0.35764   0.87041   0.00000  Uiso   1.00
C976   C     0.47999   0.64236   0.79625   0.00000  Uiso   1.00
C977   C     0.57910   0.49994   0.83340   0.00000  Uiso   1.00
C978   C     0.49989   0.50001   0.74033   0.00000  Uiso   1.00
C979   C     0.50011   0.49999   0.92633   0.00000  Uiso   1.00
C980   C     0.49996   0.50001   0.68854   0.00000  Uiso   1.00
C981   C     0.50004   0.49999   0.97813   0.00000  Uiso   1.00
C982   C     0.35639   0.47139   0.86658   0.00000  Uiso   1.00
C983   C     0.64361   0.52861   0.80009   0.00000  Uiso   1.00
C984   C     0.64632   0.47223   0.86736   0.00000  Uiso   1.00
Cu985  Cu    0.50000   0.54689   0.83333   0.00000  Uiso   1.00
Cu986  Cu    0.50000   0.45311   0.83333   0.00000  Uiso   1.00
H987   H     0.36426   0.41505   0.90467   0.00000  Uiso   1.00
H988   H     0.63574   0.58495   0.76200   0.00000  Uiso   1.00
H989   H     0.64310   0.44543   0.93263   0.00000  Uiso   1.00
H990   H     0.35690   0.55457   0.73404   0.00000  Uiso   1.00
H991   H     0.44568   0.40731   0.77089   0.00000  Uiso   1.00
H992   H     0.55432   0.59269   0.89578   0.00000  Uiso   1.00
H993   H     0.55366   0.40709   0.89588   0.00000  Uiso   1.00
H994   H     0.44634   0.59291   0.77078   0.00000  Uiso   1.00
N995   N     0.50000   0.61736   0.83333   0.00000  Uiso   1.00
N996   N     0.50000   0.38264   0.83333   0.00000  Uiso   1.00
O997   O     0.43988   0.53958   0.83333   0.00000  Uiso   1.00
O998   O     0.61977   0.55682   0.76915   0.00000  Uiso   1.00
O999   O     0.62512   0.44870   0.90245   0.00000  Uiso   1.00
O1000  O     0.37488   0.55130   0.76421   0.00000  Uiso   1.00
O1001  O     0.45832   0.37920   0.75800   0.00000  Uiso   1.00
O1002  O     0.54168   0.62080   0.90866   0.00000  Uiso   1.00
O1003  O     0.54164   0.37871   0.90867   0.00000  Uiso   1.00
O1004  O     0.45836   0.62129   0.75800   0.00000  Uiso   1.00
O1005  O     0.56012   0.46042   0.83334   0.00000  Uiso   1.00
O1006  O     0.56012   0.53958   0.83334   0.00000  Uiso   1.00
O1007  O     0.43988   0.46042   0.83333   0.00000  Uiso   1.00
O1008  O     0.50000   0.53959   0.76280   0.00000  Uiso   1.00
O1009  O     0.50000   0.46041   0.90387   0.00000  Uiso   1.00
O1010  O     0.50000   0.53959   0.90387   0.00000  Uiso   1.00
O1011  O     0.50000   0.46041   0.76280   0.00000  Uiso   1.00
O1012  O     0.38023   0.44318   0.89752   0.00000  Uiso   1.00
C1013  C     0.75423   0.50006   0.83327   0.00000  Uiso   1.00
C1014  C     0.68702   0.52777   0.79931   0.00000  Uiso   1.00
C1015  C     0.95716   0.49977   0.83313   0.00000  Uiso   1.00
C1016  C     0.70951   0.50023   0.83354   0.00000  Uiso   1.00
C1017  C     0.81330   0.35788   0.79627   0.00000  Uiso   1.00
C1018  C     0.85337   0.64212   0.87040   0.00000  Uiso   1.00
C1019  C     0.85334   0.35764   0.87041   0.00000  Uiso   1.00
C1020  C     0.81332   0.64236   0.79625   0.00000  Uiso   1.00
C1021  C     0.91244   0.49994   0.83340   0.00000  Uiso   1.00
C1022  C     0.83323   0.50001   0.74033   0.00000  Uiso   1.00
C1023  C     0.83344   0.49999   0.92633   0.00000  Uiso   1.00
C1024  C     0.83329   0.50001   0.68854   0.00000  Uiso   1.00
C1025  C     0.83337   0.49999   0.97813   0.00000  Uiso   1.00
C1026  C     0.68973   0.47139   0.86658   0.00000  Uiso   1.00
C1027  C     0.97694   0.52861   0.80009   0.00000  Uiso   1.00
C1028  C     0.97965   0.47223   0.86736   0.00000  Uiso   1.00
Cu1029 Cu    0.83333   0.54689   0.83333   0.00000  Uiso   1.00
Cu1030 Cu    0.83333   0.45311   0.83333   0.00000  Uiso   1.00
H1031  H     0.69759   0.41505   0.90467   0.00000  Uiso   1.00
H1032  H     0.96907   0.58495   0.76200   0.00000  Uiso   1.00
H1033  H     0.97643   0.44543   0.93263   0.00000  Uiso   1.00
H1034  H     0.69024   0.55457   0.73404   0.00000  Uiso   1.00
H1035  H     0.77901   0.40731   0.77089   0.00000  Uiso   1.00
H1036  H     0.88766   0.59269   0.89578   0.00000  Uiso   1.00
H1037  H     0.88699   0.40709   0.89588   0.00000  Uiso   1.00
H1038  H     0.77968   0.59291   0.77078   0.00000  Uiso   1.00
N1039  N     0.83333   0.61736   0.83333   0.00000  Uiso   1.00
N1040  N     0.83333   0.38264   0.83333   0.00000  Uiso   1.00
O1041  O     0.77321   0.53958   0.83333   0.00000  Uiso   1.00
O1042  O     0.95310   0.55682   0.76915   0.00000  Uiso   1.00
O1043  O     0.95846   0.44870   0.90245   0.00000  Uiso   1.00
O1044  O     0.70821   0.55130   0.76421   0.00000  Uiso   1.00
O1045  O     0.79166   0.37920   0.75800   0.00000  Uiso   1.00
O1046  O     0.87501   0.62080   0.90866   0.00000  Uiso   1.00
O1047  O     0.87497   0.37871   0.90867   0.00000  Uiso   1.00
O1048  O     0.79169   0.62129   0.75800   0.00000  Uiso   1.00
O1049  O     0.89345   0.46042   0.83334   0.00000  Uiso   1.00
O1050  O     0.89345   0.53958   0.83334   0.00000  Uiso   1.00
O1051  O     0.77321   0.46042   0.83333   0.00000  Uiso   1.00
O1052  O     0.83333   0.53959   0.76280   0.00000  Uiso   1.00
O1053  O     0.83333   0.46041   0.90387   0.00000  Uiso   1.00
O1054  O     0.83333   0.53959   0.90387   0.00000  Uiso   1.00
O1055  O     0.83333   0.46041   0.76280   0.00000  Uiso   1.00
O1056  O     0.71357   0.44318   0.89752   0.00000  Uiso   1.00
C1057  C     0.08756   0.83339   0.83327   0.00000  Uiso   1.00
C1058  C     0.02035   0.86111   0.79931   0.00000  Uiso   1.00
C1059  C     0.29049   0.83310   0.83313   0.00000  Uiso   1.00
C1060  C     0.04284   0.83356   0.83354   0.00000  Uiso   1.00
C1061  C     0.14663   0.69121   0.79627   0.00000  Uiso   1.00
C1062  C     0.18670   0.97545   0.87040   0.00000  Uiso   1.00
C1063  C     0.18668   0.69098   0.87041   0.00000  Uiso   1.00
C1064  C     0.14666   0.97569   0.79625   0.00000  Uiso   1.00
C1065  C     0.24577   0.83328   0.83340   0.00000  Uiso   1.00
C1066  C     0.16656   0.83334   0.74033   0.00000  Uiso   1.00
C1067  C     0.16677   0.83332   0.92633   0.00000  Uiso   1.00
C1068  C     0.16663   0.83334   0.68854   0.00000  Uiso   1.00
C1069  C     0.16671   0.83332   0.97813   0.00000  Uiso   1.00
C1070  C     0.02306   0.80472   0.86658   0.00000  Uiso   1.00
C1071  C     0.31027   0.86194   0.80009   0.00000  Uiso   1.00
C1072  C     0.31298   0.80556   0.86736   0.00000  Uiso   1.00
Cu1073 Cu    0.16667   0.88022   0.83333   0.00000  Uiso   1.00
Cu1074 Cu    0.16667   0.78645   0.83333   0.00000  Uiso   1.00
H1075  H     0.03093   0.74839   0.90467   0.00000  Uiso   1.00
H1076  H     0.30241   0.91828   0.76200   0.00000  Uiso   1.00
H1077  H     0.30976   0.77876   0.93263   0.00000  Uiso   1.00
H1078  H     0.02357   0.88791   0.73404   0.00000  Uiso   1.00
H1079  H     0.11234   0.74064   0.77089   0.00000  Uiso   1.00
H1080  H     0.22099   0.92603   0.89578   0.00000  Uiso   1.00
H1081  H     0.22033   0.74043   0.89588   0.00000  Uiso   1.00
H1082  H     0.11301   0.92624   0.77078   0.00000  Uiso   1.00
N1083  N     0.16667   0.95069   0.83333   0.00000  Uiso   1.00
N1084  N     0.16667   0.71598   0.83333   0.00000  Uiso   1.00
O1085  O     0.10655   0.87291   0.83333   0.00000  Uiso   1.00
O1086  O     0.28643   0.89015   0.76915   0.00000  Uiso   1.00
O1087  O     0.29179   0.78203   0.90245   0.00000  Uiso   1.00
O1088  O     0.04154   0.88464   0.76421   0.00000  Uiso   1.00
O1089  O     0.12499   0.71253   0.75800   0.00000  Uiso   1.00
O1090  O     0.20834   0.95414   0.90866   0.00000  Uiso   1.00
O1091  O     0.20831   0.71204   0.90867   0.00000  Uiso   1.00
O1092  O     0.12503   0.95462   0.75800   0.00000  Uiso   1.00
O1093  O     0.22679   0.79375   0.83334   0.00000  Uiso   1.00
O1094  O     0.22679   0.87291   0.83334   0.00000  Uiso   1.00
O1095  O     0.10655   0.79375   0.83333   0.00000  Uiso   1.00
O1096  O     0.16667   0.87292   0.76280   0.00000  Uiso   1.00
O1097  O     0.16667   0.79375   0.90387   0.00000  Uiso   1.00
O1098  O     0.16667   0.87292   0.90387   0.00000  Uiso   1.00
O1099  O     0.16667   0.79375   0.76280   0.00000  Uiso   1.00
O1100  O     0.04690   0.77651   0.89752   0.00000  Uiso   1.00
C1101  C     0.42090   0.83339   0.83327   0.00000  Uiso   1.00
C1102  C     0.35368   0.86111   0.79931   0.00000  Uiso   1.00
C1103  C     0.62382   0.83310   0.83313   0.00000  Uiso   1.00
C1104  C     0.37618   0.83356   0.83354   0.00000  Uiso   1.00
C1105  C     0.47996   0.69121   0.79627   0.00000  Uiso   1.00
C1106  C     0.52004   0.97545   0.87040   0.00000  Uiso   1.00
C1107  C     0.52001   0.69098   0.87041   0.00000  Uiso   1.00
C1108  C     0.47999   0.97569   0.79625   0.00000  Uiso   1.00
C1109  C     0.57910   0.83328   0.83340   0.00000  Uiso   1.00
C1110  C     0.49989   0.83334   0.74033   0.00000  Uiso   1.00
C1111  C     0.50011   0.83332   0.92633   0.00000  Uiso   1.00
C1112  C     0.49996   0.83334   0.68854   0.00000  Uiso   1.00
C1113  C     0.50004   0.83332   0.97813   0.00000  Uiso   1.00
C1114  C     0.35639   0.80472   0.86658   0.00000  Uiso   1.00
C1115  C     0.64361   0.86194   0.80009   0.00000  Uiso   1.00
C1116  C     0.64632   0.80556   0.86736   0.00000  Uiso   1.00
Cu1117 Cu    0.50000   0.88022   0.83333   0.00000  Uiso   1.00
Cu1118 Cu    0.50000   0.78645   0.83333   0.00000  Uiso   1.00
H1119  H     0.36426   0.74839   0.90467   0.00000  Uiso   1.00
H1120  H     0.63574   0.91828   0.76200   0.00000  Uiso   1.00
H1121  H     0.64310   0.77876   0.93263   0.00000  Uiso   1.00
H1122  H     0.35690   0.88791   0.73404   0.00000  Uiso   1.00
H1123  H     0.44568   0.74064   0.77089   0.00000  Uiso   1.00
H1124  H     0.55432   0.92603   0.89578   0.00000  Uiso   1.00
H1125  H     0.55366   0.74043   0.89588   0.00000  Uiso   1.00
H1126  H     0.44634   0.92624   0.77078   0.00000  Uiso   1.00
N1127  N     0.50000   0.95069   0.83333   0.00000  Uiso   1.00
N1128  N     0.50000   0.71598   0.83333   0.00000  Uiso   1.00
O1129  O     0.43988   0.87291   0.83333   0.00000  Uiso   1.00
O1130  O     0.61977   0.89015   0.76915   0.00000  Uiso   1.00
O1131  O     0.62512   0.78203   0.90245   0.00000  Uiso   1.00
O1132  O     0.37488   0.88464   0.76421   0.00000  Uiso   1.00
O1133  O     0.45832   0.71253   0.75800   0.00000  Uiso   1.00
O1134  O     0.54168   0.95414   0.90866   0.00000  Uiso   1.00
O1135  O     0.54164   0.71204   0.90867   0.00000  Uiso   1.00
O1136  O     0.45836   0.95462   0.75800   0.00000  Uiso   1.00
O1137  O     0.56012   0.79375   0.83334   0.00000  Uiso   1.00
O1138  O     0.56012   0.87291   0.83334   0.00000  Uiso   1.00
O1139  O     0.43988   0.79375   0.83333   0.00000  Uiso   1.00
O1140  O     0.50000   0.87292   0.76280   0.00000  Uiso   1.00
O1141  O     0.50000   0.79375   0.90387   0.00000  Uiso   1.00
O1142  O     0.50000   0.87292   0.90387   0.00000  Uiso   1.00
O1143  O     0.50000   0.79375   0.76280   0.00000  Uiso   1.00
O1144  O     0.38023   0.77651   0.89752   0.00000  Uiso   1.00
C1145  C     0.75423   0.83339   0.83327   0.00000  Uiso   1.00
C1146  C     0.68702   0.86111   0.79931   0.00000  Uiso   1.00
C1147  C     0.95716   0.83310   0.83313   0.00000  Uiso   1.00
C1148  C     0.70951   0.83356   0.83354   0.00000  Uiso   1.00
C1149  C     0.81330   0.69121   0.79627   0.00000  Uiso   1.00
C1150  C     0.85337   0.97545   0.87040   0.00000  Uiso   1.00
C1151  C     0.85334   0.69098   0.87041   0.00000  Uiso   1.00
C1152  C     0.81332   0.97569   0.79625   0.00000  Uiso   1.00
C1153  C     0.91244   0.83328   0.83340   0.00000  Uiso   1.00
C1154  C     0.83323   0.83334   0.74033   0.00000  Uiso   1.00
C1155  C     0.83344   0.83332   0.92633   0.00000  Uiso   1.00
C1156  C     0.83329   0.83334   0.68854   0.00000  Uiso   1.00
C1157  C     0.83337   0.83332   0.97813   0.00000  Uiso   1.00
C1158  C     0.68973   0.80472   0.86658   0.00000  Uiso   1.00
C1159  C     0.97694   0.86194   0.80009   0.00000  Uiso   1.00
C1160  C     0.97965   0.80556   0.86736   0.00000  Uiso   1.00
Cu1161 Cu    0.83333   0.88022   0.83333   0.00000  Uiso   1.00
Cu1162 Cu    0.83333   0.78645   0.83333   0.00000  Uiso   1.00
H1163  H     0.69759   0.74839   0.90467   0.00000  Uiso   1.00
H1164  H     0.96907   0.91828   0.76200   0.00000  Uiso   1.00
H1165  H     0.97643   0.77876   0.93263   0.00000  Uiso   1.00
H1166  H     0.69024   0.88791   0.73404   0.00000  Uiso   1.00
H1167  H     0.77901   0.74064   0.77089   0.00000  Uiso   1.00
H1168  H     0.88766   0.92603   0.89578   0.00000  Uiso   1.00
H1169  H     0.88699   0.74043   0.89588   0.00000  Uiso   1.00
H1170  H     0.77968   0.92624   0.77078   0.00000  Uiso   1.00
N1171  N     0.83333   0.95069   0.83333   0.00000  Uiso   1.00
N1172  N     0.83333   0.71598   0.83333   0.00000  Uiso   1.00
O1173  O     0.77321   0.87291   0.83333   0.00000  Uiso   1.00
O1174  O     0.95310   0.89015   0.76915   0.00000  Uiso   1.00
O1175  O     0.95846   0.78203   0.90245   0.00000  Uiso   1.00
O1176  O     0.70821   0.88464   0.76421   0.00000  Uiso   1.00
O1177  O     0.79166   0.71253   0.75800   0.00000  Uiso   1.00
O1178  O     0.87501   0.95414   0.90866   0.00000  Uiso   1.00
O1179  O     0.87497   0.71204   0.90867   0.00000  Uiso   1.00
O1180  O     0.79169   0.95462   0.75800   0.00000  Uiso   1.00
O1181  O     0.89345   0.79375   0.83334   0.00000  Uiso   1.00
O1182  O     0.89345   0.87291   0.83334   0.00000  Uiso   1.00
O1183  O     0.77321   0.79375   0.83333   0.00000  Uiso   1.00
O1184  O     0.83333   0.87292   0.76280   0.00000  Uiso   1.00
O1185  O     0.83333   0.79375   0.90387   0.00000  Uiso   1.00
O1186  O     0.83333   0.87292   0.90387   0.00000  Uiso   1.00
O1187  O     0.83333   0.79375   0.76280   0.00000  Uiso   1.00
O1188  O     0.71357   0.77651   0.89752   0.00000  Uiso   1.00
loop_
_geom_bond_atom_site_label_1
_geom_bond_atom_site_label_2
_geom_bond_distance
_geom_bond_site_symmetry_2
_ccdc_geom_bond_type
C1     C4      1.450   .     S
C1     O29     1.301   .     A
C1     O39     1.300   .     A
C2     C4      1.404   .     A
C2     O32     1.382   .     S
C2     C103    1.408   1_455 S
C3     C9      1.450   .     S
C3     C15     1.404   .     A
C3     C16     1.404   .     A
C4     C14     1.404   .     A
C5     N28     1.378   .     A
C5     O33     1.375   .     S
C5     C272    1.415   1_545 S
C6     N27     1.378   .     A
C6     O34     1.375   .     S
C6     C139    1.415   .     S
C7     O35     1.374   .     S
C7     N28     1.379   .     A
C7     C270    1.415   1_545 S
C8     O36     1.374   .     S
C8     N27     1.379   .     A
C8     C137    1.415   .     S
C9     O37     1.301   .     A
C9     O38     1.300   .     A
C10    C12     1.410   .     S
C10    O40     1.299   .     A
C10    O43     1.299   .     A
C11    C13     1.410   .     S
C11    O41     1.299   .     A
C11    O42     1.299   .     A
C12    C805    1.191   1_554 S
C13    C408    1.191   .     S
C14    O44     1.382   .     S
C14    C104    1.408   1_455 S
C15    O30     1.382   .     S
C15    C46     1.408   .     S
C16    O31     1.382   .     S
C16    C58     1.408   .     S
Cu17   O29     1.961   .     S
Cu17   Cu18    2.716   .     S
Cu17   O38     1.959   .     S
Cu17   N27     2.041   .     S
Cu17   O42     1.932   .     S
Cu17   O40     1.932   .     S
Cu18   O39     1.959   .     S
Cu18   N28     2.041   .     S
Cu18   O43     1.932   .     S
Cu18   O37     1.961   .     S
Cu18   O41     1.932   .     S
H19    O44     0.990   .     S
H20    O30     0.990   .     S
H21    O31     0.990   .     S
H22    O32     0.990   .     S
H23    O33     0.982   .     S
H24    O34     0.982   .     S
H25    O35     0.981   .     S
H26    O36     0.981   .     S
C45    C48     1.450   .     S
C45    O73     1.301   .     A
C45    O83     1.300   .     A
C46    C48     1.404   .     A
C46    O76     1.382   .     S
C47    C53     1.450   .     S
C47    C59     1.404   .     A
C47    C60     1.404   .     A
C48    C58     1.404   .     A
C49    N72     1.378   .     A
C49    O77     1.375   .     S
C49    C316    1.415   1_545 S
C50    N71     1.378   .     A
C50    O78     1.375   .     S
C50    C183    1.415   .     S
C51    O79     1.374   .     S
C51    N72     1.379   .     A
C51    C314    1.415   1_545 S
C52    O80     1.374   .     S
C52    N71     1.379   .     A
C52    C181    1.415   .     S
C53    O81     1.301   .     A
C53    O82     1.300   .     A
C54    C56     1.410   .     S
C54    O84     1.299   .     A
C54    O87     1.299   .     A
C55    C57     1.410   .     S
C55    O85     1.299   .     A
C55    O86     1.299   .     A
C56    C849    1.191   1_554 S
C57    C452    1.191   .     S
C58    O88     1.382   .     S
C59    O74     1.382   .     S
C59    C90     1.408   .     S
C60    O75     1.382   .     S
C60    C102    1.408   .     S
Cu61   O73     1.961   .     S
Cu61   Cu62    2.716   .     S
Cu61   O82     1.959   .     S
Cu61   N71     2.041   .     S
Cu61   O86     1.932   .     S
Cu61   O84     1.932   .     S
Cu62   O83     1.959   .     S
Cu62   N72     2.041   .     S
Cu62   O87     1.932   .     S
Cu62   O81     1.961   .     S
Cu62   O85     1.932   .     S
H63    O88     0.990   .     S
H64    O74     0.990   .     S
H65    O75     0.990   .     S
H66    O76     0.990   .     S
H67    O77     0.982   .     S
H68    O78     0.982   .     S
H69    O79     0.981   .     S
H70    O80     0.981   .     S
C89    C92     1.450   .     S
C89    O117    1.301   .     A
C89    O127    1.300   .     A
C90    C92     1.404   .     A
C90    O120    1.382   .     S
C91    C97     1.450   .     S
C91    C103    1.404   .     A
C91    C104    1.404   .     A
C92    C102    1.404   .     A
C93    N116    1.378   .     A
C93    O121    1.375   .     S
C93    C360    1.415   1_545 S
C94    N115    1.378   .     A
C94    O122    1.375   .     S
C94    C227    1.415   .     S
C95    O123    1.374   .     S
C95    N116    1.379   .     A
C95    C358    1.415   1_545 S
C96    O124    1.374   .     S
C96    N115    1.379   .     A
C96    C225    1.415   .     S
C97    O125    1.301   .     A
C97    O126    1.300   .     A
C98    C100    1.410   .     S
C98    O128    1.299   .     A
C98    O131    1.299   .     A
C99    C101    1.410   .     S
C99    O129    1.299   .     A
C99    O130    1.299   .     A
C100   C893    1.191   1_554 S
C101   C496    1.191   .     S
C102   O132    1.382   .     S
C103   O118    1.382   .     S
C103   C2      1.408   1_655 S
C104   O119    1.382   .     S
C104   C14     1.408   1_655 S
Cu105  O117    1.961   .     S
Cu105  Cu106   2.716   .     S
Cu105  O126    1.959   .     S
Cu105  N115    2.041   .     S
Cu105  O130    1.932   .     S
Cu105  O128    1.932   .     S
Cu106  O127    1.959   .     S
Cu106  N116    2.041   .     S
Cu106  O131    1.932   .     S
Cu106  O125    1.961   .     S
Cu106  O129    1.932   .     S
H107   O132    0.990   .     S
H108   O118    0.990   .     S
H109   O119    0.990   .     S
H110   O120    0.990   .     S
H111   O121    0.982   .     S
H112   O122    0.982   .     S
H113   O123    0.981   .     S
H114   O124    0.981   .     S
C133   C136    1.450   .     S
C133   O161    1.301   .     A
C133   O171    1.300   .     A
C134   C136    1.404   .     A
C134   O164    1.382   .     S
C134   C235    1.408   1_455 S
C135   C141    1.450   .     S
C135   C147    1.404   .     A
C135   C148    1.404   .     A
C136   C146    1.404   .     A
C137   N160    1.378   .     A
C137   O165    1.375   .     S
C138   N159    1.378   .     A
C138   O166    1.375   .     S
C138   C271    1.415   .     S
C139   O167    1.374   .     S
C139   N160    1.379   .     A
C140   O168    1.374   .     S
C140   N159    1.379   .     A
C140   C269    1.415   .     S
C141   O169    1.301   .     A
C141   O170    1.300   .     A
C142   C144    1.410   .     S
C142   O172    1.299   .     A
C142   O175    1.299   .     A
C143   C145    1.410   .     S
C143   O173    1.299   .     A
C143   O174    1.299   .     A
C144   C937    1.191   1_554 S
C145   C540    1.191   .     S
C146   O176    1.382   .     S
C146   C236    1.408   1_455 S
C147   O162    1.382   .     S
C147   C178    1.408   .     S
C148   O163    1.382   .     S
C148   C190    1.408   .     S
Cu149  O161    1.961   .     S
Cu149  Cu150   2.716   .     S
Cu149  O170    1.959   .     S
Cu149  N159    2.041   .     S
Cu149  O174    1.932   .     S
Cu149  O172    1.932   .     S
Cu150  O171    1.959   .     S
Cu150  N160    2.041   .     S
Cu150  O175    1.932   .     S
Cu150  O169    1.961   .     S
Cu150  O173    1.932   .     S
H151   O176    0.990   .     S
H152   O162    0.990   .     S
H153   O163    0.990   .     S
H154   O164    0.990   .     S
H155   O165    0.982   .     S
H156   O166    0.982   .     S
H157   O167    0.981   .     S
H158   O168    0.981   .     S
C177   C180    1.450   .     S
C177   O205    1.301   .     A
C177   O215    1.300   .     A
C178   C180    1.404   .     A
C178   O208    1.382   .     S
C179   C185    1.450   .     S
C179   C191    1.404   .     A
C179   C192    1.404   .     A
C180   C190    1.404   .     A
C181   N204    1.378   .     A
C181   O209    1.375   .     S
C182   N203    1.378   .     A
C182   O210    1.375   .     S
C182   C315    1.415   .     S
C183   O211    1.374   .     S
C183   N204    1.379   .     A
C184   O212    1.374   .     S
C184   N203    1.379   .     A
C184   C313    1.415   .     S
C185   O213    1.301   .     A
C185   O214    1.300   .     A
C186   C188    1.410   .     S
C186   O216    1.299   .     A
C186   O219    1.299   .     A
C187   C189    1.410   .     S
C187   O217    1.299   .     A
C187   O218    1.299   .     A
C188   C981    1.191   1_554 S
C189   C584    1.191   .     S
C190   O220    1.382   .     S
C191   O206    1.382   .     S
C191   C222    1.408   .     S
C192   O207    1.382   .     S
C192   C234    1.408   .     S
Cu193  O205    1.961   .     S
Cu193  Cu194   2.716   .     S
Cu193  O214    1.959   .     S
Cu193  N203    2.041   .     S
Cu193  O218    1.932   .     S
Cu193  O216    1.932   .     S
Cu194  O215    1.959   .     S
Cu194  N204    2.041   .     S
Cu194  O219    1.932   .     S
Cu194  O213    1.961   .     S
Cu194  O217    1.932   .     S
H195   O220    0.990   .     S
H196   O206    0.990   .     S
H197   O207    0.990   .     S
H198   O208    0.990   .     S
H199   O209    0.982   .     S
H200   O210    0.982   .     S
H201   O211    0.981   .     S
H202   O212    0.981   .     S
C221   C224    1.450   .     S
C221   O249    1.301   .     A
C221   O259    1.300   .     A
C222   C224    1.404   .     A
C222   O252    1.382   .     S
C223   C229    1.450   .     S
C223   C235    1.404   .     A
C223   C236    1.404   .     A
C224   C234    1.404   .     A
C225   N248    1.378   .     A
C225   O253    1.375   .     S
C226   N247    1.378   .     A
C226   O254    1.375   .     S
C226   C359    1.415   .     S
C227   O255    1.374   .     S
C227   N248    1.379   .     A
C228   O256    1.374   .     S
C228   N247    1.379   .     A
C228   C357    1.415   .     S
C229   O257    1.301   .     A
C229   O258    1.300   .     A
C230   C232    1.410   .     S
C230   O260    1.299   .     A
C230   O263    1.299   .     A
C231   C233    1.410   .     S
C231   O261    1.299   .     A
C231   O262    1.299   .     A
C232   C1025   1.191   1_554 S
C233   C628    1.191   .     S
C234   O264    1.382   .     S
C235   O250    1.382   .     S
C235   C134    1.408   1_655 S
C236   O251    1.382   .     S
C236   C146    1.408   1_655 S
Cu237  O249    1.961   .     S
Cu237  Cu238   2.716   .     S
Cu237  O258    1.959   .     S
Cu237  N247    2.041   .     S
Cu237  O262    1.932   .     S
Cu237  O260    1.932   .     S
Cu238  O259    1.959   .     S
Cu238  N248    2.041   .     S
Cu238  O263    1.932   .     S
Cu238  O257    1.961   .     S
Cu238  O261    1.932   .     S
H239   O264    0.990   .     S
H240   O250    0.990   .     S
H241   O251    0.990   .     S
H242   O252    0.990   .     S
H243   O253    0.982   .     S
H244   O254    0.982   .     S
H245   O255    0.981   .     S
H246   O256    0.981   .     S
C265   C268    1.450   .     S
C265   O293    1.301   .     A
C265   O303    1.300   .     A
C266   C268    1.404   .     A
C266   O296    1.382   .     S
C266   C367    1.408   1_455 S
C267   C273    1.450   .     S
C267   C279    1.404   .     A
C267   C280    1.404   .     A
C268   C278    1.404   .     A
C269   N292    1.378   .     A
C269   O297    1.375   .     S
C270   N291    1.378   .     A
C270   O298    1.375   .     S
C270   C7      1.415   1_565 S
C271   O299    1.374   .     S
C271   N292    1.379   .     A
C272   O300    1.374   .     S
C272   N291    1.379   .     A
C272   C5      1.415   1_565 S
C273   O301    1.301   .     A
C273   O302    1.300   .     A
C274   C276    1.410   .     S
C274   O304    1.299   .     A
C274   O307    1.299   .     A
C275   C277    1.410   .     S
C275   O305    1.299   .     A
C275   O306    1.299   .     A
C276   C1069   1.191   1_554 S
C277   C672    1.191   .     S
C278   O308    1.382   .     S
C278   C368    1.408   1_455 S
C279   O294    1.382   .     S
C279   C310    1.408   .     S
C280   O295    1.382   .     S
C280   C322    1.408   .     S
Cu281  O293    1.961   .     S
Cu281  Cu282   2.716   .     S
Cu281  O302    1.959   .     S
Cu281  N291    2.041   .     S
Cu281  O306    1.932   .     S
Cu281  O304    1.932   .     S
Cu282  O303    1.959   .     S
Cu282  N292    2.041   .     S
Cu282  O307    1.932   .     S
Cu282  O301    1.961   .     S
Cu282  O305    1.932   .     S
H283   O308    0.990   .     S
H284   O294    0.990   .     S
H285   O295    0.990   .     S
H286   O296    0.990   .     S
H287   O297    0.982   .     S
H288   O298    0.982   .     S
H289   O299    0.981   .     S
H290   O300    0.981   .     S
C309   C312    1.450   .     S
C309   O337    1.301   .     A
C309   O347    1.300   .     A
C310   C312    1.404   .     A
C310   O340    1.382   .     S
C311   C317    1.450   .     S
C311   C323    1.404   .     A
C311   C324    1.404   .     A
C312   C322    1.404   .     A
C313   N336    1.378   .     A
C313   O341    1.375   .     S
C314   N335    1.378   .     A
C314   O342    1.375   .     S
C314   C51     1.415   1_565 S
C315   O343    1.374   .     S
C315   N336    1.379   .     A
C316   O344    1.374   .     S
C316   N335    1.379   .     A
C316   C49     1.415   1_565 S
C317   O345    1.301   .     A
C317   O346    1.300   .     A
C318   C320    1.410   .     S
C318   O348    1.299   .     A
C318   O351    1.299   .     A
C319   C321    1.410   .     S
C319   O349    1.299   .     A
C319   O350    1.299   .     A
C320   C1113   1.191   1_554 S
C321   C716    1.191   .     S
C322   O352    1.382   .     S
C323   O338    1.382   .     S
C323   C354    1.408   .     S
C324   O339    1.382   .     S
C324   C366    1.408   .     S
Cu325  O337    1.961   .     S
Cu325  Cu326   2.716   .     S
Cu325  O346    1.959   .     S
Cu325  N335    2.041   .     S
Cu325  O350    1.932   .     S
Cu325  O348    1.932   .     S
Cu326  O347    1.959   .     S
Cu326  N336    2.041   .     S
Cu326  O351    1.932   .     S
Cu326  O345    1.961   .     S
Cu326  O349    1.932   .     S
H327   O352    0.990   .     S
H328   O338    0.990   .     S
H329   O339    0.990   .     S
H330   O340    0.990   .     S
H331   O341    0.982   .     S
H332   O342    0.982   .     S
H333   O343    0.981   .     S
H334   O344    0.981   .     S
C353   C356    1.450   .     S
C353   O381    1.301   .     A
C353   O391    1.300   .     A
C354   C356    1.404   .     A
C354   O384    1.382   .     S
C355   C361    1.450   .     S
C355   C367    1.404   .     A
C355   C368    1.404   .     A
C356   C366    1.404   .     A
C357   N380    1.378   .     A
C357   O385    1.375   .     S
C358   N379    1.378   .     A
C358   O386    1.375   .     S
C358   C95     1.415   1_565 S
C359   O387    1.374   .     S
C359   N380    1.379   .     A
C360   O388    1.374   .     S
C360   N379    1.379   .     A
C360   C93     1.415   1_565 S
C361   O389    1.301   .     A
C361   O390    1.300   .     A
C362   C364    1.410   .     S
C362   O392    1.299   .     A
C362   O395    1.299   .     A
C363   C365    1.410   .     S
C363   O393    1.299   .     A
C363   O394    1.299   .     A
C364   C1157   1.191   1_554 S
C365   C760    1.191   .     S
C366   O396    1.382   .     S
C367   O382    1.382   .     S
C367   C266    1.408   1_655 S
C368   O383    1.382   .     S
C368   C278    1.408   1_655 S
Cu369  O381    1.961   .     S
Cu369  Cu370   2.716   .     S
Cu369  O390    1.959   .     S
Cu369  N379    2.041   .     S
Cu369  O394    1.932   .     S
Cu369  O392    1.932   .     S
Cu370  O391    1.959   .     S
Cu370  N380    2.041   .     S
Cu370  O395    1.932   .     S
Cu370  O389    1.961   .     S
Cu370  O393    1.932   .     S
H371   O396    0.990   .     S
H372   O382    0.990   .     S
H373   O383    0.990   .     S
H374   O384    0.990   .     S
H375   O385    0.982   .     S
H376   O386    0.982   .     S
H377   O387    0.981   .     S
H378   O388    0.981   .     S
C397   C400    1.450   .     S
C397   O425    1.301   .     A
C397   O435    1.300   .     A
C398   C400    1.404   .     A
C398   O428    1.382   .     S
C398   C499    1.408   1_455 S
C399   C405    1.450   .     S
C399   C411    1.404   .     A
C399   C412    1.404   .     A
C400   C410    1.404   .     A
C401   N424    1.378   .     A
C401   O429    1.375   .     S
C401   C668    1.415   1_545 S
C402   N423    1.378   .     A
C402   O430    1.375   .     S
C402   C535    1.415   .     S
C403   O431    1.374   .     S
C403   N424    1.379   .     A
C403   C666    1.415   1_545 S
C404   O432    1.374   .     S
C404   N423    1.379   .     A
C404   C533    1.415   .     S
C405   O433    1.301   .     A
C405   O434    1.300   .     A
C406   C408    1.410   .     S
C406   O436    1.299   .     A
C406   O439    1.299   .     A
C407   C409    1.410   .     S
C407   O437    1.299   .     A
C407   O438    1.299   .     A
C409   C804    1.191   .     S
C410   O440    1.382   .     S
C410   C500    1.408   1_455 S
C411   O426    1.382   .     S
C411   C442    1.408   .     S
C412   O427    1.382   .     S
C412   C454    1.408   .     S
Cu413  O425    1.961   .     S
Cu413  Cu414   2.716   .     S
Cu413  O434    1.959   .     S
Cu413  N423    2.041   .     S
Cu413  O438    1.932   .     S
Cu413  O436    1.932   .     S
Cu414  O435    1.959   .     S
Cu414  N424    2.041   .     S
Cu414  O439    1.932   .     S
Cu414  O433    1.961   .     S
Cu414  O437    1.932   .     S
H415   O440    0.990   .     S
H416   O426    0.990   .     S
H417   O427    0.990   .     S
H418   O428    0.990   .     S
H419   O429    0.982   .     S
H420   O430    0.982   .     S
H421   O431    0.981   .     S
H422   O432    0.981   .     S
C441   C444    1.450   .     S
C441   O469    1.301   .     A
C441   O479    1.300   .     A
C442   C444    1.404   .     A
C442   O472    1.382   .     S
C443   C449    1.450   .     S
C443   C455    1.404   .     A
C443   C456    1.404   .     A
C444   C454    1.404   .     A
C445   N468    1.378   .     A
C445   O473    1.375   .     S
C445   C712    1.415   1_545 S
C446   N467    1.378   .     A
C446   O474    1.375   .     S
C446   C579    1.415   .     S
C447   O475    1.374   .     S
C447   N468    1.379   .     A
C447   C710    1.415   1_545 S
C448   O476    1.374   .     S
C448   N467    1.379   .     A
C448   C577    1.415   .     S
C449   O477    1.301   .     A
C449   O478    1.300   .     A
C450   C452    1.410   .     S
C450   O480    1.299   .     A
C450   O483    1.299   .     A
C451   C453    1.410   .     S
C451   O481    1.299   .     A
C451   O482    1.299   .     A
C453   C848    1.191   .     S
C454   O484    1.382   .     S
C455   O470    1.382   .     S
C455   C486    1.408   .     S
C456   O471    1.382   .     S
C456   C498    1.408   .     S
Cu457  O469    1.961   .     S
Cu457  Cu458   2.716   .     S
Cu457  O478    1.959   .     S
Cu457  N467    2.041   .     S
Cu457  O482    1.932   .     S
Cu457  O480    1.932   .     S
Cu458  O479    1.959   .     S
Cu458  N468    2.041   .     S
Cu458  O483    1.932   .     S
Cu458  O477    1.961   .     S
Cu458  O481    1.932   .     S
H459   O484    0.990   .     S
H460   O470    0.990   .     S
H461   O471    0.990   .     S
H462   O472    0.990   .     S
H463   O473    0.982   .     S
H464   O474    0.982   .     S
H465   O475    0.981   .     S
H466   O476    0.981   .     S
C485   C488    1.450   .     S
C485   O513    1.301   .     A
C485   O523    1.300   .     A
C486   C488    1.404   .     A
C486   O516    1.382   .     S
C487   C493    1.450   .     S
C487   C499    1.404   .     A
C487   C500    1.404   .     A
C488   C498    1.404   .     A
C489   N512    1.378   .     A
C489   O517    1.375   .     S
C489   C756    1.415   1_545 S
C490   N511    1.378   .     A
C490   O518    1.375   .     S
C490   C623    1.415   .     S
C491   O519    1.374   .     S
C491   N512    1.379   .     A
C491   C754    1.415   1_545 S
C492   O520    1.374   .     S
C492   N511    1.379   .     A
C492   C621    1.415   .     S
C493   O521    1.301   .     A
C493   O522    1.300   .     A
C494   C496    1.410   .     S
C494   O524    1.299   .     A
C494   O527    1.299   .     A
C495   C497    1.410   .     S
C495   O525    1.299   .     A
C495   O526    1.299   .     A
C497   C892    1.191   .     S
C498   O528    1.382   .     S
C499   O514    1.382   .     S
C499   C398    1.408   1_655 S
C500   O515    1.382   .     S
C500   C410    1.408   1_655 S
Cu501  O513    1.961   .     S
Cu501  Cu502   2.716   .     S
Cu501  O522    1.959   .     S
Cu501  N511    2.041   .     S
Cu501  O526    1.932   .     S
Cu501  O524    1.932   .     S
Cu502  O523    1.959   .     S
Cu502  N512    2.041   .     S
Cu502  O527    1.932   .     S
Cu502  O521    1.961   .     S
Cu502  O525    1.932   .     S
H503   O528    0.990   .     S
H504   O514    0.990   .     S
H505   O515    0.990   .     S
H506   O516    0.990   .     S
H507   O517    0.982   .     S
H508   O518    0.982   .     S
H509   O519    0.981   .     S
H510   O520    0.981   .     S
C529   C532    1.450   .     S
C529   O557    1.301   .     A
C529   O567    1.300   .     A
C530   C532    1.404   .     A
C530   O560    1.382   .     S
C530   C631    1.408   1_455 S
C531   C537    1.450   .     S
C531   C543    1.404   .     A
C531   C544    1.404   .     A
C532   C542    1.404   .     A
C533   N556    1.378   .     A
C533   O561    1.375   .     S
C534   N555    1.378   .     A
C534   O562    1.375   .     S
C534   C667    1.415   .     S
C535   O563    1.374   .     S
C535   N556    1.379   .     A
C536   O564    1.374   .     S
C536   N555    1.379   .     A
C536   C665    1.415   .     S
C537   O565    1.301   .     A
C537   O566    1.300   .     A
C538   C540    1.410   .     S
C538   O568    1.299   .     A
C538   O571    1.299   .     A
C539   C541    1.410   .     S
C539   O569    1.299   .     A
C539   O570    1.299   .     A
C541   C936    1.191   .     S
C542   O572    1.382   .     S
C542   C632    1.408   1_455 S
C543   O558    1.382   .     S
C543   C574    1.408   .     S
C544   O559    1.382   .     S
C544   C586    1.408   .     S
Cu545  O557    1.961   .     S
Cu545  Cu546   2.716   .     S
Cu545  O566    1.959   .     S
Cu545  N555    2.041   .     S
Cu545  O570    1.932   .     S
Cu545  O568    1.932   .     S
Cu546  O567    1.959   .     S
Cu546  N556    2.041   .     S
Cu546  O571    1.932   .     S
Cu546  O565    1.961   .     S
Cu546  O569    1.932   .     S
H547   O572    0.990   .     S
H548   O558    0.990   .     S
H549   O559    0.990   .     S
H550   O560    0.990   .     S
H551   O561    0.982   .     S
H552   O562    0.982   .     S
H553   O563    0.981   .     S
H554   O564    0.981   .     S
C573   C576    1.450   .     S
C573   O601    1.301   .     A
C573   O611    1.300   .     A
C574   C576    1.404   .     A
C574   O604    1.382   .     S
C575   C581    1.450   .     S
C575   C587    1.404   .     A
C575   C588    1.404   .     A
C576   C586    1.404   .     A
C577   N600    1.378   .     A
C577   O605    1.375   .     S
C578   N599    1.378   .     A
C578   O606    1.375   .     S
C578   C711    1.415   .     S
C579   O607    1.374   .     S
C579   N600    1.379   .     A
C580   O608    1.374   .     S
C580   N599    1.379   .     A
C580   C709    1.415   .     S
C581   O609    1.301   .     A
C581   O610    1.300   .     A
C582   C584    1.410   .     S
C582   O612    1.299   .     A
C582   O615    1.299   .     A
C583   C585    1.410   .     S
C583   O613    1.299   .     A
C583   O614    1.299   .     A
C585   C980    1.191   .     S
C586   O616    1.382   .     S
C587   O602    1.382   .     S
C587   C618    1.408   .     S
C588   O603    1.382   .     S
C588   C630    1.408   .     S
Cu589  O601    1.961   .     S
Cu589  Cu590   2.716   .     S
Cu589  O610    1.959   .     S
Cu589  N599    2.041   .     S
Cu589  O614    1.932   .     S
Cu589  O612    1.932   .     S
Cu590  O611    1.959   .     S
Cu590  N600    2.041   .     S
Cu590  O615    1.932   .     S
Cu590  O609    1.961   .     S
Cu590  O613    1.932   .     S
H591   O616    0.990   .     S
H592   O602    0.990   .     S
H593   O603    0.990   .     S
H594   O604    0.990   .     S
H595   O605    0.982   .     S
H596   O606    0.982   .     S
H597   O607    0.981   .     S
H598   O608    0.981   .     S
C617   C620    1.450   .     S
C617   O645    1.301   .     A
C617   O655    1.300   .     A
C618   C620    1.404   .     A
C618   O648    1.382   .     S
C619   C625    1.450   .     S
C619   C631    1.404   .     A
C619   C632    1.404   .     A
C620   C630    1.404   .     A
C621   N644    1.378   .     A
C621   O649    1.375   .     S
C622   N643    1.378   .     A
C622   O650    1.375   .     S
C622   C755    1.415   .     S
C623   O651    1.374   .     S
C623   N644    1.379   .     A
C624   O652    1.374   .     S
C624   N643    1.379   .     A
C624   C753    1.415   .     S
C625   O653    1.301   .     A
C625   O654    1.300   .     A
C626   C628    1.410   .     S
C626   O656    1.299   .     A
C626   O659    1.299   .     A
C627   C629    1.410   .     S
C627   O657    1.299   .     A
C627   O658    1.299   .     A
C629   C1024   1.191   .     S
C630   O660    1.382   .     S
C631   O646    1.382   .     S
C631   C530    1.408   1_655 S
C632   O647    1.382   .     S
C632   C542    1.408   1_655 S
Cu633  O645    1.961   .     S
Cu633  Cu634   2.716   .     S
Cu633  O654    1.959   .     S
Cu633  N643    2.041   .     S
Cu633  O658    1.932   .     S
Cu633  O656    1.932   .     S
Cu634  O655    1.959   .     S
Cu634  N644    2.041   .     S
Cu634  O659    1.932   .     S
Cu634  O653    1.961   .     S
Cu634  O657    1.932   .     S
H635   O660    0.990   .     S
H636   O646    0.990   .     S
H637   O647    0.990   .     S
H638   O648    0.990   .     S
H639   O649    0.982   .     S
H640   O650    0.982   .     S
H641   O651    0.981   .     S
H642   O652    0.981   .     S
C661   C664    1.450   .     S
C661   O689    1.301   .     A
C661   O699    1.300   .     A
C662   C664    1.404   .     A
C662   O692    1.382   .     S
C662   C763    1.408   1_455 S
C663   C669    1.450   .     S
C663   C675    1.404   .     A
C663   C676    1.404   .     A
C664   C674    1.404   .     A
C665   N688    1.378   .     A
C665   O693    1.375   .     S
C666   N687    1.378   .     A
C666   O694    1.375   .     S
C666   C403    1.415   1_565 S
C667   O695    1.374   .     S
C667   N688    1.379   .     A
C668   O696    1.374   .     S
C668   N687    1.379   .     A
C668   C401    1.415   1_565 S
C669   O697    1.301   .     A
C669   O698    1.300   .     A
C670   C672    1.410   .     S
C670   O700    1.299   .     A
C670   O703    1.299   .     A
C671   C673    1.410   .     S
C671   O701    1.299   .     A
C671   O702    1.299   .     A
C673   C1068   1.191   .     S
C674   O704    1.382   .     S
C674   C764    1.408   1_455 S
C675   O690    1.382   .     S
C675   C706    1.408   .     S
C676   O691    1.382   .     S
C676   C718    1.408   .     S
Cu677  O689    1.961   .     S
Cu677  Cu678   2.716   .     S
Cu677  O698    1.959   .     S
Cu677  N687    2.041   .     S
Cu677  O702    1.932   .     S
Cu677  O700    1.932   .     S
Cu678  O699    1.959   .     S
Cu678  N688    2.041   .     S
Cu678  O703    1.932   .     S
Cu678  O697    1.961   .     S
Cu678  O701    1.932   .     S
H679   O704    0.990   .     S
H680   O690    0.990   .     S
H681   O691    0.990   .     S
H682   O692    0.990   .     S
H683   O693    0.982   .     S
H684   O694    0.982   .     S
H685   O695    0.981   .     S
H686   O696    0.981   .     S
C705   C708    1.450   .     S
C705   O733    1.301   .     A
C705   O743    1.300   .     A
C706   C708    1.404   .     A
C706   O736    1.382   .     S
C707   C713    1.450   .     S
C707   C719    1.404   .     A
C707   C720    1.404   .     A
C708   C718    1.404   .     A
C709   N732    1.378   .     A
C709   O737    1.375   .     S
C710   N731    1.378   .     A
C710   O738    1.375   .     S
C710   C447    1.415   1_565 S
C711   O739    1.374   .     S
C711   N732    1.379   .     A
C712   O740    1.374   .     S
C712   N731    1.379   .     A
C712   C445    1.415   1_565 S
C713   O741    1.301   .     A
C713   O742    1.300   .     A
C714   C716    1.410   .     S
C714   O744    1.299   .     A
C714   O747    1.299   .     A
C715   C717    1.410   .     S
C715   O745    1.299   .     A
C715   O746    1.299   .     A
C717   C1112   1.191   .     S
C718   O748    1.382   .     S
C719   O734    1.382   .     S
C719   C750    1.408   .     S
C720   O735    1.382   .     S
C720   C762    1.408   .     S
Cu721  O733    1.961   .     S
Cu721  Cu722   2.716   .     S
Cu721  O742    1.959   .     S
Cu721  N731    2.041   .     S
Cu721  O746    1.932   .     S
Cu721  O744    1.932   .     S
Cu722  O743    1.959   .     S
Cu722  N732    2.041   .     S
Cu722  O747    1.932   .     S
Cu722  O741    1.961   .     S
Cu722  O745    1.932   .     S
H723   O748    0.990   .     S
H724   O734    0.990   .     S
H725   O735    0.990   .     S
H726   O736    0.990   .     S
H727   O737    0.982   .     S
H728   O738    0.982   .     S
H729   O739    0.981   .     S
H730   O740    0.981   .     S
C749   C752    1.450   .     S
C749   O777    1.301   .     A
C749   O787    1.300   .     A
C750   C752    1.404   .     A
C750   O780    1.382   .     S
C751   C757    1.450   .     S
C751   C763    1.404   .     A
C751   C764    1.404   .     A
C752   C762    1.404   .     A
C753   N776    1.378   .     A
C753   O781    1.375   .     S
C754   N775    1.378   .     A
C754   O782    1.375   .     S
C754   C491    1.415   1_565 S
C755   O783    1.374   .     S
C755   N776    1.379   .     A
C756   O784    1.374   .     S
C756   N775    1.379   .     A
C756   C489    1.415   1_565 S
C757   O785    1.301   .     A
C757   O786    1.300   .     A
C758   C760    1.410   .     S
C758   O788    1.299   .     A
C758   O791    1.299   .     A
C759   C761    1.410   .     S
C759   O789    1.299   .     A
C759   O790    1.299   .     A
C761   C1156   1.191   .     S
C762   O792    1.382   .     S
C763   O778    1.382   .     S
C763   C662    1.408   1_655 S
C764   O779    1.382   .     S
C764   C674    1.408   1_655 S
Cu765  O777    1.961   .     S
Cu765  Cu766   2.716   .     S
Cu765  O786    1.959   .     S
Cu765  N775    2.041   .     S
Cu765  O790    1.932   .     S
Cu765  O788    1.932   .     S
Cu766  O787    1.959   .     S
Cu766  N776    2.041   .     S
Cu766  O791    1.932   .     S
Cu766  O785    1.961   .     S
Cu766  O789    1.932   .     S
H767   O792    0.990   .     S
H768   O778    0.990   .     S
H769   O779    0.990   .     S
H770   O780    0.990   .     S
H771   O781    0.982   .     S
H772   O782    0.982   .     S
H773   O783    0.981   .     S
H774   O784    0.981   .     S
C793   C796    1.450   .     S
C793   O821    1.301   .     A
C793   O831    1.300   .     A
C794   C796    1.404   .     A
C794   O824    1.382   .     S
C794   C895    1.408   1_455 S
C795   C801    1.450   .     S
C795   C807    1.404   .     A
C795   C808    1.404   .     A
C796   C806    1.404   .     A
C797   N820    1.378   .     A
C797   O825    1.375   .     S
C797   C1064   1.415   1_545 S
C798   N819    1.378   .     A
C798   O826    1.375   .     S
C798   C931    1.415   .     S
C799   O827    1.374   .     S
C799   N820    1.379   .     A
C799   C1062   1.415   1_545 S
C800   O828    1.374   .     S
C800   N819    1.379   .     A
C800   C929    1.415   .     S
C801   O829    1.301   .     A
C801   O830    1.300   .     A
C802   C804    1.410   .     S
C802   O832    1.299   .     A
C802   O835    1.299   .     A
C803   C805    1.410   .     S
C803   O833    1.299   .     A
C803   O834    1.299   .     A
C805   C12     1.191   1_556 S
C806   O836    1.382   .     S
C806   C896    1.408   1_455 S
C807   O822    1.382   .     S
C807   C838    1.408   .     S
C808   O823    1.382   .     S
C808   C850    1.408   .     S
Cu809  O821    1.961   .     S
Cu809  Cu810   2.716   .     S
Cu809  O830    1.959   .     S
Cu809  N819    2.041   .     S
Cu809  O834    1.932   .     S
Cu809  O832    1.932   .     S
Cu810  O831    1.959   .     S
Cu810  N820    2.041   .     S
Cu810  O835    1.932   .     S
Cu810  O829    1.961   .     S
Cu810  O833    1.932   .     S
H811   O836    0.990   .     S
H812   O822    0.990   .     S
H813   O823    0.990   .     S
H814   O824    0.990   .     S
H815   O825    0.982   .     S
H816   O826    0.982   .     S
H817   O827    0.981   .     S
H818   O828    0.981   .     S
C837   C840    1.450   .     S
C837   O865    1.301   .     A
C837   O875    1.300   .     A
C838   C840    1.404   .     A
C838   O868    1.382   .     S
C839   C845    1.450   .     S
C839   C851    1.404   .     A
C839   C852    1.404   .     A
C840   C850    1.404   .     A
C841   N864    1.378   .     A
C841   O869    1.375   .     S
C841   C1108   1.415   1_545 S
C842   N863    1.378   .     A
C842   O870    1.375   .     S
C842   C975    1.415   .     S
C843   O871    1.374   .     S
C843   N864    1.379   .     A
C843   C1106   1.415   1_545 S
C844   O872    1.374   .     S
C844   N863    1.379   .     A
C844   C973    1.415   .     S
C845   O873    1.301   .     A
C845   O874    1.300   .     A
C846   C848    1.410   .     S
C846   O876    1.299   .     A
C846   O879    1.299   .     A
C847   C849    1.410   .     S
C847   O877    1.299   .     A
C847   O878    1.299   .     A
C849   C56     1.191   1_556 S
C850   O880    1.382   .     S
C851   O866    1.382   .     S
C851   C882    1.408   .     S
C852   O867    1.382   .     S
C852   C894    1.408   .     S
Cu853  O865    1.961   .     S
Cu853  Cu854   2.716   .     S
Cu853  O874    1.959   .     S
Cu853  N863    2.041   .     S
Cu853  O878    1.932   .     S
Cu853  O876    1.932   .     S
Cu854  O875    1.959   .     S
Cu854  N864    2.041   .     S
Cu854  O879    1.932   .     S
Cu854  O873    1.961   .     S
Cu854  O877    1.932   .     S
H855   O880    0.990   .     S
H856   O866    0.990   .     S
H857   O867    0.990   .     S
H858   O868    0.990   .     S
H859   O869    0.982   .     S
H860   O870    0.982   .     S
H861   O871    0.981   .     S
H862   O872    0.981   .     S
C881   C884    1.450   .     S
C881   O909    1.301   .     A
C881   O919    1.300   .     A
C882   C884    1.404   .     A
C882   O912    1.382   .     S
C883   C889    1.450   .     S
C883   C895    1.404   .     A
C883   C896    1.404   .     A
C884   C894    1.404   .     A
C885   N908    1.378   .     A
C885   O913    1.375   .     S
C885   C1152   1.415   1_545 S
C886   N907    1.378   .     A
C886   O914    1.375   .     S
C886   C1019   1.415   .     S
C887   O915    1.374   .     S
C887   N908    1.379   .     A
C887   C1150   1.415   1_545 S
C888   O916    1.374   .     S
C888   N907    1.379   .     A
C888   C1017   1.415   .     S
C889   O917    1.301   .     A
C889   O918    1.300   .     A
C890   C892    1.410   .     S
C890   O920    1.299   .     A
C890   O923    1.299   .     A
C891   C893    1.410   .     S
C891   O921    1.299   .     A
C891   O922    1.299   .     A
C893   C100    1.191   1_556 S
C894   O924    1.382   .     S
C895   O910    1.382   .     S
C895   C794    1.408   1_655 S
C896   O911    1.382   .     S
C896   C806    1.408   1_655 S
Cu897  O909    1.961   .     S
Cu897  Cu898   2.716   .     S
Cu897  O918    1.959   .     S
Cu897  N907    2.041   .     S
Cu897  O922    1.932   .     S
Cu897  O920    1.932   .     S
Cu898  O919    1.959   .     S
Cu898  N908    2.041   .     S
Cu898  O923    1.932   .     S
Cu898  O917    1.961   .     S
Cu898  O921    1.932   .     S
H899   O924    0.990   .     S
H900   O910    0.990   .     S
H901   O911    0.990   .     S
H902   O912    0.990   .     S
H903   O913    0.982   .     S
H904   O914    0.982   .     S
H905   O915    0.981   .     S
H906   O916    0.981   .     S
C925   C928    1.450   .     S
C925   O953    1.301   .     A
C925   O963    1.300   .     A
C926   C928    1.404   .     A
C926   O956    1.382   .     S
C926   C1027   1.408   1_455 S
C927   C933    1.450   .     S
C927   C939    1.404   .     A
C927   C940    1.404   .     A
C928   C938    1.404   .     A
C929   N952    1.378   .     A
C929   O957    1.375   .     S
C930   N951    1.378   .     A
C930   O958    1.375   .     S
C930   C1063   1.415   .     S
C931   O959    1.374   .     S
C931   N952    1.379   .     A
C932   O960    1.374   .     S
C932   N951    1.379   .     A
C932   C1061   1.415   .     S
C933   O961    1.301   .     A
C933   O962    1.300   .     A
C934   C936    1.410   .     S
C934   O964    1.299   .     A
C934   O967    1.299   .     A
C935   C937    1.410   .     S
C935   O965    1.299   .     A
C935   O966    1.299   .     A
C937   C144    1.191   1_556 S
C938   O968    1.382   .     S
C938   C1028   1.408   1_455 S
C939   O954    1.382   .     S
C939   C970    1.408   .     S
C940   O955    1.382   .     S
C940   C982    1.408   .     S
Cu941  O953    1.961   .     S
Cu941  Cu942   2.716   .     S
Cu941  O962    1.959   .     S
Cu941  N951    2.041   .     S
Cu941  O966    1.932   .     S
Cu941  O964    1.932   .     S
Cu942  O963    1.959   .     S
Cu942  N952    2.041   .     S
Cu942  O967    1.932   .     S
Cu942  O961    1.961   .     S
Cu942  O965    1.932   .     S
H943   O968    0.990   .     S
H944   O954    0.990   .     S
H945   O955    0.990   .     S
H946   O956    0.990   .     S
H947   O957    0.982   .     S
H948   O958    0.982   .     S
H949   O959    0.981   .     S
H950   O960    0.981   .     S
C969   C972    1.450   .     S
C969   O997    1.301   .     A
C969   O1007   1.300   .     A
C970   C972    1.404   .     A
C970   O1000   1.382   .     S
C971   C977    1.450   .     S
C971   C983    1.404   .     A
C971   C984    1.404   .     A
C972   C982    1.404   .     A
C973   N996    1.378   .     A
C973   O1001   1.375   .     S
C974   N995    1.378   .     A
C974   O1002   1.375   .     S
C974   C1107   1.415   .     S
C975   O1003   1.374   .     S
C975   N996    1.379   .     A
C976   O1004   1.374   .     S
C976   N995    1.379   .     A
C976   C1105   1.415   .     S
C977   O1005   1.301   .     A
C977   O1006   1.300   .     A
C978   C980    1.410   .     S
C978   O1008   1.299   .     A
C978   O1011   1.299   .     A
C979   C981    1.410   .     S
C979   O1009   1.299   .     A
C979   O1010   1.299   .     A
C981   C188    1.191   1_556 S
C982   O1012   1.382   .     S
C983   O998    1.382   .     S
C983   C1014   1.408   .     S
C984   O999    1.382   .     S
C984   C1026   1.408   .     S
Cu985  O997    1.961   .     S
Cu985  Cu986   2.716   .     S
Cu985  O1006   1.959   .     S
Cu985  N995    2.041   .     S
Cu985  O1010   1.932   .     S
Cu985  O1008   1.932   .     S
Cu986  O1007   1.959   .     S
Cu986  N996    2.041   .     S
Cu986  O1011   1.932   .     S
Cu986  O1005   1.961   .     S
Cu986  O1009   1.932   .     S
H987   O1012   0.990   .     S
H988   O998    0.990   .     S
H989   O999    0.990   .     S
H990   O1000   0.990   .     S
H991   O1001   0.982   .     S
H992   O1002   0.982   .     S
H993   O1003   0.981   .     S
H994   O1004   0.981   .     S
C1013  C1016   1.450   .     S
C1013  O1041   1.301   .     A
C1013  O1051   1.300   .     A
C1014  C1016   1.404   .     A
C1014  O1044   1.382   .     S
C1015  C1021   1.450   .     S
C1015  C1027   1.404   .     A
C1015  C1028   1.404   .     A
C1016  C1026   1.404   .     A
C1017  N1040   1.378   .     A
C1017  O1045   1.375   .     S
C1018  N1039   1.378   .     A
C1018  O1046   1.375   .     S
C1018  C1151   1.415   .     S
C1019  O1047   1.374   .     S
C1019  N1040   1.379   .     A
C1020  O1048   1.374   .     S
C1020  N1039   1.379   .     A
C1020  C1149   1.415   .     S
C1021  O1049   1.301   .     A
C1021  O1050   1.300   .     A
C1022  C1024   1.410   .     S
C1022  O1052   1.299   .     A
C1022  O1055   1.299   .     A
C1023  C1025   1.410   .     S
C1023  O1053   1.299   .     A
C1023  O1054   1.299   .     A
C1025  C232    1.191   1_556 S
C1026  O1056   1.382   .     S
C1027  O1042   1.382   .     S
C1027  C926    1.408   1_655 S
C1028  O1043   1.382   .     S
C1028  C938    1.408   1_655 S
Cu1029 O1041   1.961   .     S
Cu1029 Cu1030  2.716   .     S
Cu1029 O1050   1.959   .     S
Cu1029 N1039   2.041   .     S
Cu1029 O1054   1.932   .     S
Cu1029 O1052   1.932   .     S
Cu1030 O1051   1.959   .     S
Cu1030 N1040   2.041   .     S
Cu1030 O1055   1.932   .     S
Cu1030 O1049   1.961   .     S
Cu1030 O1053   1.932   .     S
H1031  O1056   0.990   .     S
H1032  O1042   0.990   .     S
H1033  O1043   0.990   .     S
H1034  O1044   0.990   .     S
H1035  O1045   0.982   .     S
H1036  O1046   0.982   .     S
H1037  O1047   0.981   .     S
H1038  O1048   0.981   .     S
C1057  C1060   1.450   .     S
C1057  O1085   1.301   .     A
C1057  O1095   1.300   .     A
C1058  C1060   1.404   .     A
C1058  O1088   1.382   .     S
C1058  C1159   1.408   1_455 S
C1059  C1065   1.450   .     S
C1059  C1071   1.404   .     A
C1059  C1072   1.404   .     A
C1060  C1070   1.404   .     A
C1061  N1084   1.378   .     A
C1061  O1089   1.375   .     S
C1062  N1083   1.378   .     A
C1062  O1090   1.375   .     S
C1062  C799    1.415   1_565 S
C1063  O1091   1.374   .     S
C1063  N1084   1.379   .     A
C1064  O1092   1.374   .     S
C1064  N1083   1.379   .     A
C1064  C797    1.415   1_565 S
C1065  O1093   1.301   .     A
C1065  O1094   1.300   .     A
C1066  C1068   1.410   .     S
C1066  O1096   1.299   .     A
C1066  O1099   1.299   .     A
C1067  C1069   1.410   .     S
C1067  O1097   1.299   .     A
C1067  O1098   1.299   .     A
C1069  C276    1.191   1_556 S
C1070  O1100   1.382   .     S
C1070  C1160   1.408   1_455 S
C1071  O1086   1.382   .     S
C1071  C1102   1.408   .     S
C1072  O1087   1.382   .     S
C1072  C1114   1.408   .     S
Cu1073 O1085   1.961   .     S
Cu1073 Cu1074  2.716   .     S
Cu1073 O1094   1.959   .     S
Cu1073 N1083   2.041   .     S
Cu1073 O1098   1.932   .     S
Cu1073 O1096   1.932   .     S
Cu1074 O1095   1.959   .     S
Cu1074 N1084   2.041   .     S
Cu1074 O1099   1.932   .     S
Cu1074 O1093   1.961   .     S
Cu1074 O1097   1.932   .     S
H1075  O1100   0.990   .     S
H1076  O1086   0.990   .     S
H1077  O1087   0.990   .     S
H1078  O1088   0.990   .     S
H1079  O1089   0.982   .     S
H1080  O1090   0.982   .     S
H1081  O1091   0.981   .     S
H1082  O1092   0.981   .     S
C1101  C1104   1.450   .     S
C1101  O1129   1.301   .     A
C1101  O1139   1.300   .     A
C1102  C1104   1.404   .     A
C1102  O1132   1.382   .     S
C1103  C1109   1.450   .     S
C1103  C1115   1.404   .     A
C1103  C1116   1.404   .     A
C1104  C1114   1.404   .     A
C1105  N1128   1.378   .     A
C1105  O1133   1.375   .     S
C1106  N1127   1.378   .     A
C1106  O1134   1.375   .     S
C1106  C843    1.415   1_565 S
C1107  O1135   1.374   .     S
C1107  N1128   1.379   .     A
C1108  O1136   1.374   .     S
C1108  N1127   1.379   .     A
C1108  C841    1.415   1_565 S
C1109  O1137   1.301   .     A
C1109  O1138   1.300   .     A
C1110  C1112   1.410   .     S
C1110  O1140   1.299   .     A
C1110  O1143   1.299   .     A
C1111  C1113   1.410   .     S
C1111  O1141   1.299   .     A
C1111  O1142   1.299   .     A
C1113  C320    1.191   1_556 S
C1114  O1144   1.382   .     S
C1115  O1130   1.382   .     S
C1115  C1146   1.408   .     S
C1116  O1131   1.382   .     S
C1116  C1158   1.408   .     S
Cu1117 O1129   1.961   .     S
Cu1117 Cu1118  2.716   .     S
Cu1117 O1138   1.959   .     S
Cu1117 N1127   2.041   .     S
Cu1117 O1142   1.932   .     S
Cu1117 O1140   1.932   .     S
Cu1118 O1139   1.959   .     S
Cu1118 N1128   2.041   .     S
Cu1118 O1143   1.932   .     S
Cu1118 O1137   1.961   .     S
Cu1118 O1141   1.932   .     S
H1119  O1144   0.990   .     S
H1120  O1130   0.990   .     S
H1121  O1131   0.990   .     S
H1122  O1132   0.990   .     S
H1123  O1133   0.982   .     S
H1124  O1134   0.982   .     S
H1125  O1135   0.981   .     S
H1126  O1136   0.981   .     S
C1145  C1148   1.450   .     S
C1145  O1173   1.301   .     A
C1145  O1183   1.300   .     A
C1146  C1148   1.404   .     A
C1146  O1176   1.382   .     S
C1147  C1153   1.450   .     S
C1147  C1159   1.404   .     A
C1147  C1160   1.404   .     A
C1148  C1158   1.404   .     A
C1149  N1172   1.378   .     A
C1149  O1177   1.375   .     S
C1150  N1171   1.378   .     A
C1150  O1178   1.375   .     S
C1150  C887    1.415   1_565 S
C1151  O1179   1.374   .     S
C1151  N1172   1.379   .     A
C1152  O1180   1.374   .     S
C1152  N1171   1.379   .     A
C1152  C885    1.415   1_565 S
C1153  O1181   1.301   .     A
C1153  O1182   1.300   .     A
C1154  C1156   1.410   .     S
C1154  O1184   1.299   .     A
C1154  O1187   1.299   .     A
C1155  C1157   1.410   .     S
C1155  O1185   1.299   .     A
C1155  O1186   1.299   .     A
C1157  C364    1.191   1_556 S
C1158  O1188   1.382   .     S
C1159  O1174   1.382   .     S
C1159  C1058   1.408   1_655 S
C1160  O1175   1.382   .     S
C1160  C1070   1.408   1_655 S
Cu1161 O1173   1.961   .     S
Cu1161 Cu1162  2.716   .     S
Cu1161 O1182   1.959   .     S
Cu1161 N1171   2.041   .     S
Cu1161 O1186   1.932   .     S
Cu1161 O1184   1.932   .     S
Cu1162 O1183   1.959   .     S
Cu1162 N1172   2.041   .     S
Cu1162 O1187   1.932   .     S
Cu1162 O1181   1.961   .     S
Cu1162 O1185   1.932   .     S
H1163  O1188   0.990   .     S
H1164  O1174   0.990   .     S
H1165  O1175   0.990   .     S
H1166  O1176   0.990   .     S
H1167  O1177   0.982   .     S
H1168  O1178   0.982   .     S
H1169  O1179   0.981   .     S
H1170  O1180   0.981   .     S
