data_str_m2_o2_o5_pcu_sym.33
_audit_creation_date              2020-01-03
_audit_creation_method            'Materials Studio'
_symmetry_space_group_name_H-M    'P1'
_symmetry_Int_Tables_number       1
_symmetry_cell_setting            triclinic
loop_
_symmetry_equiv_pos_as_xyz
  x,y,z
_cell_length_a                    30.2851
_cell_length_b                    27.6961
_cell_length_c                    27.2456
_cell_angle_alpha                 90.0012
_cell_angle_beta                  89.9946
_cell_angle_gamma                 89.5537
loop_
_atom_site_label
_atom_site_type_symbol
_atom_site_fract_x
_atom_site_fract_y
_atom_site_fract_z
_atom_site_U_iso_or_equiv
_atom_site_adp_type
_atom_site_occupancy
C1     C     0.16499   0.25021   0.16643   0.00000  Uiso   1.00
C2     C     0.27697   0.44579   0.19995   0.00000  Uiso   1.00
C3     C     0.25000   0.25000   0.07350   0.00000  Uiso   1.00
C4     C     0.25000   0.25000   0.25984   0.00000  Uiso   1.00
C5     C     0.25001   0.02733   0.16673   0.00000  Uiso   1.00
C6     C     0.25000   0.47267   0.16673   0.00000  Uiso   1.00
C7     C     0.25000   0.25000   0.02183   0.00000  Uiso   1.00
C8     C     0.25000   0.25000   0.31150   0.00000  Uiso   1.00
C9     C     0.04682   0.28057   0.13460   0.00000  Uiso   1.00
C10    C     0.45319   0.21917   0.13479   0.00000  Uiso   1.00
C11    C     0.45193   0.28002   0.20071   0.00000  Uiso   1.00
C12    C     0.33501   0.24979   0.16643   0.00000  Uiso   1.00
C13    C     0.04810   0.22011   0.20087   0.00000  Uiso   1.00
C14    C     0.09286   0.28046   0.13411   0.00000  Uiso   1.00
C15    C     0.40715   0.21932   0.13428   0.00000  Uiso   1.00
C16    C     0.40573   0.27949   0.19993   0.00000  Uiso   1.00
C17    C     0.09429   0.22066   0.20010   0.00000  Uiso   1.00
C18    C     0.11670   0.25063   0.16689   0.00000  Uiso   1.00
C19    C     0.38331   0.24936   0.16688   0.00000  Uiso   1.00
C20    C     0.02423   0.25028   0.16803   0.00000  Uiso   1.00
C21    C     0.47578   0.24965   0.16804   0.00000  Uiso   1.00
C22    C     0.22412   0.10504   0.19906   0.00000  Uiso   1.00
C23    C     0.22412   0.39545   0.13433   0.00000  Uiso   1.00
C24    C     0.27573   0.10455   0.13417   0.00000  Uiso   1.00
C25    C     0.27603   0.39496   0.19890   0.00000  Uiso   1.00
C26    C     0.22320   0.05420   0.20013   0.00000  Uiso   1.00
C27    C     0.22312   0.44629   0.13339   0.00000  Uiso   1.00
C28    C     0.27673   0.05371   0.13322   0.00000  Uiso   1.00
Cu29   Cu    0.25000   0.29822   0.16667   0.00000  Uiso   1.00
Cu30   Cu    0.25000   0.20179   0.16667   0.00000  Uiso   1.00
H31    H     0.20370   0.12530   0.22446   0.00000  Uiso   1.00
H32    H     0.13724   0.28934   0.07888   0.00000  Uiso   1.00
H33    H     0.36278   0.21013   0.07909   0.00000  Uiso   1.00
H34    H     0.36838   0.16216   0.11790   0.00000  Uiso   1.00
H35    H     0.38973   0.34515   0.22780   0.00000  Uiso   1.00
H36    H     0.39048   0.29965   0.26941   0.00000  Uiso   1.00
H37    H     0.10955   0.20089   0.26969   0.00000  Uiso   1.00
H38    H     0.11032   0.15517   0.22832   0.00000  Uiso   1.00
H39    H     0.19696   0.49743   0.23094   0.00000  Uiso   1.00
H40    H     0.19665   0.00352   0.10286   0.00000  Uiso   1.00
H41    H     0.30304   0.49648   0.10251   0.00000  Uiso   1.00
H42    H     0.20389   0.37558   0.10875   0.00000  Uiso   1.00
H43    H     0.30340   0.00256   0.23056   0.00000  Uiso   1.00
H44    H     0.29585   0.12443   0.10849   0.00000  Uiso   1.00
H45    H     0.29656   0.37469   0.22418   0.00000  Uiso   1.00
H46    H     0.49317   0.30971   0.10614   0.00000  Uiso   1.00
H47    H     0.00683   0.18972   0.10664   0.00000  Uiso   1.00
H48    H     0.00451   0.30874   0.23103   0.00000  Uiso   1.00
H49    H     0.49552   0.19144   0.23126   0.00000  Uiso   1.00
H50    H     0.13165   0.33752   0.11743   0.00000  Uiso   1.00
N51    N     0.25000   0.12935   0.16667   0.00000  Uiso   1.00
N52    N     0.25000   0.37066   0.16667   0.00000  Uiso   1.00
N53    N     0.11473   0.31040   0.09881   0.00000  Uiso   1.00
N54    N     0.38528   0.18919   0.09914   0.00000  Uiso   1.00
N55    N     0.38120   0.30910   0.23370   0.00000  Uiso   1.00
N56    N     0.11884   0.19125   0.23403   0.00000  Uiso   1.00
O57    O     0.18573   0.29072   0.16667   0.00000  Uiso   1.00
O58    O     0.47451   0.18876   0.10193   0.00000  Uiso   1.00
O59    O     0.47204   0.31064   0.23397   0.00000  Uiso   1.00
O60    O     0.02799   0.18967   0.23431   0.00000  Uiso   1.00
O61    O     0.19567   0.03296   0.23418   0.00000  Uiso   1.00
O62    O     0.19549   0.46803   0.09946   0.00000  Uiso   1.00
O63    O     0.30418   0.03198   0.09911   0.00000  Uiso   1.00
O64    O     0.30469   0.46704   0.23381   0.00000  Uiso   1.00
O65    O     0.31427   0.20929   0.16666   0.00000  Uiso   1.00
O66    O     0.31427   0.29072   0.16666   0.00000  Uiso   1.00
O67    O     0.18573   0.20929   0.16667   0.00000  Uiso   1.00
O68    O     0.25000   0.29071   0.09613   0.00000  Uiso   1.00
O69    O     0.25000   0.20929   0.23720   0.00000  Uiso   1.00
O70    O     0.25000   0.29071   0.23720   0.00000  Uiso   1.00
O71    O     0.25000   0.20929   0.09613   0.00000  Uiso   1.00
O72    O     0.02549   0.31077   0.10154   0.00000  Uiso   1.00
C73    C     0.66499   0.25021   0.16643   0.00000  Uiso   1.00
C74    C     0.77697   0.44579   0.19995   0.00000  Uiso   1.00
C75    C     0.75000   0.25000   0.07350   0.00000  Uiso   1.00
C76    C     0.75000   0.25000   0.25984   0.00000  Uiso   1.00
C77    C     0.75001   0.02733   0.16673   0.00000  Uiso   1.00
C78    C     0.75000   0.47267   0.16673   0.00000  Uiso   1.00
C79    C     0.75000   0.25000   0.02183   0.00000  Uiso   1.00
C80    C     0.75000   0.25000   0.31150   0.00000  Uiso   1.00
C81    C     0.54682   0.28057   0.13460   0.00000  Uiso   1.00
C82    C     0.95319   0.21917   0.13479   0.00000  Uiso   1.00
C83    C     0.95193   0.28002   0.20071   0.00000  Uiso   1.00
C84    C     0.83501   0.24979   0.16643   0.00000  Uiso   1.00
C85    C     0.54810   0.22011   0.20087   0.00000  Uiso   1.00
C86    C     0.59286   0.28046   0.13411   0.00000  Uiso   1.00
C87    C     0.90715   0.21932   0.13428   0.00000  Uiso   1.00
C88    C     0.90573   0.27949   0.19993   0.00000  Uiso   1.00
C89    C     0.59429   0.22066   0.20010   0.00000  Uiso   1.00
C90    C     0.61670   0.25063   0.16689   0.00000  Uiso   1.00
C91    C     0.88331   0.24936   0.16688   0.00000  Uiso   1.00
C92    C     0.52423   0.25028   0.16803   0.00000  Uiso   1.00
C93    C     0.97578   0.24965   0.16804   0.00000  Uiso   1.00
C94    C     0.72412   0.10504   0.19906   0.00000  Uiso   1.00
C95    C     0.72412   0.39545   0.13433   0.00000  Uiso   1.00
C96    C     0.77573   0.10455   0.13417   0.00000  Uiso   1.00
C97    C     0.77603   0.39496   0.19890   0.00000  Uiso   1.00
C98    C     0.72320   0.05420   0.20013   0.00000  Uiso   1.00
C99    C     0.72312   0.44629   0.13339   0.00000  Uiso   1.00
C100   C     0.77673   0.05371   0.13322   0.00000  Uiso   1.00
Cu101  Cu    0.75000   0.29822   0.16667   0.00000  Uiso   1.00
Cu102  Cu    0.75000   0.20179   0.16667   0.00000  Uiso   1.00
H103   H     0.70370   0.12530   0.22446   0.00000  Uiso   1.00
H104   H     0.63724   0.28934   0.07888   0.00000  Uiso   1.00
H105   H     0.86278   0.21013   0.07909   0.00000  Uiso   1.00
H106   H     0.86838   0.16216   0.11790   0.00000  Uiso   1.00
H107   H     0.88973   0.34515   0.22780   0.00000  Uiso   1.00
H108   H     0.89048   0.29965   0.26941   0.00000  Uiso   1.00
H109   H     0.60955   0.20089   0.26969   0.00000  Uiso   1.00
H110   H     0.61032   0.15517   0.22832   0.00000  Uiso   1.00
H111   H     0.69696   0.49743   0.23094   0.00000  Uiso   1.00
H112   H     0.69665   0.00352   0.10286   0.00000  Uiso   1.00
H113   H     0.80304   0.49648   0.10251   0.00000  Uiso   1.00
H114   H     0.70389   0.37558   0.10875   0.00000  Uiso   1.00
H115   H     0.80340   0.00256   0.23056   0.00000  Uiso   1.00
H116   H     0.79585   0.12443   0.10849   0.00000  Uiso   1.00
H117   H     0.79656   0.37469   0.22418   0.00000  Uiso   1.00
H118   H     0.99317   0.30971   0.10614   0.00000  Uiso   1.00
H119   H     0.50683   0.18972   0.10664   0.00000  Uiso   1.00
H120   H     0.50451   0.30874   0.23103   0.00000  Uiso   1.00
H121   H     0.99552   0.19144   0.23126   0.00000  Uiso   1.00
H122   H     0.63165   0.33752   0.11743   0.00000  Uiso   1.00
N123   N     0.75000   0.12935   0.16667   0.00000  Uiso   1.00
N124   N     0.75000   0.37066   0.16667   0.00000  Uiso   1.00
N125   N     0.61473   0.31040   0.09881   0.00000  Uiso   1.00
N126   N     0.88528   0.18919   0.09914   0.00000  Uiso   1.00
N127   N     0.88120   0.30910   0.23370   0.00000  Uiso   1.00
N128   N     0.61884   0.19125   0.23403   0.00000  Uiso   1.00
O129   O     0.68573   0.29072   0.16667   0.00000  Uiso   1.00
O130   O     0.97451   0.18876   0.10193   0.00000  Uiso   1.00
O131   O     0.97204   0.31064   0.23397   0.00000  Uiso   1.00
O132   O     0.52799   0.18967   0.23431   0.00000  Uiso   1.00
O133   O     0.69567   0.03296   0.23418   0.00000  Uiso   1.00
O134   O     0.69549   0.46803   0.09946   0.00000  Uiso   1.00
O135   O     0.80418   0.03198   0.09911   0.00000  Uiso   1.00
O136   O     0.80469   0.46704   0.23381   0.00000  Uiso   1.00
O137   O     0.81427   0.20929   0.16666   0.00000  Uiso   1.00
O138   O     0.81427   0.29072   0.16666   0.00000  Uiso   1.00
O139   O     0.68573   0.20929   0.16667   0.00000  Uiso   1.00
O140   O     0.75000   0.29071   0.09613   0.00000  Uiso   1.00
O141   O     0.75000   0.20929   0.23720   0.00000  Uiso   1.00
O142   O     0.75000   0.29071   0.23720   0.00000  Uiso   1.00
O143   O     0.75000   0.20929   0.09613   0.00000  Uiso   1.00
O144   O     0.52549   0.31077   0.10154   0.00000  Uiso   1.00
C145   C     0.16499   0.75021   0.16643   0.00000  Uiso   1.00
C146   C     0.27697   0.94579   0.19995   0.00000  Uiso   1.00
C147   C     0.25000   0.75000   0.07350   0.00000  Uiso   1.00
C148   C     0.25000   0.75000   0.25984   0.00000  Uiso   1.00
C149   C     0.25001   0.52733   0.16673   0.00000  Uiso   1.00
C150   C     0.25000   0.97267   0.16673   0.00000  Uiso   1.00
C151   C     0.25000   0.75000   0.02183   0.00000  Uiso   1.00
C152   C     0.25000   0.75000   0.31150   0.00000  Uiso   1.00
C153   C     0.04682   0.78057   0.13460   0.00000  Uiso   1.00
C154   C     0.45319   0.71917   0.13479   0.00000  Uiso   1.00
C155   C     0.45193   0.78002   0.20071   0.00000  Uiso   1.00
C156   C     0.33501   0.74979   0.16643   0.00000  Uiso   1.00
C157   C     0.04810   0.72011   0.20087   0.00000  Uiso   1.00
C158   C     0.09286   0.78046   0.13411   0.00000  Uiso   1.00
C159   C     0.40715   0.71932   0.13428   0.00000  Uiso   1.00
C160   C     0.40573   0.77949   0.19993   0.00000  Uiso   1.00
C161   C     0.09429   0.72066   0.20010   0.00000  Uiso   1.00
C162   C     0.11670   0.75063   0.16689   0.00000  Uiso   1.00
C163   C     0.38331   0.74936   0.16688   0.00000  Uiso   1.00
C164   C     0.02423   0.75028   0.16803   0.00000  Uiso   1.00
C165   C     0.47578   0.74965   0.16804   0.00000  Uiso   1.00
C166   C     0.22412   0.60504   0.19906   0.00000  Uiso   1.00
C167   C     0.22412   0.89545   0.13433   0.00000  Uiso   1.00
C168   C     0.27573   0.60455   0.13417   0.00000  Uiso   1.00
C169   C     0.27603   0.89496   0.19890   0.00000  Uiso   1.00
C170   C     0.22320   0.55420   0.20013   0.00000  Uiso   1.00
C171   C     0.22312   0.94629   0.13339   0.00000  Uiso   1.00
C172   C     0.27673   0.55371   0.13322   0.00000  Uiso   1.00
Cu173  Cu    0.25000   0.79822   0.16667   0.00000  Uiso   1.00
Cu174  Cu    0.25000   0.70179   0.16667   0.00000  Uiso   1.00
H175   H     0.20370   0.62530   0.22446   0.00000  Uiso   1.00
H176   H     0.13724   0.78934   0.07888   0.00000  Uiso   1.00
H177   H     0.36278   0.71013   0.07909   0.00000  Uiso   1.00
H178   H     0.36838   0.66216   0.11790   0.00000  Uiso   1.00
H179   H     0.38973   0.84515   0.22780   0.00000  Uiso   1.00
H180   H     0.39048   0.79965   0.26941   0.00000  Uiso   1.00
H181   H     0.10955   0.70089   0.26969   0.00000  Uiso   1.00
H182   H     0.11032   0.65517   0.22832   0.00000  Uiso   1.00
H183   H     0.19696   0.99743   0.23094   0.00000  Uiso   1.00
H184   H     0.19665   0.50352   0.10286   0.00000  Uiso   1.00
H185   H     0.30304   0.99648   0.10251   0.00000  Uiso   1.00
H186   H     0.20389   0.87558   0.10875   0.00000  Uiso   1.00
H187   H     0.30340   0.50256   0.23056   0.00000  Uiso   1.00
H188   H     0.29585   0.62443   0.10849   0.00000  Uiso   1.00
H189   H     0.29656   0.87469   0.22418   0.00000  Uiso   1.00
H190   H     0.49317   0.80971   0.10614   0.00000  Uiso   1.00
H191   H     0.00683   0.68972   0.10664   0.00000  Uiso   1.00
H192   H     0.00451   0.80874   0.23103   0.00000  Uiso   1.00
H193   H     0.49552   0.69144   0.23126   0.00000  Uiso   1.00
H194   H     0.13165   0.83752   0.11743   0.00000  Uiso   1.00
N195   N     0.25000   0.62935   0.16667   0.00000  Uiso   1.00
N196   N     0.25000   0.87066   0.16667   0.00000  Uiso   1.00
N197   N     0.11473   0.81040   0.09881   0.00000  Uiso   1.00
N198   N     0.38528   0.68919   0.09914   0.00000  Uiso   1.00
N199   N     0.38120   0.80910   0.23370   0.00000  Uiso   1.00
N200   N     0.11884   0.69125   0.23403   0.00000  Uiso   1.00
O201   O     0.18573   0.79072   0.16667   0.00000  Uiso   1.00
O202   O     0.47451   0.68876   0.10193   0.00000  Uiso   1.00
O203   O     0.47204   0.81064   0.23397   0.00000  Uiso   1.00
O204   O     0.02799   0.68967   0.23431   0.00000  Uiso   1.00
O205   O     0.19567   0.53296   0.23418   0.00000  Uiso   1.00
O206   O     0.19549   0.96803   0.09946   0.00000  Uiso   1.00
O207   O     0.30418   0.53198   0.09911   0.00000  Uiso   1.00
O208   O     0.30469   0.96704   0.23381   0.00000  Uiso   1.00
O209   O     0.31427   0.70929   0.16666   0.00000  Uiso   1.00
O210   O     0.31427   0.79072   0.16666   0.00000  Uiso   1.00
O211   O     0.18573   0.70929   0.16667   0.00000  Uiso   1.00
O212   O     0.25000   0.79071   0.09613   0.00000  Uiso   1.00
O213   O     0.25000   0.70929   0.23720   0.00000  Uiso   1.00
O214   O     0.25000   0.79071   0.23720   0.00000  Uiso   1.00
O215   O     0.25000   0.70929   0.09613   0.00000  Uiso   1.00
O216   O     0.02549   0.81077   0.10154   0.00000  Uiso   1.00
C217   C     0.66499   0.75021   0.16643   0.00000  Uiso   1.00
C218   C     0.77697   0.94579   0.19995   0.00000  Uiso   1.00
C219   C     0.75000   0.75000   0.07350   0.00000  Uiso   1.00
C220   C     0.75000   0.75000   0.25984   0.00000  Uiso   1.00
C221   C     0.75001   0.52733   0.16673   0.00000  Uiso   1.00
C222   C     0.75000   0.97267   0.16673   0.00000  Uiso   1.00
C223   C     0.75000   0.75000   0.02183   0.00000  Uiso   1.00
C224   C     0.75000   0.75000   0.31150   0.00000  Uiso   1.00
C225   C     0.54682   0.78057   0.13460   0.00000  Uiso   1.00
C226   C     0.95319   0.71917   0.13479   0.00000  Uiso   1.00
C227   C     0.95193   0.78002   0.20071   0.00000  Uiso   1.00
C228   C     0.83501   0.74979   0.16643   0.00000  Uiso   1.00
C229   C     0.54810   0.72011   0.20087   0.00000  Uiso   1.00
C230   C     0.59286   0.78046   0.13411   0.00000  Uiso   1.00
C231   C     0.90715   0.71932   0.13428   0.00000  Uiso   1.00
C232   C     0.90573   0.77949   0.19993   0.00000  Uiso   1.00
C233   C     0.59429   0.72066   0.20010   0.00000  Uiso   1.00
C234   C     0.61670   0.75063   0.16689   0.00000  Uiso   1.00
C235   C     0.88331   0.74936   0.16688   0.00000  Uiso   1.00
C236   C     0.52423   0.75028   0.16803   0.00000  Uiso   1.00
C237   C     0.97578   0.74965   0.16804   0.00000  Uiso   1.00
C238   C     0.72412   0.60504   0.19906   0.00000  Uiso   1.00
C239   C     0.72412   0.89545   0.13433   0.00000  Uiso   1.00
C240   C     0.77573   0.60455   0.13417   0.00000  Uiso   1.00
C241   C     0.77603   0.89496   0.19890   0.00000  Uiso   1.00
C242   C     0.72320   0.55420   0.20013   0.00000  Uiso   1.00
C243   C     0.72312   0.94629   0.13339   0.00000  Uiso   1.00
C244   C     0.77673   0.55371   0.13322   0.00000  Uiso   1.00
Cu245  Cu    0.75000   0.79822   0.16667   0.00000  Uiso   1.00
Cu246  Cu    0.75000   0.70179   0.16667   0.00000  Uiso   1.00
H247   H     0.70370   0.62530   0.22446   0.00000  Uiso   1.00
H248   H     0.63724   0.78934   0.07888   0.00000  Uiso   1.00
H249   H     0.86278   0.71013   0.07909   0.00000  Uiso   1.00
H250   H     0.86838   0.66216   0.11790   0.00000  Uiso   1.00
H251   H     0.88973   0.84515   0.22780   0.00000  Uiso   1.00
H252   H     0.89048   0.79965   0.26941   0.00000  Uiso   1.00
H253   H     0.60955   0.70089   0.26969   0.00000  Uiso   1.00
H254   H     0.61032   0.65517   0.22832   0.00000  Uiso   1.00
H255   H     0.69696   0.99743   0.23094   0.00000  Uiso   1.00
H256   H     0.69665   0.50352   0.10286   0.00000  Uiso   1.00
H257   H     0.80304   0.99648   0.10251   0.00000  Uiso   1.00
H258   H     0.70389   0.87558   0.10875   0.00000  Uiso   1.00
H259   H     0.80340   0.50256   0.23056   0.00000  Uiso   1.00
H260   H     0.79585   0.62443   0.10849   0.00000  Uiso   1.00
H261   H     0.79656   0.87469   0.22418   0.00000  Uiso   1.00
H262   H     0.99317   0.80971   0.10614   0.00000  Uiso   1.00
H263   H     0.50683   0.68972   0.10664   0.00000  Uiso   1.00
H264   H     0.50451   0.80874   0.23103   0.00000  Uiso   1.00
H265   H     0.99552   0.69144   0.23126   0.00000  Uiso   1.00
H266   H     0.63165   0.83752   0.11743   0.00000  Uiso   1.00
N267   N     0.75000   0.62935   0.16667   0.00000  Uiso   1.00
N268   N     0.75000   0.87066   0.16667   0.00000  Uiso   1.00
N269   N     0.61473   0.81040   0.09881   0.00000  Uiso   1.00
N270   N     0.88528   0.68919   0.09914   0.00000  Uiso   1.00
N271   N     0.88120   0.80910   0.23370   0.00000  Uiso   1.00
N272   N     0.61884   0.69125   0.23403   0.00000  Uiso   1.00
O273   O     0.68573   0.79072   0.16667   0.00000  Uiso   1.00
O274   O     0.97451   0.68876   0.10193   0.00000  Uiso   1.00
O275   O     0.97204   0.81064   0.23397   0.00000  Uiso   1.00
O276   O     0.52799   0.68967   0.23431   0.00000  Uiso   1.00
O277   O     0.69567   0.53296   0.23418   0.00000  Uiso   1.00
O278   O     0.69549   0.96803   0.09946   0.00000  Uiso   1.00
O279   O     0.80418   0.53198   0.09911   0.00000  Uiso   1.00
O280   O     0.80469   0.96704   0.23381   0.00000  Uiso   1.00
O281   O     0.81427   0.70929   0.16666   0.00000  Uiso   1.00
O282   O     0.81427   0.79072   0.16666   0.00000  Uiso   1.00
O283   O     0.68573   0.70929   0.16667   0.00000  Uiso   1.00
O284   O     0.75000   0.79071   0.09613   0.00000  Uiso   1.00
O285   O     0.75000   0.70929   0.23720   0.00000  Uiso   1.00
O286   O     0.75000   0.79071   0.23720   0.00000  Uiso   1.00
O287   O     0.75000   0.70929   0.09613   0.00000  Uiso   1.00
O288   O     0.52549   0.81077   0.10154   0.00000  Uiso   1.00
C289   C     0.16499   0.25021   0.49977   0.00000  Uiso   1.00
C290   C     0.27697   0.44579   0.53328   0.00000  Uiso   1.00
C291   C     0.25000   0.25000   0.40683   0.00000  Uiso   1.00
C292   C     0.25000   0.25000   0.59317   0.00000  Uiso   1.00
C293   C     0.25001   0.02733   0.50006   0.00000  Uiso   1.00
C294   C     0.25000   0.47267   0.50006   0.00000  Uiso   1.00
C295   C     0.25000   0.25000   0.35517   0.00000  Uiso   1.00
C296   C     0.25000   0.25000   0.64484   0.00000  Uiso   1.00
C297   C     0.04682   0.28057   0.46794   0.00000  Uiso   1.00
C298   C     0.45319   0.21917   0.46813   0.00000  Uiso   1.00
C299   C     0.45193   0.28002   0.53404   0.00000  Uiso   1.00
C300   C     0.33501   0.24979   0.49976   0.00000  Uiso   1.00
C301   C     0.04810   0.22011   0.53421   0.00000  Uiso   1.00
C302   C     0.09286   0.28046   0.46745   0.00000  Uiso   1.00
C303   C     0.40715   0.21932   0.46762   0.00000  Uiso   1.00
C304   C     0.40573   0.27949   0.53326   0.00000  Uiso   1.00
C305   C     0.09429   0.22066   0.53343   0.00000  Uiso   1.00
C306   C     0.11670   0.25063   0.50022   0.00000  Uiso   1.00
C307   C     0.38331   0.24936   0.50021   0.00000  Uiso   1.00
C308   C     0.02423   0.25028   0.50136   0.00000  Uiso   1.00
C309   C     0.47578   0.24965   0.50138   0.00000  Uiso   1.00
C310   C     0.22412   0.10504   0.53240   0.00000  Uiso   1.00
C311   C     0.22412   0.39545   0.46766   0.00000  Uiso   1.00
C312   C     0.27573   0.10455   0.46751   0.00000  Uiso   1.00
C313   C     0.27603   0.39496   0.53224   0.00000  Uiso   1.00
C314   C     0.22320   0.05420   0.53346   0.00000  Uiso   1.00
C315   C     0.22312   0.44629   0.46673   0.00000  Uiso   1.00
C316   C     0.27673   0.05371   0.46656   0.00000  Uiso   1.00
Cu317  Cu    0.25000   0.29822   0.50000   0.00000  Uiso   1.00
Cu318  Cu    0.25000   0.20179   0.50000   0.00000  Uiso   1.00
H319   H     0.20370   0.12530   0.55780   0.00000  Uiso   1.00
H320   H     0.13724   0.28934   0.41221   0.00000  Uiso   1.00
H321   H     0.36278   0.21013   0.41243   0.00000  Uiso   1.00
H322   H     0.36838   0.16216   0.45124   0.00000  Uiso   1.00
H323   H     0.38973   0.34515   0.56113   0.00000  Uiso   1.00
H324   H     0.39048   0.29965   0.60275   0.00000  Uiso   1.00
H325   H     0.10955   0.20089   0.60302   0.00000  Uiso   1.00
H326   H     0.11032   0.15517   0.56166   0.00000  Uiso   1.00
H327   H     0.19696   0.49743   0.56427   0.00000  Uiso   1.00
H328   H     0.19665   0.00352   0.43620   0.00000  Uiso   1.00
H329   H     0.30304   0.49648   0.43585   0.00000  Uiso   1.00
H330   H     0.20389   0.37558   0.44209   0.00000  Uiso   1.00
H331   H     0.30340   0.00256   0.56390   0.00000  Uiso   1.00
H332   H     0.29585   0.12443   0.44182   0.00000  Uiso   1.00
H333   H     0.29656   0.37469   0.55752   0.00000  Uiso   1.00
H334   H     0.49317   0.30971   0.43947   0.00000  Uiso   1.00
H335   H     0.00683   0.18972   0.43997   0.00000  Uiso   1.00
H336   H     0.00451   0.30874   0.56436   0.00000  Uiso   1.00
H337   H     0.49552   0.19144   0.56460   0.00000  Uiso   1.00
H338   H     0.13165   0.33752   0.45076   0.00000  Uiso   1.00
N339   N     0.25000   0.12935   0.50000   0.00000  Uiso   1.00
N340   N     0.25000   0.37066   0.50000   0.00000  Uiso   1.00
N341   N     0.11473   0.31040   0.43214   0.00000  Uiso   1.00
N342   N     0.38528   0.18919   0.43248   0.00000  Uiso   1.00
N343   N     0.38120   0.30910   0.56703   0.00000  Uiso   1.00
N344   N     0.11884   0.19125   0.56736   0.00000  Uiso   1.00
O345   O     0.18573   0.29072   0.50000   0.00000  Uiso   1.00
O346   O     0.47451   0.18876   0.43526   0.00000  Uiso   1.00
O347   O     0.47204   0.31064   0.56730   0.00000  Uiso   1.00
O348   O     0.02799   0.18967   0.56764   0.00000  Uiso   1.00
O349   O     0.19567   0.03296   0.56751   0.00000  Uiso   1.00
O350   O     0.19549   0.46803   0.43279   0.00000  Uiso   1.00
O351   O     0.30418   0.03198   0.43245   0.00000  Uiso   1.00
O352   O     0.30469   0.46704   0.56715   0.00000  Uiso   1.00
O353   O     0.31427   0.20929   0.50000   0.00000  Uiso   1.00
O354   O     0.31427   0.29072   0.50000   0.00000  Uiso   1.00
O355   O     0.18573   0.20929   0.50000   0.00000  Uiso   1.00
O356   O     0.25000   0.29071   0.42946   0.00000  Uiso   1.00
O357   O     0.25000   0.20929   0.57054   0.00000  Uiso   1.00
O358   O     0.25000   0.29071   0.57054   0.00000  Uiso   1.00
O359   O     0.25000   0.20929   0.42946   0.00000  Uiso   1.00
O360   O     0.02549   0.31077   0.43488   0.00000  Uiso   1.00
C361   C     0.66499   0.25021   0.49977   0.00000  Uiso   1.00
C362   C     0.77697   0.44579   0.53328   0.00000  Uiso   1.00
C363   C     0.75000   0.25000   0.40683   0.00000  Uiso   1.00
C364   C     0.75000   0.25000   0.59317   0.00000  Uiso   1.00
C365   C     0.75001   0.02733   0.50006   0.00000  Uiso   1.00
C366   C     0.75000   0.47267   0.50006   0.00000  Uiso   1.00
C367   C     0.75000   0.25000   0.35517   0.00000  Uiso   1.00
C368   C     0.75000   0.25000   0.64484   0.00000  Uiso   1.00
C369   C     0.54682   0.28057   0.46794   0.00000  Uiso   1.00
C370   C     0.95319   0.21917   0.46813   0.00000  Uiso   1.00
C371   C     0.95193   0.28002   0.53404   0.00000  Uiso   1.00
C372   C     0.83501   0.24979   0.49976   0.00000  Uiso   1.00
C373   C     0.54810   0.22011   0.53421   0.00000  Uiso   1.00
C374   C     0.59286   0.28046   0.46745   0.00000  Uiso   1.00
C375   C     0.90715   0.21932   0.46762   0.00000  Uiso   1.00
C376   C     0.90573   0.27949   0.53326   0.00000  Uiso   1.00
C377   C     0.59429   0.22066   0.53343   0.00000  Uiso   1.00
C378   C     0.61670   0.25063   0.50022   0.00000  Uiso   1.00
C379   C     0.88331   0.24936   0.50021   0.00000  Uiso   1.00
C380   C     0.52423   0.25028   0.50136   0.00000  Uiso   1.00
C381   C     0.97578   0.24965   0.50138   0.00000  Uiso   1.00
C382   C     0.72412   0.10504   0.53240   0.00000  Uiso   1.00
C383   C     0.72412   0.39545   0.46766   0.00000  Uiso   1.00
C384   C     0.77573   0.10455   0.46751   0.00000  Uiso   1.00
C385   C     0.77603   0.39496   0.53224   0.00000  Uiso   1.00
C386   C     0.72320   0.05420   0.53346   0.00000  Uiso   1.00
C387   C     0.72312   0.44629   0.46673   0.00000  Uiso   1.00
C388   C     0.77673   0.05371   0.46656   0.00000  Uiso   1.00
Cu389  Cu    0.75000   0.29822   0.50000   0.00000  Uiso   1.00
Cu390  Cu    0.75000   0.20179   0.50000   0.00000  Uiso   1.00
H391   H     0.70370   0.12530   0.55780   0.00000  Uiso   1.00
H392   H     0.63724   0.28934   0.41221   0.00000  Uiso   1.00
H393   H     0.86278   0.21013   0.41243   0.00000  Uiso   1.00
H394   H     0.86838   0.16216   0.45124   0.00000  Uiso   1.00
H395   H     0.88973   0.34515   0.56113   0.00000  Uiso   1.00
H396   H     0.89048   0.29965   0.60275   0.00000  Uiso   1.00
H397   H     0.60955   0.20089   0.60302   0.00000  Uiso   1.00
H398   H     0.61032   0.15517   0.56166   0.00000  Uiso   1.00
H399   H     0.69696   0.49743   0.56427   0.00000  Uiso   1.00
H400   H     0.69665   0.00352   0.43620   0.00000  Uiso   1.00
H401   H     0.80304   0.49648   0.43585   0.00000  Uiso   1.00
H402   H     0.70389   0.37558   0.44209   0.00000  Uiso   1.00
H403   H     0.80340   0.00256   0.56390   0.00000  Uiso   1.00
H404   H     0.79585   0.12443   0.44182   0.00000  Uiso   1.00
H405   H     0.79656   0.37469   0.55752   0.00000  Uiso   1.00
H406   H     0.99317   0.30971   0.43947   0.00000  Uiso   1.00
H407   H     0.50683   0.18972   0.43997   0.00000  Uiso   1.00
H408   H     0.50451   0.30874   0.56436   0.00000  Uiso   1.00
H409   H     0.99552   0.19144   0.56460   0.00000  Uiso   1.00
H410   H     0.63165   0.33752   0.45076   0.00000  Uiso   1.00
N411   N     0.75000   0.12935   0.50000   0.00000  Uiso   1.00
N412   N     0.75000   0.37066   0.50000   0.00000  Uiso   1.00
N413   N     0.61473   0.31040   0.43214   0.00000  Uiso   1.00
N414   N     0.88528   0.18919   0.43248   0.00000  Uiso   1.00
N415   N     0.88120   0.30910   0.56703   0.00000  Uiso   1.00
N416   N     0.61884   0.19125   0.56736   0.00000  Uiso   1.00
O417   O     0.68573   0.29072   0.50000   0.00000  Uiso   1.00
O418   O     0.97451   0.18876   0.43526   0.00000  Uiso   1.00
O419   O     0.97204   0.31064   0.56730   0.00000  Uiso   1.00
O420   O     0.52799   0.18967   0.56764   0.00000  Uiso   1.00
O421   O     0.69567   0.03296   0.56751   0.00000  Uiso   1.00
O422   O     0.69549   0.46803   0.43279   0.00000  Uiso   1.00
O423   O     0.80418   0.03198   0.43245   0.00000  Uiso   1.00
O424   O     0.80469   0.46704   0.56715   0.00000  Uiso   1.00
O425   O     0.81427   0.20929   0.50000   0.00000  Uiso   1.00
O426   O     0.81427   0.29072   0.50000   0.00000  Uiso   1.00
O427   O     0.68573   0.20929   0.50000   0.00000  Uiso   1.00
O428   O     0.75000   0.29071   0.42946   0.00000  Uiso   1.00
O429   O     0.75000   0.20929   0.57054   0.00000  Uiso   1.00
O430   O     0.75000   0.29071   0.57054   0.00000  Uiso   1.00
O431   O     0.75000   0.20929   0.42946   0.00000  Uiso   1.00
O432   O     0.52549   0.31077   0.43488   0.00000  Uiso   1.00
C433   C     0.16499   0.75021   0.49977   0.00000  Uiso   1.00
C434   C     0.27697   0.94579   0.53328   0.00000  Uiso   1.00
C435   C     0.25000   0.75000   0.40683   0.00000  Uiso   1.00
C436   C     0.25000   0.75000   0.59317   0.00000  Uiso   1.00
C437   C     0.25001   0.52733   0.50006   0.00000  Uiso   1.00
C438   C     0.25000   0.97267   0.50006   0.00000  Uiso   1.00
C439   C     0.25000   0.75000   0.35517   0.00000  Uiso   1.00
C440   C     0.25000   0.75000   0.64484   0.00000  Uiso   1.00
C441   C     0.04682   0.78057   0.46794   0.00000  Uiso   1.00
C442   C     0.45319   0.71917   0.46813   0.00000  Uiso   1.00
C443   C     0.45193   0.78002   0.53404   0.00000  Uiso   1.00
C444   C     0.33501   0.74979   0.49976   0.00000  Uiso   1.00
C445   C     0.04810   0.72011   0.53421   0.00000  Uiso   1.00
C446   C     0.09286   0.78046   0.46745   0.00000  Uiso   1.00
C447   C     0.40715   0.71932   0.46762   0.00000  Uiso   1.00
C448   C     0.40573   0.77949   0.53326   0.00000  Uiso   1.00
C449   C     0.09429   0.72066   0.53343   0.00000  Uiso   1.00
C450   C     0.11670   0.75063   0.50022   0.00000  Uiso   1.00
C451   C     0.38331   0.74936   0.50021   0.00000  Uiso   1.00
C452   C     0.02423   0.75028   0.50136   0.00000  Uiso   1.00
C453   C     0.47578   0.74965   0.50138   0.00000  Uiso   1.00
C454   C     0.22412   0.60504   0.53240   0.00000  Uiso   1.00
C455   C     0.22412   0.89545   0.46766   0.00000  Uiso   1.00
C456   C     0.27573   0.60455   0.46751   0.00000  Uiso   1.00
C457   C     0.27603   0.89496   0.53224   0.00000  Uiso   1.00
C458   C     0.22320   0.55420   0.53346   0.00000  Uiso   1.00
C459   C     0.22312   0.94629   0.46673   0.00000  Uiso   1.00
C460   C     0.27673   0.55371   0.46656   0.00000  Uiso   1.00
Cu461  Cu    0.25000   0.79822   0.50000   0.00000  Uiso   1.00
Cu462  Cu    0.25000   0.70179   0.50000   0.00000  Uiso   1.00
H463   H     0.20370   0.62530   0.55780   0.00000  Uiso   1.00
H464   H     0.13724   0.78934   0.41221   0.00000  Uiso   1.00
H465   H     0.36278   0.71013   0.41243   0.00000  Uiso   1.00
H466   H     0.36838   0.66216   0.45124   0.00000  Uiso   1.00
H467   H     0.38973   0.84515   0.56113   0.00000  Uiso   1.00
H468   H     0.39048   0.79965   0.60275   0.00000  Uiso   1.00
H469   H     0.10955   0.70089   0.60302   0.00000  Uiso   1.00
H470   H     0.11032   0.65517   0.56166   0.00000  Uiso   1.00
H471   H     0.19696   0.99743   0.56427   0.00000  Uiso   1.00
H472   H     0.19665   0.50352   0.43620   0.00000  Uiso   1.00
H473   H     0.30304   0.99648   0.43585   0.00000  Uiso   1.00
H474   H     0.20389   0.87558   0.44209   0.00000  Uiso   1.00
H475   H     0.30340   0.50256   0.56390   0.00000  Uiso   1.00
H476   H     0.29585   0.62443   0.44182   0.00000  Uiso   1.00
H477   H     0.29656   0.87469   0.55752   0.00000  Uiso   1.00
H478   H     0.49317   0.80971   0.43947   0.00000  Uiso   1.00
H479   H     0.00683   0.68972   0.43997   0.00000  Uiso   1.00
H480   H     0.00451   0.80874   0.56436   0.00000  Uiso   1.00
H481   H     0.49552   0.69144   0.56460   0.00000  Uiso   1.00
H482   H     0.13165   0.83752   0.45076   0.00000  Uiso   1.00
N483   N     0.25000   0.62935   0.50000   0.00000  Uiso   1.00
N484   N     0.25000   0.87066   0.50000   0.00000  Uiso   1.00
N485   N     0.11473   0.81040   0.43214   0.00000  Uiso   1.00
N486   N     0.38528   0.68919   0.43248   0.00000  Uiso   1.00
N487   N     0.38120   0.80910   0.56703   0.00000  Uiso   1.00
N488   N     0.11884   0.69125   0.56736   0.00000  Uiso   1.00
O489   O     0.18573   0.79072   0.50000   0.00000  Uiso   1.00
O490   O     0.47451   0.68876   0.43526   0.00000  Uiso   1.00
O491   O     0.47204   0.81064   0.56730   0.00000  Uiso   1.00
O492   O     0.02799   0.68967   0.56764   0.00000  Uiso   1.00
O493   O     0.19567   0.53296   0.56751   0.00000  Uiso   1.00
O494   O     0.19549   0.96803   0.43279   0.00000  Uiso   1.00
O495   O     0.30418   0.53198   0.43245   0.00000  Uiso   1.00
O496   O     0.30469   0.96704   0.56715   0.00000  Uiso   1.00
O497   O     0.31427   0.70929   0.50000   0.00000  Uiso   1.00
O498   O     0.31427   0.79072   0.50000   0.00000  Uiso   1.00
O499   O     0.18573   0.70929   0.50000   0.00000  Uiso   1.00
O500   O     0.25000   0.79071   0.42946   0.00000  Uiso   1.00
O501   O     0.25000   0.70929   0.57054   0.00000  Uiso   1.00
O502   O     0.25000   0.79071   0.57054   0.00000  Uiso   1.00
O503   O     0.25000   0.70929   0.42946   0.00000  Uiso   1.00
O504   O     0.02549   0.81077   0.43488   0.00000  Uiso   1.00
C505   C     0.66499   0.75021   0.49977   0.00000  Uiso   1.00
C506   C     0.77697   0.94579   0.53328   0.00000  Uiso   1.00
C507   C     0.75000   0.75000   0.40683   0.00000  Uiso   1.00
C508   C     0.75000   0.75000   0.59317   0.00000  Uiso   1.00
C509   C     0.75001   0.52733   0.50006   0.00000  Uiso   1.00
C510   C     0.75000   0.97267   0.50006   0.00000  Uiso   1.00
C511   C     0.75000   0.75000   0.35517   0.00000  Uiso   1.00
C512   C     0.75000   0.75000   0.64484   0.00000  Uiso   1.00
C513   C     0.54682   0.78057   0.46794   0.00000  Uiso   1.00
C514   C     0.95319   0.71917   0.46813   0.00000  Uiso   1.00
C515   C     0.95193   0.78002   0.53404   0.00000  Uiso   1.00
C516   C     0.83501   0.74979   0.49976   0.00000  Uiso   1.00
C517   C     0.54810   0.72011   0.53421   0.00000  Uiso   1.00
C518   C     0.59286   0.78046   0.46745   0.00000  Uiso   1.00
C519   C     0.90715   0.71932   0.46762   0.00000  Uiso   1.00
C520   C     0.90573   0.77949   0.53326   0.00000  Uiso   1.00
C521   C     0.59429   0.72066   0.53343   0.00000  Uiso   1.00
C522   C     0.61670   0.75063   0.50022   0.00000  Uiso   1.00
C523   C     0.88331   0.74936   0.50021   0.00000  Uiso   1.00
C524   C     0.52423   0.75028   0.50136   0.00000  Uiso   1.00
C525   C     0.97578   0.74965   0.50138   0.00000  Uiso   1.00
C526   C     0.72412   0.60504   0.53240   0.00000  Uiso   1.00
C527   C     0.72412   0.89545   0.46766   0.00000  Uiso   1.00
C528   C     0.77573   0.60455   0.46751   0.00000  Uiso   1.00
C529   C     0.77603   0.89496   0.53224   0.00000  Uiso   1.00
C530   C     0.72320   0.55420   0.53346   0.00000  Uiso   1.00
C531   C     0.72312   0.94629   0.46673   0.00000  Uiso   1.00
C532   C     0.77673   0.55371   0.46656   0.00000  Uiso   1.00
Cu533  Cu    0.75000   0.79822   0.50000   0.00000  Uiso   1.00
Cu534  Cu    0.75000   0.70179   0.50000   0.00000  Uiso   1.00
H535   H     0.70370   0.62530   0.55780   0.00000  Uiso   1.00
H536   H     0.63724   0.78934   0.41221   0.00000  Uiso   1.00
H537   H     0.86278   0.71013   0.41243   0.00000  Uiso   1.00
H538   H     0.86838   0.66216   0.45124   0.00000  Uiso   1.00
H539   H     0.88973   0.84515   0.56113   0.00000  Uiso   1.00
H540   H     0.89048   0.79965   0.60275   0.00000  Uiso   1.00
H541   H     0.60955   0.70089   0.60302   0.00000  Uiso   1.00
H542   H     0.61032   0.65517   0.56166   0.00000  Uiso   1.00
H543   H     0.69696   0.99743   0.56427   0.00000  Uiso   1.00
H544   H     0.69665   0.50352   0.43620   0.00000  Uiso   1.00
H545   H     0.80304   0.99648   0.43585   0.00000  Uiso   1.00
H546   H     0.70389   0.87558   0.44209   0.00000  Uiso   1.00
H547   H     0.80340   0.50256   0.56390   0.00000  Uiso   1.00
H548   H     0.79585   0.62443   0.44182   0.00000  Uiso   1.00
H549   H     0.79656   0.87469   0.55752   0.00000  Uiso   1.00
H550   H     0.99317   0.80971   0.43947   0.00000  Uiso   1.00
H551   H     0.50683   0.68972   0.43997   0.00000  Uiso   1.00
H552   H     0.50451   0.80874   0.56436   0.00000  Uiso   1.00
H553   H     0.99552   0.69144   0.56460   0.00000  Uiso   1.00
H554   H     0.63165   0.83752   0.45076   0.00000  Uiso   1.00
N555   N     0.75000   0.62935   0.50000   0.00000  Uiso   1.00
N556   N     0.75000   0.87066   0.50000   0.00000  Uiso   1.00
N557   N     0.61473   0.81040   0.43214   0.00000  Uiso   1.00
N558   N     0.88528   0.68919   0.43248   0.00000  Uiso   1.00
N559   N     0.88120   0.80910   0.56703   0.00000  Uiso   1.00
N560   N     0.61884   0.69125   0.56736   0.00000  Uiso   1.00
O561   O     0.68573   0.79072   0.50000   0.00000  Uiso   1.00
O562   O     0.97451   0.68876   0.43526   0.00000  Uiso   1.00
O563   O     0.97204   0.81064   0.56730   0.00000  Uiso   1.00
O564   O     0.52799   0.68967   0.56764   0.00000  Uiso   1.00
O565   O     0.69567   0.53296   0.56751   0.00000  Uiso   1.00
O566   O     0.69549   0.96803   0.43279   0.00000  Uiso   1.00
O567   O     0.80418   0.53198   0.43245   0.00000  Uiso   1.00
O568   O     0.80469   0.96704   0.56715   0.00000  Uiso   1.00
O569   O     0.81427   0.70929   0.50000   0.00000  Uiso   1.00
O570   O     0.81427   0.79072   0.50000   0.00000  Uiso   1.00
O571   O     0.68573   0.70929   0.50000   0.00000  Uiso   1.00
O572   O     0.75000   0.79071   0.42946   0.00000  Uiso   1.00
O573   O     0.75000   0.70929   0.57054   0.00000  Uiso   1.00
O574   O     0.75000   0.79071   0.57054   0.00000  Uiso   1.00
O575   O     0.75000   0.70929   0.42946   0.00000  Uiso   1.00
O576   O     0.52549   0.81077   0.43488   0.00000  Uiso   1.00
C577   C     0.16499   0.25021   0.83310   0.00000  Uiso   1.00
C578   C     0.27697   0.44579   0.86662   0.00000  Uiso   1.00
C579   C     0.25000   0.25000   0.74016   0.00000  Uiso   1.00
C580   C     0.25000   0.25000   0.92650   0.00000  Uiso   1.00
C581   C     0.25001   0.02733   0.83340   0.00000  Uiso   1.00
C582   C     0.25000   0.47267   0.83339   0.00000  Uiso   1.00
C583   C     0.25000   0.25000   0.68850   0.00000  Uiso   1.00
C584   C     0.25000   0.25000   0.97817   0.00000  Uiso   1.00
C585   C     0.04682   0.28057   0.80127   0.00000  Uiso   1.00
C586   C     0.45319   0.21917   0.80146   0.00000  Uiso   1.00
C587   C     0.45193   0.28002   0.86737   0.00000  Uiso   1.00
C588   C     0.33501   0.24979   0.83309   0.00000  Uiso   1.00
C589   C     0.04810   0.22011   0.86754   0.00000  Uiso   1.00
C590   C     0.09286   0.28046   0.80078   0.00000  Uiso   1.00
C591   C     0.40715   0.21932   0.80095   0.00000  Uiso   1.00
C592   C     0.40573   0.27949   0.86659   0.00000  Uiso   1.00
C593   C     0.09429   0.22066   0.86677   0.00000  Uiso   1.00
C594   C     0.11670   0.25063   0.83356   0.00000  Uiso   1.00
C595   C     0.38331   0.24936   0.83355   0.00000  Uiso   1.00
C596   C     0.02423   0.25028   0.83470   0.00000  Uiso   1.00
C597   C     0.47578   0.24965   0.83471   0.00000  Uiso   1.00
C598   C     0.22412   0.10504   0.86573   0.00000  Uiso   1.00
C599   C     0.22412   0.39545   0.80099   0.00000  Uiso   1.00
C600   C     0.27573   0.10455   0.80084   0.00000  Uiso   1.00
C601   C     0.27603   0.39496   0.86557   0.00000  Uiso   1.00
C602   C     0.22320   0.05420   0.86679   0.00000  Uiso   1.00
C603   C     0.22312   0.44629   0.80006   0.00000  Uiso   1.00
C604   C     0.27673   0.05371   0.79989   0.00000  Uiso   1.00
Cu605  Cu    0.25000   0.29822   0.83333   0.00000  Uiso   1.00
Cu606  Cu    0.25000   0.20179   0.83333   0.00000  Uiso   1.00
H607   H     0.20370   0.12530   0.89113   0.00000  Uiso   1.00
H608   H     0.13724   0.28934   0.74554   0.00000  Uiso   1.00
H609   H     0.36278   0.21013   0.74576   0.00000  Uiso   1.00
H610   H     0.36838   0.16216   0.78457   0.00000  Uiso   1.00
H611   H     0.38973   0.34515   0.89446   0.00000  Uiso   1.00
H612   H     0.39048   0.29965   0.93608   0.00000  Uiso   1.00
H613   H     0.10955   0.20089   0.93636   0.00000  Uiso   1.00
H614   H     0.11032   0.15517   0.89499   0.00000  Uiso   1.00
H615   H     0.19696   0.49743   0.89760   0.00000  Uiso   1.00
H616   H     0.19665   0.00352   0.76953   0.00000  Uiso   1.00
H617   H     0.30304   0.49648   0.76918   0.00000  Uiso   1.00
H618   H     0.20389   0.37558   0.77542   0.00000  Uiso   1.00
H619   H     0.30340   0.00256   0.89723   0.00000  Uiso   1.00
H620   H     0.29585   0.12443   0.77515   0.00000  Uiso   1.00
H621   H     0.29656   0.37469   0.89085   0.00000  Uiso   1.00
H622   H     0.49317   0.30971   0.77280   0.00000  Uiso   1.00
H623   H     0.00683   0.18972   0.77330   0.00000  Uiso   1.00
H624   H     0.00451   0.30874   0.89770   0.00000  Uiso   1.00
H625   H     0.49552   0.19144   0.89793   0.00000  Uiso   1.00
H626   H     0.13165   0.33752   0.78409   0.00000  Uiso   1.00
N627   N     0.25000   0.12935   0.83333   0.00000  Uiso   1.00
N628   N     0.25000   0.37066   0.83333   0.00000  Uiso   1.00
N629   N     0.11473   0.31040   0.76548   0.00000  Uiso   1.00
N630   N     0.38528   0.18919   0.76581   0.00000  Uiso   1.00
N631   N     0.38120   0.30910   0.90037   0.00000  Uiso   1.00
N632   N     0.11884   0.19125   0.90069   0.00000  Uiso   1.00
O633   O     0.18573   0.29072   0.83334   0.00000  Uiso   1.00
O634   O     0.47451   0.18876   0.76859   0.00000  Uiso   1.00
O635   O     0.47204   0.31064   0.90063   0.00000  Uiso   1.00
O636   O     0.02799   0.18967   0.90098   0.00000  Uiso   1.00
O637   O     0.19567   0.03296   0.90084   0.00000  Uiso   1.00
O638   O     0.19549   0.46803   0.76613   0.00000  Uiso   1.00
O639   O     0.30418   0.03198   0.76578   0.00000  Uiso   1.00
O640   O     0.30469   0.46704   0.90048   0.00000  Uiso   1.00
O641   O     0.31427   0.20929   0.83333   0.00000  Uiso   1.00
O642   O     0.31427   0.29072   0.83333   0.00000  Uiso   1.00
O643   O     0.18573   0.20929   0.83334   0.00000  Uiso   1.00
O644   O     0.25000   0.29071   0.76280   0.00000  Uiso   1.00
O645   O     0.25000   0.20929   0.90387   0.00000  Uiso   1.00
O646   O     0.25000   0.29071   0.90387   0.00000  Uiso   1.00
O647   O     0.25000   0.20929   0.76280   0.00000  Uiso   1.00
O648   O     0.02549   0.31077   0.76821   0.00000  Uiso   1.00
C649   C     0.66499   0.25021   0.83310   0.00000  Uiso   1.00
C650   C     0.77697   0.44579   0.86662   0.00000  Uiso   1.00
C651   C     0.75000   0.25000   0.74016   0.00000  Uiso   1.00
C652   C     0.75000   0.25000   0.92650   0.00000  Uiso   1.00
C653   C     0.75001   0.02733   0.83340   0.00000  Uiso   1.00
C654   C     0.75000   0.47267   0.83339   0.00000  Uiso   1.00
C655   C     0.75000   0.25000   0.68850   0.00000  Uiso   1.00
C656   C     0.75000   0.25000   0.97817   0.00000  Uiso   1.00
C657   C     0.54682   0.28057   0.80127   0.00000  Uiso   1.00
C658   C     0.95319   0.21917   0.80146   0.00000  Uiso   1.00
C659   C     0.95193   0.28002   0.86737   0.00000  Uiso   1.00
C660   C     0.83501   0.24979   0.83309   0.00000  Uiso   1.00
C661   C     0.54810   0.22011   0.86754   0.00000  Uiso   1.00
C662   C     0.59286   0.28046   0.80078   0.00000  Uiso   1.00
C663   C     0.90715   0.21932   0.80095   0.00000  Uiso   1.00
C664   C     0.90573   0.27949   0.86659   0.00000  Uiso   1.00
C665   C     0.59429   0.22066   0.86677   0.00000  Uiso   1.00
C666   C     0.61670   0.25063   0.83356   0.00000  Uiso   1.00
C667   C     0.88331   0.24936   0.83355   0.00000  Uiso   1.00
C668   C     0.52423   0.25028   0.83470   0.00000  Uiso   1.00
C669   C     0.97578   0.24965   0.83471   0.00000  Uiso   1.00
C670   C     0.72412   0.10504   0.86573   0.00000  Uiso   1.00
C671   C     0.72412   0.39545   0.80099   0.00000  Uiso   1.00
C672   C     0.77573   0.10455   0.80084   0.00000  Uiso   1.00
C673   C     0.77603   0.39496   0.86557   0.00000  Uiso   1.00
C674   C     0.72320   0.05420   0.86679   0.00000  Uiso   1.00
C675   C     0.72312   0.44629   0.80006   0.00000  Uiso   1.00
C676   C     0.77673   0.05371   0.79989   0.00000  Uiso   1.00
Cu677  Cu    0.75000   0.29822   0.83333   0.00000  Uiso   1.00
Cu678  Cu    0.75000   0.20179   0.83333   0.00000  Uiso   1.00
H679   H     0.70370   0.12530   0.89113   0.00000  Uiso   1.00
H680   H     0.63724   0.28934   0.74554   0.00000  Uiso   1.00
H681   H     0.86278   0.21013   0.74576   0.00000  Uiso   1.00
H682   H     0.86838   0.16216   0.78457   0.00000  Uiso   1.00
H683   H     0.88973   0.34515   0.89446   0.00000  Uiso   1.00
H684   H     0.89048   0.29965   0.93608   0.00000  Uiso   1.00
H685   H     0.60955   0.20089   0.93636   0.00000  Uiso   1.00
H686   H     0.61032   0.15517   0.89499   0.00000  Uiso   1.00
H687   H     0.69696   0.49743   0.89760   0.00000  Uiso   1.00
H688   H     0.69665   0.00352   0.76953   0.00000  Uiso   1.00
H689   H     0.80304   0.49648   0.76918   0.00000  Uiso   1.00
H690   H     0.70389   0.37558   0.77542   0.00000  Uiso   1.00
H691   H     0.80340   0.00256   0.89723   0.00000  Uiso   1.00
H692   H     0.79585   0.12443   0.77515   0.00000  Uiso   1.00
H693   H     0.79656   0.37469   0.89085   0.00000  Uiso   1.00
H694   H     0.99317   0.30971   0.77280   0.00000  Uiso   1.00
H695   H     0.50683   0.18972   0.77330   0.00000  Uiso   1.00
H696   H     0.50451   0.30874   0.89770   0.00000  Uiso   1.00
H697   H     0.99552   0.19144   0.89793   0.00000  Uiso   1.00
H698   H     0.63165   0.33752   0.78409   0.00000  Uiso   1.00
N699   N     0.75000   0.12935   0.83333   0.00000  Uiso   1.00
N700   N     0.75000   0.37066   0.83333   0.00000  Uiso   1.00
N701   N     0.61473   0.31040   0.76548   0.00000  Uiso   1.00
N702   N     0.88528   0.18919   0.76581   0.00000  Uiso   1.00
N703   N     0.88120   0.30910   0.90037   0.00000  Uiso   1.00
N704   N     0.61884   0.19125   0.90069   0.00000  Uiso   1.00
O705   O     0.68573   0.29072   0.83334   0.00000  Uiso   1.00
O706   O     0.97451   0.18876   0.76859   0.00000  Uiso   1.00
O707   O     0.97204   0.31064   0.90063   0.00000  Uiso   1.00
O708   O     0.52799   0.18967   0.90098   0.00000  Uiso   1.00
O709   O     0.69567   0.03296   0.90084   0.00000  Uiso   1.00
O710   O     0.69549   0.46803   0.76613   0.00000  Uiso   1.00
O711   O     0.80418   0.03198   0.76578   0.00000  Uiso   1.00
O712   O     0.80469   0.46704   0.90048   0.00000  Uiso   1.00
O713   O     0.81427   0.20929   0.83333   0.00000  Uiso   1.00
O714   O     0.81427   0.29072   0.83333   0.00000  Uiso   1.00
O715   O     0.68573   0.20929   0.83334   0.00000  Uiso   1.00
O716   O     0.75000   0.29071   0.76280   0.00000  Uiso   1.00
O717   O     0.75000   0.20929   0.90387   0.00000  Uiso   1.00
O718   O     0.75000   0.29071   0.90387   0.00000  Uiso   1.00
O719   O     0.75000   0.20929   0.76280   0.00000  Uiso   1.00
O720   O     0.52549   0.31077   0.76821   0.00000  Uiso   1.00
C721   C     0.16499   0.75021   0.83310   0.00000  Uiso   1.00
C722   C     0.27697   0.94579   0.86662   0.00000  Uiso   1.00
C723   C     0.25000   0.75000   0.74016   0.00000  Uiso   1.00
C724   C     0.25000   0.75000   0.92650   0.00000  Uiso   1.00
C725   C     0.25001   0.52733   0.83340   0.00000  Uiso   1.00
C726   C     0.25000   0.97267   0.83339   0.00000  Uiso   1.00
C727   C     0.25000   0.75000   0.68850   0.00000  Uiso   1.00
C728   C     0.25000   0.75000   0.97817   0.00000  Uiso   1.00
C729   C     0.04682   0.78057   0.80127   0.00000  Uiso   1.00
C730   C     0.45319   0.71917   0.80146   0.00000  Uiso   1.00
C731   C     0.45193   0.78002   0.86737   0.00000  Uiso   1.00
C732   C     0.33501   0.74979   0.83309   0.00000  Uiso   1.00
C733   C     0.04810   0.72011   0.86754   0.00000  Uiso   1.00
C734   C     0.09286   0.78046   0.80078   0.00000  Uiso   1.00
C735   C     0.40715   0.71932   0.80095   0.00000  Uiso   1.00
C736   C     0.40573   0.77949   0.86659   0.00000  Uiso   1.00
C737   C     0.09429   0.72066   0.86677   0.00000  Uiso   1.00
C738   C     0.11670   0.75063   0.83356   0.00000  Uiso   1.00
C739   C     0.38331   0.74936   0.83355   0.00000  Uiso   1.00
C740   C     0.02423   0.75028   0.83470   0.00000  Uiso   1.00
C741   C     0.47578   0.74965   0.83471   0.00000  Uiso   1.00
C742   C     0.22412   0.60504   0.86573   0.00000  Uiso   1.00
C743   C     0.22412   0.89545   0.80099   0.00000  Uiso   1.00
C744   C     0.27573   0.60455   0.80084   0.00000  Uiso   1.00
C745   C     0.27603   0.89496   0.86557   0.00000  Uiso   1.00
C746   C     0.22320   0.55420   0.86679   0.00000  Uiso   1.00
C747   C     0.22312   0.94629   0.80006   0.00000  Uiso   1.00
C748   C     0.27673   0.55371   0.79989   0.00000  Uiso   1.00
Cu749  Cu    0.25000   0.79822   0.83333   0.00000  Uiso   1.00
Cu750  Cu    0.25000   0.70179   0.83333   0.00000  Uiso   1.00
H751   H     0.20370   0.62530   0.89113   0.00000  Uiso   1.00
H752   H     0.13724   0.78934   0.74554   0.00000  Uiso   1.00
H753   H     0.36278   0.71013   0.74576   0.00000  Uiso   1.00
H754   H     0.36838   0.66216   0.78457   0.00000  Uiso   1.00
H755   H     0.38973   0.84515   0.89446   0.00000  Uiso   1.00
H756   H     0.39048   0.79965   0.93608   0.00000  Uiso   1.00
H757   H     0.10955   0.70089   0.93636   0.00000  Uiso   1.00
H758   H     0.11032   0.65517   0.89499   0.00000  Uiso   1.00
H759   H     0.19696   0.99743   0.89760   0.00000  Uiso   1.00
H760   H     0.19665   0.50352   0.76953   0.00000  Uiso   1.00
H761   H     0.30304   0.99648   0.76918   0.00000  Uiso   1.00
H762   H     0.20389   0.87558   0.77542   0.00000  Uiso   1.00
H763   H     0.30340   0.50256   0.89723   0.00000  Uiso   1.00
H764   H     0.29585   0.62443   0.77515   0.00000  Uiso   1.00
H765   H     0.29656   0.87469   0.89085   0.00000  Uiso   1.00
H766   H     0.49317   0.80971   0.77280   0.00000  Uiso   1.00
H767   H     0.00683   0.68972   0.77330   0.00000  Uiso   1.00
H768   H     0.00451   0.80874   0.89770   0.00000  Uiso   1.00
H769   H     0.49552   0.69144   0.89793   0.00000  Uiso   1.00
H770   H     0.13165   0.83752   0.78409   0.00000  Uiso   1.00
N771   N     0.25000   0.62935   0.83333   0.00000  Uiso   1.00
N772   N     0.25000   0.87066   0.83333   0.00000  Uiso   1.00
N773   N     0.11473   0.81040   0.76548   0.00000  Uiso   1.00
N774   N     0.38528   0.68919   0.76581   0.00000  Uiso   1.00
N775   N     0.38120   0.80910   0.90037   0.00000  Uiso   1.00
N776   N     0.11884   0.69125   0.90069   0.00000  Uiso   1.00
O777   O     0.18573   0.79072   0.83334   0.00000  Uiso   1.00
O778   O     0.47451   0.68876   0.76859   0.00000  Uiso   1.00
O779   O     0.47204   0.81064   0.90063   0.00000  Uiso   1.00
O780   O     0.02799   0.68967   0.90098   0.00000  Uiso   1.00
O781   O     0.19567   0.53296   0.90084   0.00000  Uiso   1.00
O782   O     0.19549   0.96803   0.76613   0.00000  Uiso   1.00
O783   O     0.30418   0.53198   0.76578   0.00000  Uiso   1.00
O784   O     0.30469   0.96704   0.90048   0.00000  Uiso   1.00
O785   O     0.31427   0.70929   0.83333   0.00000  Uiso   1.00
O786   O     0.31427   0.79072   0.83333   0.00000  Uiso   1.00
O787   O     0.18573   0.70929   0.83334   0.00000  Uiso   1.00
O788   O     0.25000   0.79071   0.76280   0.00000  Uiso   1.00
O789   O     0.25000   0.70929   0.90387   0.00000  Uiso   1.00
O790   O     0.25000   0.79071   0.90387   0.00000  Uiso   1.00
O791   O     0.25000   0.70929   0.76280   0.00000  Uiso   1.00
O792   O     0.02549   0.81077   0.76821   0.00000  Uiso   1.00
C793   C     0.66499   0.75021   0.83310   0.00000  Uiso   1.00
C794   C     0.77697   0.94579   0.86662   0.00000  Uiso   1.00
C795   C     0.75000   0.75000   0.74016   0.00000  Uiso   1.00
C796   C     0.75000   0.75000   0.92650   0.00000  Uiso   1.00
C797   C     0.75001   0.52733   0.83340   0.00000  Uiso   1.00
C798   C     0.75000   0.97267   0.83339   0.00000  Uiso   1.00
C799   C     0.75000   0.75000   0.68850   0.00000  Uiso   1.00
C800   C     0.75000   0.75000   0.97817   0.00000  Uiso   1.00
C801   C     0.54682   0.78057   0.80127   0.00000  Uiso   1.00
C802   C     0.95319   0.71917   0.80146   0.00000  Uiso   1.00
C803   C     0.95193   0.78002   0.86737   0.00000  Uiso   1.00
C804   C     0.83501   0.74979   0.83309   0.00000  Uiso   1.00
C805   C     0.54810   0.72011   0.86754   0.00000  Uiso   1.00
C806   C     0.59286   0.78046   0.80078   0.00000  Uiso   1.00
C807   C     0.90715   0.71932   0.80095   0.00000  Uiso   1.00
C808   C     0.90573   0.77949   0.86659   0.00000  Uiso   1.00
C809   C     0.59429   0.72066   0.86677   0.00000  Uiso   1.00
C810   C     0.61670   0.75063   0.83356   0.00000  Uiso   1.00
C811   C     0.88331   0.74936   0.83355   0.00000  Uiso   1.00
C812   C     0.52423   0.75028   0.83470   0.00000  Uiso   1.00
C813   C     0.97578   0.74965   0.83471   0.00000  Uiso   1.00
C814   C     0.72412   0.60504   0.86573   0.00000  Uiso   1.00
C815   C     0.72412   0.89545   0.80099   0.00000  Uiso   1.00
C816   C     0.77573   0.60455   0.80084   0.00000  Uiso   1.00
C817   C     0.77603   0.89496   0.86557   0.00000  Uiso   1.00
C818   C     0.72320   0.55420   0.86679   0.00000  Uiso   1.00
C819   C     0.72312   0.94629   0.80006   0.00000  Uiso   1.00
C820   C     0.77673   0.55371   0.79989   0.00000  Uiso   1.00
Cu821  Cu    0.75000   0.79822   0.83333   0.00000  Uiso   1.00
Cu822  Cu    0.75000   0.70179   0.83333   0.00000  Uiso   1.00
H823   H     0.70370   0.62530   0.89113   0.00000  Uiso   1.00
H824   H     0.63724   0.78934   0.74554   0.00000  Uiso   1.00
H825   H     0.86278   0.71013   0.74576   0.00000  Uiso   1.00
H826   H     0.86838   0.66216   0.78457   0.00000  Uiso   1.00
H827   H     0.88973   0.84515   0.89446   0.00000  Uiso   1.00
H828   H     0.89048   0.79965   0.93608   0.00000  Uiso   1.00
H829   H     0.60955   0.70089   0.93636   0.00000  Uiso   1.00
H830   H     0.61032   0.65517   0.89499   0.00000  Uiso   1.00
H831   H     0.69696   0.99743   0.89760   0.00000  Uiso   1.00
H832   H     0.69665   0.50352   0.76953   0.00000  Uiso   1.00
H833   H     0.80304   0.99648   0.76918   0.00000  Uiso   1.00
H834   H     0.70389   0.87558   0.77542   0.00000  Uiso   1.00
H835   H     0.80340   0.50256   0.89723   0.00000  Uiso   1.00
H836   H     0.79585   0.62443   0.77515   0.00000  Uiso   1.00
H837   H     0.79656   0.87469   0.89085   0.00000  Uiso   1.00
H838   H     0.99317   0.80971   0.77280   0.00000  Uiso   1.00
H839   H     0.50683   0.68972   0.77330   0.00000  Uiso   1.00
H840   H     0.50451   0.80874   0.89770   0.00000  Uiso   1.00
H841   H     0.99552   0.69144   0.89793   0.00000  Uiso   1.00
H842   H     0.63165   0.83752   0.78409   0.00000  Uiso   1.00
N843   N     0.75000   0.62935   0.83333   0.00000  Uiso   1.00
N844   N     0.75000   0.87066   0.83333   0.00000  Uiso   1.00
N845   N     0.61473   0.81040   0.76548   0.00000  Uiso   1.00
N846   N     0.88528   0.68919   0.76581   0.00000  Uiso   1.00
N847   N     0.88120   0.80910   0.90037   0.00000  Uiso   1.00
N848   N     0.61884   0.69125   0.90069   0.00000  Uiso   1.00
O849   O     0.68573   0.79072   0.83334   0.00000  Uiso   1.00
O850   O     0.97451   0.68876   0.76859   0.00000  Uiso   1.00
O851   O     0.97204   0.81064   0.90063   0.00000  Uiso   1.00
O852   O     0.52799   0.68967   0.90098   0.00000  Uiso   1.00
O853   O     0.69567   0.53296   0.90084   0.00000  Uiso   1.00
O854   O     0.69549   0.96803   0.76613   0.00000  Uiso   1.00
O855   O     0.80418   0.53198   0.76578   0.00000  Uiso   1.00
O856   O     0.80469   0.96704   0.90048   0.00000  Uiso   1.00
O857   O     0.81427   0.70929   0.83333   0.00000  Uiso   1.00
O858   O     0.81427   0.79072   0.83333   0.00000  Uiso   1.00
O859   O     0.68573   0.70929   0.83334   0.00000  Uiso   1.00
O860   O     0.75000   0.79071   0.76280   0.00000  Uiso   1.00
O861   O     0.75000   0.70929   0.90387   0.00000  Uiso   1.00
O862   O     0.75000   0.79071   0.90387   0.00000  Uiso   1.00
O863   O     0.75000   0.70929   0.76280   0.00000  Uiso   1.00
O864   O     0.52549   0.81077   0.76821   0.00000  Uiso   1.00
loop_
_geom_bond_atom_site_label_1
_geom_bond_atom_site_label_2
_geom_bond_distance
_geom_bond_site_symmetry_2
_ccdc_geom_bond_type
C1     O57     1.290   .     A
C1     C18     1.463   .     S
C1     O67     1.291   .     A
C2     C6      1.425   .     A
C2     C25     1.409   .     A
C2     O64     1.382   .     S
C3     O71     1.285   .     A
C3     O68     1.285   .     A
C3     C7      1.408   .     S
C4     C8      1.408   .     S
C4     O70     1.285   .     A
C4     O69     1.285   .     A
C5     C28     1.425   .     A
C5     C26     1.425   .     A
C5     C150    1.514   1_545 S
C6     C27     1.425   .     A
C6     C149    1.514   .     S
C7     C584    1.190   1_554 S
C8     C295    1.190   .     S
C9     C14     1.394   .     A
C9     C20     1.418   .     A
C9     O72     1.386   .     S
C10    O58     1.386   .     S
C10    C21     1.418   .     A
C10    C15     1.394   .     A
C11    C16     1.399   .     A
C11    O59     1.385   .     S
C11    C21     1.418   .     A
C12    O66     1.292   .     A
C12    C19     1.463   .     S
C12    O65     1.290   .     A
C13    C17     1.399   .     A
C13    O60     1.385   .     S
C13    C20     1.418   .     A
C14    C18     1.412   .     A
C14    N53     1.435   .     S
C15    C19     1.412   .     A
C15    N54     1.435   .     S
C16    N55     1.436   .     S
C16    C19     1.406   .     A
C17    N56     1.436   .     S
C17    C18     1.406   .     A
C20    C93     1.468   1_455 S
C21    C92     1.468   .     S
C22    C26     1.409   .     A
C22    H31     1.082   .     S
C22    N51     1.362   .     A
C23    N52     1.362   .     A
C23    H42     1.081   .     S
C23    C27     1.408   .     A
C24    N51     1.362   .     A
C24    H44     1.081   .     S
C24    C28     1.408   .     A
C25    N52     1.362   .     A
C25    H45     1.082   .     S
C26    O61     1.382   .     S
C27    O62     1.382   .     S
C28    O63     1.382   .     S
Cu29   Cu30    2.671   .     S
Cu29   O66     1.956   .     S
Cu29   O68     1.933   .     S
Cu29   O57     1.959   .     S
Cu29   O70     1.933   .     S
Cu29   N52     2.006   .     S
Cu30   O71     1.933   .     S
Cu30   N51     2.006   .     S
Cu30   O65     1.959   .     S
Cu30   O69     1.933   .     S
Cu30   O67     1.956   .     S
H32    N53     1.046   .     S
H33    N54     1.046   .     S
H34    N54     1.044   .     S
H35    N55     1.046   .     S
H36    N55     1.046   .     S
H37    N56     1.046   .     S
H38    N56     1.046   .     S
H39    O205    0.988   .     S
H40    O206    0.988   1_545 S
H41    O207    0.988   .     S
H43    O208    0.988   1_545 S
H46    O144    0.988   .     S
H47    O130    0.988   1_455 S
H48    O131    0.988   1_455 S
H49    O132    0.988   .     S
H50    N53     1.044   .     S
O58    H119    0.988   .     S
O59    H120    0.988   .     S
O60    H121    0.988   1_455 S
O61    H183    0.988   1_545 S
O62    H184    0.988   .     S
O63    H185    0.988   1_545 S
O64    H187    0.988   .     S
O72    H118    0.988   1_455 S
C73    O129    1.290   .     A
C73    C90     1.463   .     S
C73    O139    1.291   .     A
C74    C78     1.425   .     A
C74    C97     1.409   .     A
C74    O136    1.382   .     S
C75    O143    1.285   .     A
C75    O140    1.285   .     A
C75    C79     1.408   .     S
C76    C80     1.408   .     S
C76    O142    1.285   .     A
C76    O141    1.285   .     A
C77    C100    1.425   .     A
C77    C98     1.425   .     A
C77    C222    1.514   1_545 S
C78    C99     1.425   .     A
C78    C221    1.514   .     S
C79    C656    1.190   1_554 S
C80    C367    1.190   .     S
C81    C86     1.394   .     A
C81    C92     1.418   .     A
C81    O144    1.386   .     S
C82    O130    1.386   .     S
C82    C93     1.418   .     A
C82    C87     1.394   .     A
C83    C88     1.399   .     A
C83    O131    1.385   .     S
C83    C93     1.418   .     A
C84    O138    1.292   .     A
C84    C91     1.463   .     S
C84    O137    1.290   .     A
C85    C89     1.399   .     A
C85    O132    1.385   .     S
C85    C92     1.418   .     A
C86    C90     1.412   .     A
C86    N125    1.435   .     S
C87    C91     1.412   .     A
C87    N126    1.435   .     S
C88    N127    1.436   .     S
C88    C91     1.406   .     A
C89    N128    1.436   .     S
C89    C90     1.406   .     A
C93    C20     1.468   1_655 S
C94    C98     1.409   .     A
C94    H103    1.082   .     S
C94    N123    1.362   .     A
C95    N124    1.362   .     A
C95    H114    1.081   .     S
C95    C99     1.408   .     A
C96    N123    1.362   .     A
C96    H116    1.081   .     S
C96    C100    1.408   .     A
C97    N124    1.362   .     A
C97    H117    1.082   .     S
C98    O133    1.382   .     S
C99    O134    1.382   .     S
C100   O135    1.382   .     S
Cu101  Cu102   2.671   .     S
Cu101  O138    1.956   .     S
Cu101  O140    1.933   .     S
Cu101  O129    1.959   .     S
Cu101  O142    1.933   .     S
Cu101  N124    2.006   .     S
Cu102  O143    1.933   .     S
Cu102  N123    2.006   .     S
Cu102  O137    1.959   .     S
Cu102  O141    1.933   .     S
Cu102  O139    1.956   .     S
H104   N125    1.046   .     S
H105   N126    1.046   .     S
H106   N126    1.044   .     S
H107   N127    1.046   .     S
H108   N127    1.046   .     S
H109   N128    1.046   .     S
H110   N128    1.046   .     S
H111   O277    0.988   .     S
H112   O278    0.988   1_545 S
H113   O279    0.988   .     S
H115   O280    0.988   1_545 S
H118   O72     0.988   1_655 S
H121   O60     0.988   1_655 S
H122   N125    1.044   .     S
O130   H47     0.988   1_655 S
O131   H48     0.988   1_655 S
O133   H255    0.988   1_545 S
O134   H256    0.988   .     S
O135   H257    0.988   1_545 S
O136   H259    0.988   .     S
C145   O201    1.290   .     A
C145   C162    1.463   .     S
C145   O211    1.291   .     A
C146   C150    1.425   .     A
C146   C169    1.409   .     A
C146   O208    1.382   .     S
C147   O215    1.285   .     A
C147   O212    1.285   .     A
C147   C151    1.408   .     S
C148   C152    1.408   .     S
C148   O214    1.285   .     A
C148   O213    1.285   .     A
C149   C172    1.425   .     A
C149   C170    1.425   .     A
C150   C171    1.425   .     A
C150   C5      1.514   1_565 S
C151   C728    1.190   1_554 S
C152   C439    1.190   .     S
C153   C158    1.394   .     A
C153   C164    1.418   .     A
C153   O216    1.386   .     S
C154   O202    1.386   .     S
C154   C165    1.418   .     A
C154   C159    1.394   .     A
C155   C160    1.399   .     A
C155   O203    1.385   .     S
C155   C165    1.418   .     A
C156   O210    1.292   .     A
C156   C163    1.463   .     S
C156   O209    1.290   .     A
C157   C161    1.399   .     A
C157   O204    1.385   .     S
C157   C164    1.418   .     A
C158   C162    1.412   .     A
C158   N197    1.435   .     S
C159   C163    1.412   .     A
C159   N198    1.435   .     S
C160   N199    1.436   .     S
C160   C163    1.406   .     A
C161   N200    1.436   .     S
C161   C162    1.406   .     A
C164   C237    1.468   1_455 S
C165   C236    1.468   .     S
C166   C170    1.409   .     A
C166   H175    1.082   .     S
C166   N195    1.362   .     A
C167   N196    1.362   .     A
C167   H186    1.081   .     S
C167   C171    1.408   .     A
C168   N195    1.362   .     A
C168   H188    1.081   .     S
C168   C172    1.408   .     A
C169   N196    1.362   .     A
C169   H189    1.082   .     S
C170   O205    1.382   .     S
C171   O206    1.382   .     S
C172   O207    1.382   .     S
Cu173  Cu174   2.671   .     S
Cu173  O210    1.956   .     S
Cu173  O212    1.933   .     S
Cu173  O201    1.959   .     S
Cu173  O214    1.933   .     S
Cu173  N196    2.006   .     S
Cu174  O215    1.933   .     S
Cu174  N195    2.006   .     S
Cu174  O209    1.959   .     S
Cu174  O213    1.933   .     S
Cu174  O211    1.956   .     S
H176   N197    1.046   .     S
H177   N198    1.046   .     S
H178   N198    1.044   .     S
H179   N199    1.046   .     S
H180   N199    1.046   .     S
H181   N200    1.046   .     S
H182   N200    1.046   .     S
H183   O61     0.988   1_565 S
H185   O63     0.988   1_565 S
H190   O288    0.988   .     S
H191   O274    0.988   1_455 S
H192   O275    0.988   1_455 S
H193   O276    0.988   .     S
H194   N197    1.044   .     S
O202   H263    0.988   .     S
O203   H264    0.988   .     S
O204   H265    0.988   1_455 S
O206   H40     0.988   1_565 S
O208   H43     0.988   1_565 S
O216   H262    0.988   1_455 S
C217   O273    1.290   .     A
C217   C234    1.463   .     S
C217   O283    1.291   .     A
C218   C222    1.425   .     A
C218   C241    1.409   .     A
C218   O280    1.382   .     S
C219   O287    1.285   .     A
C219   O284    1.285   .     A
C219   C223    1.408   .     S
C220   C224    1.408   .     S
C220   O286    1.285   .     A
C220   O285    1.285   .     A
C221   C244    1.425   .     A
C221   C242    1.425   .     A
C222   C243    1.425   .     A
C222   C77     1.514   1_565 S
C223   C800    1.190   1_554 S
C224   C511    1.190   .     S
C225   C230    1.394   .     A
C225   C236    1.418   .     A
C225   O288    1.386   .     S
C226   O274    1.386   .     S
C226   C237    1.418   .     A
C226   C231    1.394   .     A
C227   C232    1.399   .     A
C227   O275    1.385   .     S
C227   C237    1.418   .     A
C228   O282    1.292   .     A
C228   C235    1.463   .     S
C228   O281    1.290   .     A
C229   C233    1.399   .     A
C229   O276    1.385   .     S
C229   C236    1.418   .     A
C230   C234    1.412   .     A
C230   N269    1.435   .     S
C231   C235    1.412   .     A
C231   N270    1.435   .     S
C232   N271    1.436   .     S
C232   C235    1.406   .     A
C233   N272    1.436   .     S
C233   C234    1.406   .     A
C237   C164    1.468   1_655 S
C238   C242    1.409   .     A
C238   H247    1.082   .     S
C238   N267    1.362   .     A
C239   N268    1.362   .     A
C239   H258    1.081   .     S
C239   C243    1.408   .     A
C240   N267    1.362   .     A
C240   H260    1.081   .     S
C240   C244    1.408   .     A
C241   N268    1.362   .     A
C241   H261    1.082   .     S
C242   O277    1.382   .     S
C243   O278    1.382   .     S
C244   O279    1.382   .     S
Cu245  Cu246   2.671   .     S
Cu245  O282    1.956   .     S
Cu245  O284    1.933   .     S
Cu245  O273    1.959   .     S
Cu245  O286    1.933   .     S
Cu245  N268    2.006   .     S
Cu246  O287    1.933   .     S
Cu246  N267    2.006   .     S
Cu246  O281    1.959   .     S
Cu246  O285    1.933   .     S
Cu246  O283    1.956   .     S
H248   N269    1.046   .     S
H249   N270    1.046   .     S
H250   N270    1.044   .     S
H251   N271    1.046   .     S
H252   N271    1.046   .     S
H253   N272    1.046   .     S
H254   N272    1.046   .     S
H255   O133    0.988   1_565 S
H257   O135    0.988   1_565 S
H262   O216    0.988   1_655 S
H265   O204    0.988   1_655 S
H266   N269    1.044   .     S
O274   H191    0.988   1_655 S
O275   H192    0.988   1_655 S
O278   H112    0.988   1_565 S
O280   H115    0.988   1_565 S
C289   O345    1.290   .     A
C289   C306    1.463   .     S
C289   O355    1.291   .     A
C290   C294    1.425   .     A
C290   C313    1.409   .     A
C290   O352    1.382   .     S
C291   O359    1.285   .     A
C291   O356    1.285   .     A
C291   C295    1.408   .     S
C292   C296    1.408   .     S
C292   O358    1.285   .     A
C292   O357    1.285   .     A
C293   C316    1.425   .     A
C293   C314    1.425   .     A
C293   C438    1.514   1_545 S
C294   C315    1.425   .     A
C294   C437    1.514   .     S
C296   C583    1.190   .     S
C297   C302    1.394   .     A
C297   C308    1.418   .     A
C297   O360    1.386   .     S
C298   O346    1.386   .     S
C298   C309    1.418   .     A
C298   C303    1.394   .     A
C299   C304    1.399   .     A
C299   O347    1.385   .     S
C299   C309    1.418   .     A
C300   O354    1.292   .     A
C300   C307    1.463   .     S
C300   O353    1.290   .     A
C301   C305    1.399   .     A
C301   O348    1.385   .     S
C301   C308    1.418   .     A
C302   C306    1.412   .     A
C302   N341    1.435   .     S
C303   C307    1.412   .     A
C303   N342    1.435   .     S
C304   N343    1.436   .     S
C304   C307    1.406   .     A
C305   N344    1.436   .     S
C305   C306    1.406   .     A
C308   C381    1.468   1_455 S
C309   C380    1.468   .     S
C310   C314    1.409   .     A
C310   H319    1.082   .     S
C310   N339    1.362   .     A
C311   N340    1.362   .     A
C311   H330    1.081   .     S
C311   C315    1.408   .     A
C312   N339    1.362   .     A
C312   H332    1.081   .     S
C312   C316    1.408   .     A
C313   N340    1.362   .     A
C313   H333    1.082   .     S
C314   O349    1.382   .     S
C315   O350    1.382   .     S
C316   O351    1.382   .     S
Cu317  Cu318   2.671   .     S
Cu317  O354    1.956   .     S
Cu317  O356    1.933   .     S
Cu317  O345    1.959   .     S
Cu317  O358    1.933   .     S
Cu317  N340    2.006   .     S
Cu318  O359    1.933   .     S
Cu318  N339    2.006   .     S
Cu318  O353    1.959   .     S
Cu318  O357    1.933   .     S
Cu318  O355    1.956   .     S
H320   N341    1.046   .     S
H321   N342    1.046   .     S
H322   N342    1.044   .     S
H323   N343    1.046   .     S
H324   N343    1.046   .     S
H325   N344    1.046   .     S
H326   N344    1.046   .     S
H327   O493    0.988   .     S
H328   O494    0.988   1_545 S
H329   O495    0.988   .     S
H331   O496    0.988   1_545 S
H334   O432    0.988   .     S
H335   O418    0.988   1_455 S
H336   O419    0.988   1_455 S
H337   O420    0.988   .     S
H338   N341    1.044   .     S
O346   H407    0.988   .     S
O347   H408    0.988   .     S
O348   H409    0.988   1_455 S
O349   H471    0.988   1_545 S
O350   H472    0.988   .     S
O351   H473    0.988   1_545 S
O352   H475    0.988   .     S
O360   H406    0.988   1_455 S
C361   O417    1.290   .     A
C361   C378    1.463   .     S
C361   O427    1.291   .     A
C362   C366    1.425   .     A
C362   C385    1.409   .     A
C362   O424    1.382   .     S
C363   O431    1.285   .     A
C363   O428    1.285   .     A
C363   C367    1.408   .     S
C364   C368    1.408   .     S
C364   O430    1.285   .     A
C364   O429    1.285   .     A
C365   C388    1.425   .     A
C365   C386    1.425   .     A
C365   C510    1.514   1_545 S
C366   C387    1.425   .     A
C366   C509    1.514   .     S
C368   C655    1.190   .     S
C369   C374    1.394   .     A
C369   C380    1.418   .     A
C369   O432    1.386   .     S
C370   O418    1.386   .     S
C370   C381    1.418   .     A
C370   C375    1.394   .     A
C371   C376    1.399   .     A
C371   O419    1.385   .     S
C371   C381    1.418   .     A
C372   O426    1.292   .     A
C372   C379    1.463   .     S
C372   O425    1.290   .     A
C373   C377    1.399   .     A
C373   O420    1.385   .     S
C373   C380    1.418   .     A
C374   C378    1.412   .     A
C374   N413    1.435   .     S
C375   C379    1.412   .     A
C375   N414    1.435   .     S
C376   N415    1.436   .     S
C376   C379    1.406   .     A
C377   N416    1.436   .     S
C377   C378    1.406   .     A
C381   C308    1.468   1_655 S
C382   C386    1.409   .     A
C382   H391    1.082   .     S
C382   N411    1.362   .     A
C383   N412    1.362   .     A
C383   H402    1.081   .     S
C383   C387    1.408   .     A
C384   N411    1.362   .     A
C384   H404    1.081   .     S
C384   C388    1.408   .     A
C385   N412    1.362   .     A
C385   H405    1.082   .     S
C386   O421    1.382   .     S
C387   O422    1.382   .     S
C388   O423    1.382   .     S
Cu389  Cu390   2.671   .     S
Cu389  O426    1.956   .     S
Cu389  O428    1.933   .     S
Cu389  O417    1.959   .     S
Cu389  O430    1.933   .     S
Cu389  N412    2.006   .     S
Cu390  O431    1.933   .     S
Cu390  N411    2.006   .     S
Cu390  O425    1.959   .     S
Cu390  O429    1.933   .     S
Cu390  O427    1.956   .     S
H392   N413    1.046   .     S
H393   N414    1.046   .     S
H394   N414    1.044   .     S
H395   N415    1.046   .     S
H396   N415    1.046   .     S
H397   N416    1.046   .     S
H398   N416    1.046   .     S
H399   O565    0.988   .     S
H400   O566    0.988   1_545 S
H401   O567    0.988   .     S
H403   O568    0.988   1_545 S
H406   O360    0.988   1_655 S
H409   O348    0.988   1_655 S
H410   N413    1.044   .     S
O418   H335    0.988   1_655 S
O419   H336    0.988   1_655 S
O421   H543    0.988   1_545 S
O422   H544    0.988   .     S
O423   H545    0.988   1_545 S
O424   H547    0.988   .     S
C433   O489    1.290   .     A
C433   C450    1.463   .     S
C433   O499    1.291   .     A
C434   C438    1.425   .     A
C434   C457    1.409   .     A
C434   O496    1.382   .     S
C435   O503    1.285   .     A
C435   O500    1.285   .     A
C435   C439    1.408   .     S
C436   C440    1.408   .     S
C436   O502    1.285   .     A
C436   O501    1.285   .     A
C437   C460    1.425   .     A
C437   C458    1.425   .     A
C438   C459    1.425   .     A
C438   C293    1.514   1_565 S
C440   C727    1.190   .     S
C441   C446    1.394   .     A
C441   C452    1.418   .     A
C441   O504    1.386   .     S
C442   O490    1.386   .     S
C442   C453    1.418   .     A
C442   C447    1.394   .     A
C443   C448    1.399   .     A
C443   O491    1.385   .     S
C443   C453    1.418   .     A
C444   O498    1.292   .     A
C444   C451    1.463   .     S
C444   O497    1.290   .     A
C445   C449    1.399   .     A
C445   O492    1.385   .     S
C445   C452    1.418   .     A
C446   C450    1.412   .     A
C446   N485    1.435   .     S
C447   C451    1.412   .     A
C447   N486    1.435   .     S
C448   N487    1.436   .     S
C448   C451    1.406   .     A
C449   N488    1.436   .     S
C449   C450    1.406   .     A
C452   C525    1.468   1_455 S
C453   C524    1.468   .     S
C454   C458    1.409   .     A
C454   H463    1.082   .     S
C454   N483    1.362   .     A
C455   N484    1.362   .     A
C455   H474    1.081   .     S
C455   C459    1.408   .     A
C456   N483    1.362   .     A
C456   H476    1.081   .     S
C456   C460    1.408   .     A
C457   N484    1.362   .     A
C457   H477    1.082   .     S
C458   O493    1.382   .     S
C459   O494    1.382   .     S
C460   O495    1.382   .     S
Cu461  Cu462   2.671   .     S
Cu461  O498    1.956   .     S
Cu461  O500    1.933   .     S
Cu461  O489    1.959   .     S
Cu461  O502    1.933   .     S
Cu461  N484    2.006   .     S
Cu462  O503    1.933   .     S
Cu462  N483    2.006   .     S
Cu462  O497    1.959   .     S
Cu462  O501    1.933   .     S
Cu462  O499    1.956   .     S
H464   N485    1.046   .     S
H465   N486    1.046   .     S
H466   N486    1.044   .     S
H467   N487    1.046   .     S
H468   N487    1.046   .     S
H469   N488    1.046   .     S
H470   N488    1.046   .     S
H471   O349    0.988   1_565 S
H473   O351    0.988   1_565 S
H478   O576    0.988   .     S
H479   O562    0.988   1_455 S
H480   O563    0.988   1_455 S
H481   O564    0.988   .     S
H482   N485    1.044   .     S
O490   H551    0.988   .     S
O491   H552    0.988   .     S
O492   H553    0.988   1_455 S
O494   H328    0.988   1_565 S
O496   H331    0.988   1_565 S
O504   H550    0.988   1_455 S
C505   O561    1.290   .     A
C505   C522    1.463   .     S
C505   O571    1.291   .     A
C506   C510    1.425   .     A
C506   C529    1.409   .     A
C506   O568    1.382   .     S
C507   O575    1.285   .     A
C507   O572    1.285   .     A
C507   C511    1.408   .     S
C508   C512    1.408   .     S
C508   O574    1.285   .     A
C508   O573    1.285   .     A
C509   C532    1.425   .     A
C509   C530    1.425   .     A
C510   C531    1.425   .     A
C510   C365    1.514   1_565 S
C512   C799    1.190   .     S
C513   C518    1.394   .     A
C513   C524    1.418   .     A
C513   O576    1.386   .     S
C514   O562    1.386   .     S
C514   C525    1.418   .     A
C514   C519    1.394   .     A
C515   C520    1.399   .     A
C515   O563    1.385   .     S
C515   C525    1.418   .     A
C516   O570    1.292   .     A
C516   C523    1.463   .     S
C516   O569    1.290   .     A
C517   C521    1.399   .     A
C517   O564    1.385   .     S
C517   C524    1.418   .     A
C518   C522    1.412   .     A
C518   N557    1.435   .     S
C519   C523    1.412   .     A
C519   N558    1.435   .     S
C520   N559    1.436   .     S
C520   C523    1.406   .     A
C521   N560    1.436   .     S
C521   C522    1.406   .     A
C525   C452    1.468   1_655 S
C526   C530    1.409   .     A
C526   H535    1.082   .     S
C526   N555    1.362   .     A
C527   N556    1.362   .     A
C527   H546    1.081   .     S
C527   C531    1.408   .     A
C528   N555    1.362   .     A
C528   H548    1.081   .     S
C528   C532    1.408   .     A
C529   N556    1.362   .     A
C529   H549    1.082   .     S
C530   O565    1.382   .     S
C531   O566    1.382   .     S
C532   O567    1.382   .     S
Cu533  Cu534   2.671   .     S
Cu533  O570    1.956   .     S
Cu533  O572    1.933   .     S
Cu533  O561    1.959   .     S
Cu533  O574    1.933   .     S
Cu533  N556    2.006   .     S
Cu534  O575    1.933   .     S
Cu534  N555    2.006   .     S
Cu534  O569    1.959   .     S
Cu534  O573    1.933   .     S
Cu534  O571    1.956   .     S
H536   N557    1.046   .     S
H537   N558    1.046   .     S
H538   N558    1.044   .     S
H539   N559    1.046   .     S
H540   N559    1.046   .     S
H541   N560    1.046   .     S
H542   N560    1.046   .     S
H543   O421    0.988   1_565 S
H545   O423    0.988   1_565 S
H550   O504    0.988   1_655 S
H553   O492    0.988   1_655 S
H554   N557    1.044   .     S
O562   H479    0.988   1_655 S
O563   H480    0.988   1_655 S
O566   H400    0.988   1_565 S
O568   H403    0.988   1_565 S
C577   O633    1.290   .     A
C577   C594    1.463   .     S
C577   O643    1.291   .     A
C578   C582    1.425   .     A
C578   C601    1.409   .     A
C578   O640    1.382   .     S
C579   O647    1.285   .     A
C579   O644    1.285   .     A
C579   C583    1.408   .     S
C580   C584    1.408   .     S
C580   O646    1.285   .     A
C580   O645    1.285   .     A
C581   C604    1.425   .     A
C581   C602    1.425   .     A
C581   C726    1.514   1_545 S
C582   C603    1.425   .     A
C582   C725    1.514   .     S
C584   C7      1.190   1_556 S
C585   C590    1.394   .     A
C585   C596    1.418   .     A
C585   O648    1.386   .     S
C586   O634    1.386   .     S
C586   C597    1.418   .     A
C586   C591    1.394   .     A
C587   C592    1.399   .     A
C587   O635    1.385   .     S
C587   C597    1.418   .     A
C588   O642    1.292   .     A
C588   C595    1.463   .     S
C588   O641    1.290   .     A
C589   C593    1.399   .     A
C589   O636    1.385   .     S
C589   C596    1.418   .     A
C590   C594    1.412   .     A
C590   N629    1.435   .     S
C591   C595    1.412   .     A
C591   N630    1.435   .     S
C592   N631    1.436   .     S
C592   C595    1.406   .     A
C593   N632    1.436   .     S
C593   C594    1.406   .     A
C596   C669    1.468   1_455 S
C597   C668    1.468   .     S
C598   C602    1.409   .     A
C598   H607    1.082   .     S
C598   N627    1.362   .     A
C599   N628    1.362   .     A
C599   H618    1.081   .     S
C599   C603    1.408   .     A
C600   N627    1.362   .     A
C600   H620    1.081   .     S
C600   C604    1.408   .     A
C601   N628    1.362   .     A
C601   H621    1.082   .     S
C602   O637    1.382   .     S
C603   O638    1.382   .     S
C604   O639    1.382   .     S
Cu605  Cu606   2.671   .     S
Cu605  O642    1.956   .     S
Cu605  O644    1.933   .     S
Cu605  O633    1.959   .     S
Cu605  O646    1.933   .     S
Cu605  N628    2.006   .     S
Cu606  O647    1.933   .     S
Cu606  N627    2.006   .     S
Cu606  O641    1.959   .     S
Cu606  O645    1.933   .     S
Cu606  O643    1.956   .     S
H608   N629    1.046   .     S
H609   N630    1.046   .     S
H610   N630    1.044   .     S
H611   N631    1.046   .     S
H612   N631    1.046   .     S
H613   N632    1.046   .     S
H614   N632    1.046   .     S
H615   O781    0.988   .     S
H616   O782    0.988   1_545 S
H617   O783    0.988   .     S
H619   O784    0.988   1_545 S
H622   O720    0.988   .     S
H623   O706    0.988   1_455 S
H624   O707    0.988   1_455 S
H625   O708    0.988   .     S
H626   N629    1.044   .     S
O634   H695    0.988   .     S
O635   H696    0.988   .     S
O636   H697    0.988   1_455 S
O637   H759    0.988   1_545 S
O638   H760    0.988   .     S
O639   H761    0.988   1_545 S
O640   H763    0.988   .     S
O648   H694    0.988   1_455 S
C649   O705    1.290   .     A
C649   C666    1.463   .     S
C649   O715    1.291   .     A
C650   C654    1.425   .     A
C650   C673    1.409   .     A
C650   O712    1.382   .     S
C651   O719    1.285   .     A
C651   O716    1.285   .     A
C651   C655    1.408   .     S
C652   C656    1.408   .     S
C652   O718    1.285   .     A
C652   O717    1.285   .     A
C653   C676    1.425   .     A
C653   C674    1.425   .     A
C653   C798    1.514   1_545 S
C654   C675    1.425   .     A
C654   C797    1.514   .     S
C656   C79     1.190   1_556 S
C657   C662    1.394   .     A
C657   C668    1.418   .     A
C657   O720    1.386   .     S
C658   O706    1.386   .     S
C658   C669    1.418   .     A
C658   C663    1.394   .     A
C659   C664    1.399   .     A
C659   O707    1.385   .     S
C659   C669    1.418   .     A
C660   O714    1.292   .     A
C660   C667    1.463   .     S
C660   O713    1.290   .     A
C661   C665    1.399   .     A
C661   O708    1.385   .     S
C661   C668    1.418   .     A
C662   C666    1.412   .     A
C662   N701    1.435   .     S
C663   C667    1.412   .     A
C663   N702    1.435   .     S
C664   N703    1.436   .     S
C664   C667    1.406   .     A
C665   N704    1.436   .     S
C665   C666    1.406   .     A
C669   C596    1.468   1_655 S
C670   C674    1.409   .     A
C670   H679    1.082   .     S
C670   N699    1.362   .     A
C671   N700    1.362   .     A
C671   H690    1.081   .     S
C671   C675    1.408   .     A
C672   N699    1.362   .     A
C672   H692    1.081   .     S
C672   C676    1.408   .     A
C673   N700    1.362   .     A
C673   H693    1.082   .     S
C674   O709    1.382   .     S
C675   O710    1.382   .     S
C676   O711    1.382   .     S
Cu677  Cu678   2.671   .     S
Cu677  O714    1.956   .     S
Cu677  O716    1.933   .     S
Cu677  O705    1.959   .     S
Cu677  O718    1.933   .     S
Cu677  N700    2.006   .     S
Cu678  O719    1.933   .     S
Cu678  N699    2.006   .     S
Cu678  O713    1.959   .     S
Cu678  O717    1.933   .     S
Cu678  O715    1.956   .     S
H680   N701    1.046   .     S
H681   N702    1.046   .     S
H682   N702    1.044   .     S
H683   N703    1.046   .     S
H684   N703    1.046   .     S
H685   N704    1.046   .     S
H686   N704    1.046   .     S
H687   O853    0.988   .     S
H688   O854    0.988   1_545 S
H689   O855    0.988   .     S
H691   O856    0.988   1_545 S
H694   O648    0.988   1_655 S
H697   O636    0.988   1_655 S
H698   N701    1.044   .     S
O706   H623    0.988   1_655 S
O707   H624    0.988   1_655 S
O709   H831    0.988   1_545 S
O710   H832    0.988   .     S
O711   H833    0.988   1_545 S
O712   H835    0.988   .     S
C721   O777    1.290   .     A
C721   C738    1.463   .     S
C721   O787    1.291   .     A
C722   C726    1.425   .     A
C722   C745    1.409   .     A
C722   O784    1.382   .     S
C723   O791    1.285   .     A
C723   O788    1.285   .     A
C723   C727    1.408   .     S
C724   C728    1.408   .     S
C724   O790    1.285   .     A
C724   O789    1.285   .     A
C725   C748    1.425   .     A
C725   C746    1.425   .     A
C726   C747    1.425   .     A
C726   C581    1.514   1_565 S
C728   C151    1.190   1_556 S
C729   C734    1.394   .     A
C729   C740    1.418   .     A
C729   O792    1.386   .     S
C730   O778    1.386   .     S
C730   C741    1.418   .     A
C730   C735    1.394   .     A
C731   C736    1.399   .     A
C731   O779    1.385   .     S
C731   C741    1.418   .     A
C732   O786    1.292   .     A
C732   C739    1.463   .     S
C732   O785    1.290   .     A
C733   C737    1.399   .     A
C733   O780    1.385   .     S
C733   C740    1.418   .     A
C734   C738    1.412   .     A
C734   N773    1.435   .     S
C735   C739    1.412   .     A
C735   N774    1.435   .     S
C736   N775    1.436   .     S
C736   C739    1.406   .     A
C737   N776    1.436   .     S
C737   C738    1.406   .     A
C740   C813    1.468   1_455 S
C741   C812    1.468   .     S
C742   C746    1.409   .     A
C742   H751    1.082   .     S
C742   N771    1.362   .     A
C743   N772    1.362   .     A
C743   H762    1.081   .     S
C743   C747    1.408   .     A
C744   N771    1.362   .     A
C744   H764    1.081   .     S
C744   C748    1.408   .     A
C745   N772    1.362   .     A
C745   H765    1.082   .     S
C746   O781    1.382   .     S
C747   O782    1.382   .     S
C748   O783    1.382   .     S
Cu749  Cu750   2.671   .     S
Cu749  O786    1.956   .     S
Cu749  O788    1.933   .     S
Cu749  O777    1.959   .     S
Cu749  O790    1.933   .     S
Cu749  N772    2.006   .     S
Cu750  O791    1.933   .     S
Cu750  N771    2.006   .     S
Cu750  O785    1.959   .     S
Cu750  O789    1.933   .     S
Cu750  O787    1.956   .     S
H752   N773    1.046   .     S
H753   N774    1.046   .     S
H754   N774    1.044   .     S
H755   N775    1.046   .     S
H756   N775    1.046   .     S
H757   N776    1.046   .     S
H758   N776    1.046   .     S
H759   O637    0.988   1_565 S
H761   O639    0.988   1_565 S
H766   O864    0.988   .     S
H767   O850    0.988   1_455 S
H768   O851    0.988   1_455 S
H769   O852    0.988   .     S
H770   N773    1.044   .     S
O778   H839    0.988   .     S
O779   H840    0.988   .     S
O780   H841    0.988   1_455 S
O782   H616    0.988   1_565 S
O784   H619    0.988   1_565 S
O792   H838    0.988   1_455 S
C793   O849    1.290   .     A
C793   C810    1.463   .     S
C793   O859    1.291   .     A
C794   C798    1.425   .     A
C794   C817    1.409   .     A
C794   O856    1.382   .     S
C795   O863    1.285   .     A
C795   O860    1.285   .     A
C795   C799    1.408   .     S
C796   C800    1.408   .     S
C796   O862    1.285   .     A
C796   O861    1.285   .     A
C797   C820    1.425   .     A
C797   C818    1.425   .     A
C798   C819    1.425   .     A
C798   C653    1.514   1_565 S
C800   C223    1.190   1_556 S
C801   C806    1.394   .     A
C801   C812    1.418   .     A
C801   O864    1.386   .     S
C802   O850    1.386   .     S
C802   C813    1.418   .     A
C802   C807    1.394   .     A
C803   C808    1.399   .     A
C803   O851    1.385   .     S
C803   C813    1.418   .     A
C804   O858    1.292   .     A
C804   C811    1.463   .     S
C804   O857    1.290   .     A
C805   C809    1.399   .     A
C805   O852    1.385   .     S
C805   C812    1.418   .     A
C806   C810    1.412   .     A
C806   N845    1.435   .     S
C807   C811    1.412   .     A
C807   N846    1.435   .     S
C808   N847    1.436   .     S
C808   C811    1.406   .     A
C809   N848    1.436   .     S
C809   C810    1.406   .     A
C813   C740    1.468   1_655 S
C814   C818    1.409   .     A
C814   H823    1.082   .     S
C814   N843    1.362   .     A
C815   N844    1.362   .     A
C815   H834    1.081   .     S
C815   C819    1.408   .     A
C816   N843    1.362   .     A
C816   H836    1.081   .     S
C816   C820    1.408   .     A
C817   N844    1.362   .     A
C817   H837    1.082   .     S
C818   O853    1.382   .     S
C819   O854    1.382   .     S
C820   O855    1.382   .     S
Cu821  Cu822   2.671   .     S
Cu821  O858    1.956   .     S
Cu821  O860    1.933   .     S
Cu821  O849    1.959   .     S
Cu821  O862    1.933   .     S
Cu821  N844    2.006   .     S
Cu822  O863    1.933   .     S
Cu822  N843    2.006   .     S
Cu822  O857    1.959   .     S
Cu822  O861    1.933   .     S
Cu822  O859    1.956   .     S
H824   N845    1.046   .     S
H825   N846    1.046   .     S
H826   N846    1.044   .     S
H827   N847    1.046   .     S
H828   N847    1.046   .     S
H829   N848    1.046   .     S
H830   N848    1.046   .     S
H831   O709    0.988   1_565 S
H833   O711    0.988   1_565 S
H838   O792    0.988   1_655 S
H841   O780    0.988   1_655 S
H842   N845    1.044   .     S
O850   H767    0.988   1_655 S
O851   H768    0.988   1_655 S
O854   H688    0.988   1_565 S
O856   H691    0.988   1_565 S
