data_str_m2_o10_o17_pcu_sym.203
_audit_creation_date              2020-01-03
_audit_creation_method            'Materials Studio'
_symmetry_space_group_name_H-M    'P1'
_symmetry_Int_Tables_number       1
_symmetry_cell_setting            triclinic
loop_
_symmetry_equiv_pos_as_xyz
  x,y,z
_cell_length_a                    29.9567
_cell_length_b                    26.1502
_cell_length_c                    22.3407
_cell_angle_alpha                 103.1355
_cell_angle_beta                  93.7804
_cell_angle_gamma                 92.6294
loop_
_atom_site_label
_atom_site_type_symbol
_atom_site_fract_x
_atom_site_fract_y
_atom_site_fract_z
_atom_site_U_iso_or_equiv
_atom_site_adp_type
_atom_site_occupancy
C1     C     0.24890   0.06658   0.15105   0.00000  Uiso   1.00
C2     C     0.25157   0.26679   0.18227   0.00000  Uiso   1.00
C3     C     0.01907   0.07686   0.18437   0.00000  Uiso   1.00
C4     C     0.48128   0.25606   0.15280   0.00000  Uiso   1.00
C5     C     0.24863   0.01065   0.14233   0.00000  Uiso   1.00
C6     C     0.25269   0.32279   0.19101   0.00000  Uiso   1.00
C7     C     0.16455   0.16553   0.16751   0.00000  Uiso   1.00
C8     C     0.33546   0.16717   0.16571   0.00000  Uiso   1.00
C9     C     0.40812   0.21021   0.15219   0.00000  Uiso   1.00
C10    C     0.09133   0.11859   0.17091   0.00000  Uiso   1.00
C11    C     0.38353   0.16681   0.16356   0.00000  Uiso   1.00
C12    C     0.11647   0.16504   0.16952   0.00000  Uiso   1.00
C13    C     0.40481   0.12336   0.17539   0.00000  Uiso   1.00
C14    C     0.09559   0.21106   0.16686   0.00000  Uiso   1.00
C15    C     0.45123   0.12243   0.17604   0.00000  Uiso   1.00
C16    C     0.04911   0.21143   0.16456   0.00000  Uiso   1.00
C17    C     0.47663   0.16668   0.16772   0.00000  Uiso   1.00
C18    C     0.02355   0.16620   0.16954   0.00000  Uiso   1.00
C19    C     0.45520   0.21133   0.15740   0.00000  Uiso   1.00
C20    C     0.04482   0.12025   0.17534   0.00000  Uiso   1.00
C21    C     0.47269   0.07825   0.18562   0.00000  Uiso   1.00
C22    C     0.02781   0.25620   0.15705   0.00000  Uiso   1.00
Cu23   Cu    0.25501   0.17246   0.22813   0.00000  Uiso   1.00
Cu24   Cu    0.24500   0.16087   0.10521   0.00000  Uiso   1.00
H25    H     0.03486   0.04233   0.19179   0.00000  Uiso   1.00
H26    H     0.46588   0.29104   0.14585   0.00000  Uiso   1.00
H27    H     0.21557   0.12530   0.31609   0.00000  Uiso   1.00
H28    H     0.28403   0.20839   0.01730   0.00000  Uiso   1.00
N29    N     0.23745   0.15214   0.01284   0.00000  Uiso   1.00
N30    N     0.26256   0.18119   0.32049   0.00000  Uiso   1.00
O31    O     0.25326   0.09538   0.20659   0.00000  Uiso   1.00
O32    O     0.24675   0.23796   0.12674   0.00000  Uiso   1.00
O33    O     0.24480   0.08559   0.10279   0.00000  Uiso   1.00
O34    O     0.25520   0.24774   0.23055   0.00000  Uiso   1.00
O35    O     0.18936   0.17155   0.21857   0.00000  Uiso   1.00
O36    O     0.31065   0.16179   0.11476   0.00000  Uiso   1.00
O37    O     0.18090   0.16176   0.11477   0.00000  Uiso   1.00
O38    O     0.31910   0.17157   0.21857   0.00000  Uiso   1.00
O39    O     0.38607   0.25292   0.14108   0.00000  Uiso   1.00
C40    C     0.38194   0.24909   0.07679   0.00000  Uiso   1.00
H41    H     0.36213   0.21242   0.05225   0.00000  Uiso   1.00
H42    H     0.41530   0.24931   0.05761   0.00000  Uiso   1.00
C43    C     0.35809   0.29600   0.06395   0.00000  Uiso   1.00
H44    H     0.37783   0.33313   0.08669   0.00000  Uiso   1.00
H45    H     0.35416   0.29311   0.01349   0.00000  Uiso   1.00
H46    H     0.32444   0.29664   0.08193   0.00000  Uiso   1.00
O47    O     0.11178   0.07147   0.16588   0.00000  Uiso   1.00
C48    C     0.11425   0.04855   0.10238   0.00000  Uiso   1.00
H49    H     0.13746   0.07277   0.08166   0.00000  Uiso   1.00
H50    H     0.08070   0.04457   0.07636   0.00000  Uiso   1.00
C51    C     0.13214   0.32735   0.09400   0.00000  Uiso   1.00
H52    H     0.10422   0.29755   0.09156   0.00000  Uiso   1.00
H53    H     0.14866   0.31719   0.05013   0.00000  Uiso   1.00
H54    H     0.15674   0.32581   0.13277   0.00000  Uiso   1.00
H55    H     0.38500   0.09012   0.18345   0.00000  Uiso   1.00
H56    H     0.11572   0.24612   0.16520   0.00000  Uiso   1.00
H57    H     0.45346   0.04470   0.19365   0.00000  Uiso   1.00
H58    H     0.04719   0.29095   0.15327   0.00000  Uiso   1.00
H59    H     0.24443   0.32007   0.09543   0.00000  Uiso   1.00
H60    H     0.25667   0.01337   0.23792   0.00000  Uiso   1.00
C61    C     0.74890   0.06658   0.15105   0.00000  Uiso   1.00
C62    C     0.75157   0.26679   0.18227   0.00000  Uiso   1.00
C63    C     0.51907   0.07686   0.18437   0.00000  Uiso   1.00
C64    C     0.98128   0.25606   0.15280   0.00000  Uiso   1.00
C65    C     0.74863   0.01065   0.14233   0.00000  Uiso   1.00
C66    C     0.75269   0.32279   0.19101   0.00000  Uiso   1.00
C67    C     0.66455   0.16553   0.16751   0.00000  Uiso   1.00
C68    C     0.83546   0.16717   0.16571   0.00000  Uiso   1.00
C69    C     0.90812   0.21021   0.15219   0.00000  Uiso   1.00
C70    C     0.59133   0.11859   0.17091   0.00000  Uiso   1.00
C71    C     0.88353   0.16681   0.16356   0.00000  Uiso   1.00
C72    C     0.61647   0.16504   0.16952   0.00000  Uiso   1.00
C73    C     0.90481   0.12336   0.17539   0.00000  Uiso   1.00
C74    C     0.59559   0.21106   0.16686   0.00000  Uiso   1.00
C75    C     0.95123   0.12243   0.17604   0.00000  Uiso   1.00
C76    C     0.54911   0.21143   0.16456   0.00000  Uiso   1.00
C77    C     0.97663   0.16668   0.16772   0.00000  Uiso   1.00
C78    C     0.52355   0.16620   0.16954   0.00000  Uiso   1.00
C79    C     0.95520   0.21133   0.15740   0.00000  Uiso   1.00
C80    C     0.54482   0.12025   0.17534   0.00000  Uiso   1.00
C81    C     0.97269   0.07825   0.18562   0.00000  Uiso   1.00
C82    C     0.52781   0.25620   0.15705   0.00000  Uiso   1.00
Cu83   Cu    0.75501   0.17246   0.22813   0.00000  Uiso   1.00
Cu84   Cu    0.74500   0.16087   0.10521   0.00000  Uiso   1.00
H85    H     0.53486   0.04233   0.19179   0.00000  Uiso   1.00
H86    H     0.96588   0.29104   0.14585   0.00000  Uiso   1.00
H87    H     0.71557   0.12530   0.31609   0.00000  Uiso   1.00
H88    H     0.78403   0.20839   0.01730   0.00000  Uiso   1.00
N89    N     0.73745   0.15214   0.01284   0.00000  Uiso   1.00
N90    N     0.76256   0.18119   0.32049   0.00000  Uiso   1.00
O91    O     0.75326   0.09538   0.20659   0.00000  Uiso   1.00
O92    O     0.74675   0.23796   0.12674   0.00000  Uiso   1.00
O93    O     0.74480   0.08559   0.10279   0.00000  Uiso   1.00
O94    O     0.75520   0.24774   0.23055   0.00000  Uiso   1.00
O95    O     0.68936   0.17155   0.21857   0.00000  Uiso   1.00
O96    O     0.81065   0.16179   0.11476   0.00000  Uiso   1.00
O97    O     0.68090   0.16176   0.11477   0.00000  Uiso   1.00
O98    O     0.81910   0.17157   0.21857   0.00000  Uiso   1.00
O99    O     0.88607   0.25292   0.14108   0.00000  Uiso   1.00
C100   C     0.88194   0.24909   0.07679   0.00000  Uiso   1.00
H101   H     0.86213   0.21242   0.05225   0.00000  Uiso   1.00
H102   H     0.91530   0.24931   0.05761   0.00000  Uiso   1.00
C103   C     0.85809   0.29600   0.06395   0.00000  Uiso   1.00
H104   H     0.87783   0.33313   0.08669   0.00000  Uiso   1.00
H105   H     0.85416   0.29311   0.01349   0.00000  Uiso   1.00
H106   H     0.82444   0.29664   0.08193   0.00000  Uiso   1.00
O107   O     0.61178   0.07147   0.16588   0.00000  Uiso   1.00
C108   C     0.61425   0.04855   0.10238   0.00000  Uiso   1.00
H109   H     0.63746   0.07277   0.08166   0.00000  Uiso   1.00
H110   H     0.58070   0.04457   0.07636   0.00000  Uiso   1.00
C111   C     0.63214   0.32735   0.09400   0.00000  Uiso   1.00
H112   H     0.60422   0.29755   0.09156   0.00000  Uiso   1.00
H113   H     0.64866   0.31719   0.05013   0.00000  Uiso   1.00
H114   H     0.65674   0.32581   0.13277   0.00000  Uiso   1.00
H115   H     0.88500   0.09012   0.18345   0.00000  Uiso   1.00
H116   H     0.61572   0.24612   0.16520   0.00000  Uiso   1.00
H117   H     0.95346   0.04470   0.19365   0.00000  Uiso   1.00
H118   H     0.54719   0.29095   0.15327   0.00000  Uiso   1.00
H119   H     0.74443   0.32007   0.09543   0.00000  Uiso   1.00
H120   H     0.75667   0.01337   0.23792   0.00000  Uiso   1.00
C121   C     0.24890   0.39991   0.15105   0.00000  Uiso   1.00
C122   C     0.25157   0.60012   0.18227   0.00000  Uiso   1.00
C123   C     0.01907   0.41019   0.18437   0.00000  Uiso   1.00
C124   C     0.48128   0.58940   0.15280   0.00000  Uiso   1.00
C125   C     0.24863   0.34399   0.14233   0.00000  Uiso   1.00
C126   C     0.25269   0.65612   0.19101   0.00000  Uiso   1.00
C127   C     0.16455   0.49886   0.16751   0.00000  Uiso   1.00
C128   C     0.33546   0.50050   0.16571   0.00000  Uiso   1.00
C129   C     0.40812   0.54354   0.15219   0.00000  Uiso   1.00
C130   C     0.09133   0.45192   0.17091   0.00000  Uiso   1.00
C131   C     0.38353   0.50014   0.16356   0.00000  Uiso   1.00
C132   C     0.11647   0.49838   0.16952   0.00000  Uiso   1.00
C133   C     0.40481   0.45670   0.17539   0.00000  Uiso   1.00
C134   C     0.09559   0.54439   0.16686   0.00000  Uiso   1.00
C135   C     0.45123   0.45577   0.17604   0.00000  Uiso   1.00
C136   C     0.04911   0.54476   0.16456   0.00000  Uiso   1.00
C137   C     0.47663   0.50002   0.16772   0.00000  Uiso   1.00
C138   C     0.02355   0.49953   0.16954   0.00000  Uiso   1.00
C139   C     0.45520   0.54467   0.15740   0.00000  Uiso   1.00
C140   C     0.04482   0.45358   0.17534   0.00000  Uiso   1.00
C141   C     0.47269   0.41158   0.18562   0.00000  Uiso   1.00
C142   C     0.02781   0.58954   0.15705   0.00000  Uiso   1.00
Cu143  Cu    0.25501   0.50579   0.22813   0.00000  Uiso   1.00
Cu144  Cu    0.24500   0.49421   0.10521   0.00000  Uiso   1.00
H145   H     0.03486   0.37567   0.19179   0.00000  Uiso   1.00
H146   H     0.46588   0.62437   0.14585   0.00000  Uiso   1.00
H147   H     0.21557   0.45863   0.31609   0.00000  Uiso   1.00
H148   H     0.28403   0.54172   0.01730   0.00000  Uiso   1.00
N149   N     0.23745   0.48547   0.01284   0.00000  Uiso   1.00
N150   N     0.26256   0.51453   0.32049   0.00000  Uiso   1.00
O151   O     0.25326   0.42871   0.20659   0.00000  Uiso   1.00
O152   O     0.24675   0.57129   0.12674   0.00000  Uiso   1.00
O153   O     0.24480   0.41892   0.10279   0.00000  Uiso   1.00
O154   O     0.25520   0.58108   0.23055   0.00000  Uiso   1.00
O155   O     0.18936   0.50488   0.21857   0.00000  Uiso   1.00
O156   O     0.31065   0.49512   0.11476   0.00000  Uiso   1.00
O157   O     0.18090   0.49510   0.11477   0.00000  Uiso   1.00
O158   O     0.31910   0.50490   0.21857   0.00000  Uiso   1.00
O159   O     0.38607   0.58626   0.14108   0.00000  Uiso   1.00
C160   C     0.38194   0.58242   0.07679   0.00000  Uiso   1.00
H161   H     0.36213   0.54576   0.05225   0.00000  Uiso   1.00
H162   H     0.41530   0.58264   0.05761   0.00000  Uiso   1.00
C163   C     0.35809   0.62933   0.06395   0.00000  Uiso   1.00
H164   H     0.37783   0.66646   0.08669   0.00000  Uiso   1.00
H165   H     0.35416   0.62645   0.01349   0.00000  Uiso   1.00
H166   H     0.32444   0.62998   0.08193   0.00000  Uiso   1.00
O167   O     0.11178   0.40480   0.16588   0.00000  Uiso   1.00
C168   C     0.11425   0.38189   0.10238   0.00000  Uiso   1.00
H169   H     0.13746   0.40610   0.08166   0.00000  Uiso   1.00
H170   H     0.08070   0.37790   0.07636   0.00000  Uiso   1.00
C171   C     0.13214   0.66068   0.09400   0.00000  Uiso   1.00
H172   H     0.10422   0.63088   0.09156   0.00000  Uiso   1.00
H173   H     0.14866   0.65053   0.05013   0.00000  Uiso   1.00
H174   H     0.15674   0.65915   0.13277   0.00000  Uiso   1.00
H175   H     0.38500   0.42345   0.18345   0.00000  Uiso   1.00
H176   H     0.11572   0.57946   0.16520   0.00000  Uiso   1.00
H177   H     0.45346   0.37804   0.19365   0.00000  Uiso   1.00
H178   H     0.04719   0.62429   0.15327   0.00000  Uiso   1.00
H179   H     0.24443   0.65340   0.09543   0.00000  Uiso   1.00
H180   H     0.25667   0.34670   0.23792   0.00000  Uiso   1.00
C181   C     0.74890   0.39991   0.15105   0.00000  Uiso   1.00
C182   C     0.75157   0.60012   0.18227   0.00000  Uiso   1.00
C183   C     0.51907   0.41019   0.18437   0.00000  Uiso   1.00
C184   C     0.98128   0.58940   0.15280   0.00000  Uiso   1.00
C185   C     0.74863   0.34399   0.14233   0.00000  Uiso   1.00
C186   C     0.75269   0.65612   0.19101   0.00000  Uiso   1.00
C187   C     0.66455   0.49886   0.16751   0.00000  Uiso   1.00
C188   C     0.83546   0.50050   0.16571   0.00000  Uiso   1.00
C189   C     0.90812   0.54354   0.15219   0.00000  Uiso   1.00
C190   C     0.59133   0.45192   0.17091   0.00000  Uiso   1.00
C191   C     0.88353   0.50014   0.16356   0.00000  Uiso   1.00
C192   C     0.61647   0.49838   0.16952   0.00000  Uiso   1.00
C193   C     0.90481   0.45670   0.17539   0.00000  Uiso   1.00
C194   C     0.59559   0.54439   0.16686   0.00000  Uiso   1.00
C195   C     0.95123   0.45577   0.17604   0.00000  Uiso   1.00
C196   C     0.54911   0.54476   0.16456   0.00000  Uiso   1.00
C197   C     0.97663   0.50002   0.16772   0.00000  Uiso   1.00
C198   C     0.52355   0.49953   0.16954   0.00000  Uiso   1.00
C199   C     0.95520   0.54467   0.15740   0.00000  Uiso   1.00
C200   C     0.54482   0.45358   0.17534   0.00000  Uiso   1.00
C201   C     0.97269   0.41158   0.18562   0.00000  Uiso   1.00
C202   C     0.52781   0.58954   0.15705   0.00000  Uiso   1.00
Cu203  Cu    0.75501   0.50579   0.22813   0.00000  Uiso   1.00
Cu204  Cu    0.74500   0.49421   0.10521   0.00000  Uiso   1.00
H205   H     0.53486   0.37567   0.19179   0.00000  Uiso   1.00
H206   H     0.96588   0.62437   0.14585   0.00000  Uiso   1.00
H207   H     0.71557   0.45863   0.31609   0.00000  Uiso   1.00
H208   H     0.78403   0.54172   0.01730   0.00000  Uiso   1.00
N209   N     0.73745   0.48547   0.01284   0.00000  Uiso   1.00
N210   N     0.76256   0.51453   0.32049   0.00000  Uiso   1.00
O211   O     0.75326   0.42871   0.20659   0.00000  Uiso   1.00
O212   O     0.74675   0.57129   0.12674   0.00000  Uiso   1.00
O213   O     0.74480   0.41892   0.10279   0.00000  Uiso   1.00
O214   O     0.75520   0.58108   0.23055   0.00000  Uiso   1.00
O215   O     0.68936   0.50488   0.21857   0.00000  Uiso   1.00
O216   O     0.81065   0.49512   0.11476   0.00000  Uiso   1.00
O217   O     0.68090   0.49510   0.11477   0.00000  Uiso   1.00
O218   O     0.81910   0.50490   0.21857   0.00000  Uiso   1.00
O219   O     0.88607   0.58626   0.14108   0.00000  Uiso   1.00
C220   C     0.88194   0.58242   0.07679   0.00000  Uiso   1.00
H221   H     0.86213   0.54576   0.05225   0.00000  Uiso   1.00
H222   H     0.91530   0.58264   0.05761   0.00000  Uiso   1.00
C223   C     0.85809   0.62933   0.06395   0.00000  Uiso   1.00
H224   H     0.87783   0.66646   0.08669   0.00000  Uiso   1.00
H225   H     0.85416   0.62645   0.01349   0.00000  Uiso   1.00
H226   H     0.82444   0.62998   0.08193   0.00000  Uiso   1.00
O227   O     0.61178   0.40480   0.16588   0.00000  Uiso   1.00
C228   C     0.61425   0.38189   0.10238   0.00000  Uiso   1.00
H229   H     0.63746   0.40610   0.08166   0.00000  Uiso   1.00
H230   H     0.58070   0.37790   0.07636   0.00000  Uiso   1.00
C231   C     0.63214   0.66068   0.09400   0.00000  Uiso   1.00
H232   H     0.60422   0.63088   0.09156   0.00000  Uiso   1.00
H233   H     0.64866   0.65053   0.05013   0.00000  Uiso   1.00
H234   H     0.65674   0.65915   0.13277   0.00000  Uiso   1.00
H235   H     0.88500   0.42345   0.18345   0.00000  Uiso   1.00
H236   H     0.61572   0.57946   0.16520   0.00000  Uiso   1.00
H237   H     0.95346   0.37804   0.19365   0.00000  Uiso   1.00
H238   H     0.54719   0.62429   0.15327   0.00000  Uiso   1.00
H239   H     0.74443   0.65340   0.09543   0.00000  Uiso   1.00
H240   H     0.75667   0.34670   0.23792   0.00000  Uiso   1.00
C241   C     0.24890   0.73324   0.15105   0.00000  Uiso   1.00
C242   C     0.25157   0.93346   0.18227   0.00000  Uiso   1.00
C243   C     0.01907   0.74353   0.18437   0.00000  Uiso   1.00
C244   C     0.48128   0.92273   0.15280   0.00000  Uiso   1.00
C245   C     0.24863   0.67732   0.14233   0.00000  Uiso   1.00
C246   C     0.25269   0.98945   0.19101   0.00000  Uiso   1.00
C247   C     0.16455   0.83220   0.16751   0.00000  Uiso   1.00
C248   C     0.33546   0.83384   0.16571   0.00000  Uiso   1.00
C249   C     0.40812   0.87687   0.15219   0.00000  Uiso   1.00
C250   C     0.09133   0.78525   0.17091   0.00000  Uiso   1.00
C251   C     0.38353   0.83348   0.16356   0.00000  Uiso   1.00
C252   C     0.11647   0.83171   0.16952   0.00000  Uiso   1.00
C253   C     0.40481   0.79003   0.17539   0.00000  Uiso   1.00
C254   C     0.09559   0.87773   0.16686   0.00000  Uiso   1.00
C255   C     0.45123   0.78910   0.17604   0.00000  Uiso   1.00
C256   C     0.04911   0.87810   0.16456   0.00000  Uiso   1.00
C257   C     0.47663   0.83335   0.16772   0.00000  Uiso   1.00
C258   C     0.02355   0.83287   0.16954   0.00000  Uiso   1.00
C259   C     0.45520   0.87800   0.15740   0.00000  Uiso   1.00
C260   C     0.04482   0.78692   0.17534   0.00000  Uiso   1.00
C261   C     0.47269   0.74491   0.18562   0.00000  Uiso   1.00
C262   C     0.02781   0.92287   0.15705   0.00000  Uiso   1.00
Cu263  Cu    0.25501   0.83913   0.22813   0.00000  Uiso   1.00
Cu264  Cu    0.24500   0.82754   0.10521   0.00000  Uiso   1.00
H265   H     0.03486   0.70900   0.19179   0.00000  Uiso   1.00
H266   H     0.46588   0.95770   0.14585   0.00000  Uiso   1.00
H267   H     0.21557   0.79197   0.31609   0.00000  Uiso   1.00
H268   H     0.28403   0.87505   0.01730   0.00000  Uiso   1.00
N269   N     0.23745   0.81881   0.01284   0.00000  Uiso   1.00
N270   N     0.26256   0.84786   0.32049   0.00000  Uiso   1.00
O271   O     0.25326   0.76204   0.20659   0.00000  Uiso   1.00
O272   O     0.24675   0.90462   0.12674   0.00000  Uiso   1.00
O273   O     0.24480   0.75226   0.10279   0.00000  Uiso   1.00
O274   O     0.25520   0.91441   0.23055   0.00000  Uiso   1.00
O275   O     0.18936   0.83821   0.21857   0.00000  Uiso   1.00
O276   O     0.31065   0.82845   0.11476   0.00000  Uiso   1.00
O277   O     0.18090   0.82843   0.11477   0.00000  Uiso   1.00
O278   O     0.31910   0.83824   0.21857   0.00000  Uiso   1.00
O279   O     0.38607   0.91959   0.14108   0.00000  Uiso   1.00
C280   C     0.38194   0.91575   0.07679   0.00000  Uiso   1.00
H281   H     0.36213   0.87909   0.05225   0.00000  Uiso   1.00
H282   H     0.41530   0.91597   0.05761   0.00000  Uiso   1.00
C283   C     0.35809   0.96267   0.06395   0.00000  Uiso   1.00
H284   H     0.37783   0.99980   0.08669   0.00000  Uiso   1.00
H285   H     0.35416   0.95978   0.01349   0.00000  Uiso   1.00
H286   H     0.32444   0.96331   0.08193   0.00000  Uiso   1.00
O287   O     0.11178   0.73813   0.16588   0.00000  Uiso   1.00
C288   C     0.11425   0.71522   0.10238   0.00000  Uiso   1.00
H289   H     0.13746   0.73943   0.08166   0.00000  Uiso   1.00
H290   H     0.08070   0.71123   0.07636   0.00000  Uiso   1.00
C291   C     0.13214   0.99401   0.09400   0.00000  Uiso   1.00
H292   H     0.10422   0.96422   0.09156   0.00000  Uiso   1.00
H293   H     0.14866   0.98386   0.05013   0.00000  Uiso   1.00
H294   H     0.15674   0.99248   0.13277   0.00000  Uiso   1.00
H295   H     0.38500   0.75679   0.18345   0.00000  Uiso   1.00
H296   H     0.11572   0.91279   0.16520   0.00000  Uiso   1.00
H297   H     0.45346   0.71137   0.19365   0.00000  Uiso   1.00
H298   H     0.04719   0.95762   0.15327   0.00000  Uiso   1.00
H299   H     0.24443   0.98673   0.09543   0.00000  Uiso   1.00
H300   H     0.25667   0.68004   0.23792   0.00000  Uiso   1.00
C301   C     0.74890   0.73324   0.15105   0.00000  Uiso   1.00
C302   C     0.75157   0.93346   0.18227   0.00000  Uiso   1.00
C303   C     0.51907   0.74353   0.18437   0.00000  Uiso   1.00
C304   C     0.98128   0.92273   0.15280   0.00000  Uiso   1.00
C305   C     0.74863   0.67732   0.14233   0.00000  Uiso   1.00
C306   C     0.75269   0.98945   0.19101   0.00000  Uiso   1.00
C307   C     0.66455   0.83220   0.16751   0.00000  Uiso   1.00
C308   C     0.83546   0.83384   0.16571   0.00000  Uiso   1.00
C309   C     0.90812   0.87687   0.15219   0.00000  Uiso   1.00
C310   C     0.59133   0.78525   0.17091   0.00000  Uiso   1.00
C311   C     0.88353   0.83348   0.16356   0.00000  Uiso   1.00
C312   C     0.61647   0.83171   0.16952   0.00000  Uiso   1.00
C313   C     0.90481   0.79003   0.17539   0.00000  Uiso   1.00
C314   C     0.59559   0.87773   0.16686   0.00000  Uiso   1.00
C315   C     0.95123   0.78910   0.17604   0.00000  Uiso   1.00
C316   C     0.54911   0.87810   0.16456   0.00000  Uiso   1.00
C317   C     0.97663   0.83335   0.16772   0.00000  Uiso   1.00
C318   C     0.52355   0.83287   0.16954   0.00000  Uiso   1.00
C319   C     0.95520   0.87800   0.15740   0.00000  Uiso   1.00
C320   C     0.54482   0.78692   0.17534   0.00000  Uiso   1.00
C321   C     0.97269   0.74491   0.18562   0.00000  Uiso   1.00
C322   C     0.52781   0.92287   0.15705   0.00000  Uiso   1.00
Cu323  Cu    0.75501   0.83913   0.22813   0.00000  Uiso   1.00
Cu324  Cu    0.74500   0.82754   0.10521   0.00000  Uiso   1.00
H325   H     0.53486   0.70900   0.19179   0.00000  Uiso   1.00
H326   H     0.96588   0.95770   0.14585   0.00000  Uiso   1.00
H327   H     0.71557   0.79197   0.31609   0.00000  Uiso   1.00
H328   H     0.78403   0.87505   0.01730   0.00000  Uiso   1.00
N329   N     0.73745   0.81881   0.01284   0.00000  Uiso   1.00
N330   N     0.76256   0.84786   0.32049   0.00000  Uiso   1.00
O331   O     0.75326   0.76204   0.20659   0.00000  Uiso   1.00
O332   O     0.74675   0.90462   0.12674   0.00000  Uiso   1.00
O333   O     0.74480   0.75226   0.10279   0.00000  Uiso   1.00
O334   O     0.75520   0.91441   0.23055   0.00000  Uiso   1.00
O335   O     0.68936   0.83821   0.21857   0.00000  Uiso   1.00
O336   O     0.81065   0.82845   0.11476   0.00000  Uiso   1.00
O337   O     0.68090   0.82843   0.11477   0.00000  Uiso   1.00
O338   O     0.81910   0.83824   0.21857   0.00000  Uiso   1.00
O339   O     0.88607   0.91959   0.14108   0.00000  Uiso   1.00
C340   C     0.88194   0.91575   0.07679   0.00000  Uiso   1.00
H341   H     0.86213   0.87909   0.05225   0.00000  Uiso   1.00
H342   H     0.91530   0.91597   0.05761   0.00000  Uiso   1.00
C343   C     0.85809   0.96267   0.06395   0.00000  Uiso   1.00
H344   H     0.87783   0.99980   0.08669   0.00000  Uiso   1.00
H345   H     0.85416   0.95978   0.01349   0.00000  Uiso   1.00
H346   H     0.82444   0.96331   0.08193   0.00000  Uiso   1.00
O347   O     0.61178   0.73813   0.16588   0.00000  Uiso   1.00
C348   C     0.61425   0.71522   0.10238   0.00000  Uiso   1.00
H349   H     0.63746   0.73943   0.08166   0.00000  Uiso   1.00
H350   H     0.58070   0.71123   0.07636   0.00000  Uiso   1.00
C351   C     0.63214   0.99401   0.09400   0.00000  Uiso   1.00
H352   H     0.60422   0.96422   0.09156   0.00000  Uiso   1.00
H353   H     0.64866   0.98386   0.05013   0.00000  Uiso   1.00
H354   H     0.65674   0.99248   0.13277   0.00000  Uiso   1.00
H355   H     0.88500   0.75679   0.18345   0.00000  Uiso   1.00
H356   H     0.61572   0.91279   0.16520   0.00000  Uiso   1.00
H357   H     0.95346   0.71137   0.19365   0.00000  Uiso   1.00
H358   H     0.54719   0.95762   0.15327   0.00000  Uiso   1.00
H359   H     0.74443   0.98673   0.09543   0.00000  Uiso   1.00
H360   H     0.75667   0.68004   0.23792   0.00000  Uiso   1.00
C361   C     0.24890   0.06658   0.48438   0.00000  Uiso   1.00
C362   C     0.25157   0.26679   0.51561   0.00000  Uiso   1.00
C363   C     0.01907   0.07686   0.51770   0.00000  Uiso   1.00
C364   C     0.48128   0.25606   0.48613   0.00000  Uiso   1.00
C365   C     0.24863   0.01065   0.47567   0.00000  Uiso   1.00
C366   C     0.25269   0.32279   0.52434   0.00000  Uiso   1.00
C367   C     0.16455   0.16553   0.50085   0.00000  Uiso   1.00
C368   C     0.33546   0.16717   0.49904   0.00000  Uiso   1.00
C369   C     0.40812   0.21021   0.48552   0.00000  Uiso   1.00
C370   C     0.09133   0.11859   0.50425   0.00000  Uiso   1.00
C371   C     0.38353   0.16681   0.49689   0.00000  Uiso   1.00
C372   C     0.11647   0.16504   0.50285   0.00000  Uiso   1.00
C373   C     0.40481   0.12336   0.50872   0.00000  Uiso   1.00
C374   C     0.09559   0.21106   0.50019   0.00000  Uiso   1.00
C375   C     0.45123   0.12243   0.50937   0.00000  Uiso   1.00
C376   C     0.04911   0.21143   0.49790   0.00000  Uiso   1.00
C377   C     0.47663   0.16668   0.50106   0.00000  Uiso   1.00
C378   C     0.02355   0.16620   0.50287   0.00000  Uiso   1.00
C379   C     0.45520   0.21133   0.49073   0.00000  Uiso   1.00
C380   C     0.04482   0.12025   0.50867   0.00000  Uiso   1.00
C381   C     0.47269   0.07825   0.51896   0.00000  Uiso   1.00
C382   C     0.02781   0.25620   0.49038   0.00000  Uiso   1.00
Cu383  Cu    0.25501   0.17246   0.56146   0.00000  Uiso   1.00
Cu384  Cu    0.24500   0.16087   0.43854   0.00000  Uiso   1.00
H385   H     0.03486   0.04233   0.52512   0.00000  Uiso   1.00
H386   H     0.46588   0.29104   0.47919   0.00000  Uiso   1.00
H387   H     0.21557   0.12530   0.64943   0.00000  Uiso   1.00
H388   H     0.28403   0.20839   0.35064   0.00000  Uiso   1.00
N389   N     0.23745   0.15214   0.34617   0.00000  Uiso   1.00
N390   N     0.26256   0.18119   0.65383   0.00000  Uiso   1.00
O391   O     0.25326   0.09538   0.53992   0.00000  Uiso   1.00
O392   O     0.24675   0.23796   0.46008   0.00000  Uiso   1.00
O393   O     0.24480   0.08559   0.43612   0.00000  Uiso   1.00
O394   O     0.25520   0.24774   0.56388   0.00000  Uiso   1.00
O395   O     0.18936   0.17155   0.55191   0.00000  Uiso   1.00
O396   O     0.31065   0.16179   0.44809   0.00000  Uiso   1.00
O397   O     0.18090   0.16176   0.44810   0.00000  Uiso   1.00
O398   O     0.31910   0.17157   0.55190   0.00000  Uiso   1.00
O399   O     0.38607   0.25292   0.47442   0.00000  Uiso   1.00
C400   C     0.38194   0.24909   0.41012   0.00000  Uiso   1.00
H401   H     0.36213   0.21242   0.38558   0.00000  Uiso   1.00
H402   H     0.41530   0.24931   0.39094   0.00000  Uiso   1.00
C403   C     0.35809   0.29600   0.39729   0.00000  Uiso   1.00
H404   H     0.37783   0.33313   0.42002   0.00000  Uiso   1.00
H405   H     0.35416   0.29311   0.34682   0.00000  Uiso   1.00
H406   H     0.32444   0.29664   0.41526   0.00000  Uiso   1.00
O407   O     0.11178   0.07147   0.49921   0.00000  Uiso   1.00
C408   C     0.11425   0.04855   0.43571   0.00000  Uiso   1.00
H409   H     0.13746   0.07277   0.41499   0.00000  Uiso   1.00
H410   H     0.08070   0.04457   0.40969   0.00000  Uiso   1.00
C411   C     0.13214   0.32735   0.42734   0.00000  Uiso   1.00
H412   H     0.10422   0.29755   0.42490   0.00000  Uiso   1.00
H413   H     0.14866   0.31719   0.38346   0.00000  Uiso   1.00
H414   H     0.15674   0.32581   0.46611   0.00000  Uiso   1.00
H415   H     0.38500   0.09012   0.51679   0.00000  Uiso   1.00
H416   H     0.11572   0.24612   0.49853   0.00000  Uiso   1.00
H417   H     0.45346   0.04470   0.52698   0.00000  Uiso   1.00
H418   H     0.04719   0.29095   0.48661   0.00000  Uiso   1.00
H419   H     0.24443   0.32007   0.42876   0.00000  Uiso   1.00
H420   H     0.25667   0.01337   0.57126   0.00000  Uiso   1.00
C421   C     0.74890   0.06658   0.48438   0.00000  Uiso   1.00
C422   C     0.75157   0.26679   0.51561   0.00000  Uiso   1.00
C423   C     0.51907   0.07686   0.51770   0.00000  Uiso   1.00
C424   C     0.98128   0.25606   0.48613   0.00000  Uiso   1.00
C425   C     0.74863   0.01065   0.47567   0.00000  Uiso   1.00
C426   C     0.75269   0.32279   0.52434   0.00000  Uiso   1.00
C427   C     0.66455   0.16553   0.50085   0.00000  Uiso   1.00
C428   C     0.83546   0.16717   0.49904   0.00000  Uiso   1.00
C429   C     0.90812   0.21021   0.48552   0.00000  Uiso   1.00
C430   C     0.59133   0.11859   0.50425   0.00000  Uiso   1.00
C431   C     0.88353   0.16681   0.49689   0.00000  Uiso   1.00
C432   C     0.61647   0.16504   0.50285   0.00000  Uiso   1.00
C433   C     0.90481   0.12336   0.50872   0.00000  Uiso   1.00
C434   C     0.59559   0.21106   0.50019   0.00000  Uiso   1.00
C435   C     0.95123   0.12243   0.50937   0.00000  Uiso   1.00
C436   C     0.54911   0.21143   0.49790   0.00000  Uiso   1.00
C437   C     0.97663   0.16668   0.50106   0.00000  Uiso   1.00
C438   C     0.52355   0.16620   0.50287   0.00000  Uiso   1.00
C439   C     0.95520   0.21133   0.49073   0.00000  Uiso   1.00
C440   C     0.54482   0.12025   0.50867   0.00000  Uiso   1.00
C441   C     0.97269   0.07825   0.51896   0.00000  Uiso   1.00
C442   C     0.52781   0.25620   0.49038   0.00000  Uiso   1.00
Cu443  Cu    0.75501   0.17246   0.56146   0.00000  Uiso   1.00
Cu444  Cu    0.74500   0.16087   0.43854   0.00000  Uiso   1.00
H445   H     0.53486   0.04233   0.52512   0.00000  Uiso   1.00
H446   H     0.96588   0.29104   0.47919   0.00000  Uiso   1.00
H447   H     0.71557   0.12530   0.64943   0.00000  Uiso   1.00
H448   H     0.78403   0.20839   0.35064   0.00000  Uiso   1.00
N449   N     0.73745   0.15214   0.34617   0.00000  Uiso   1.00
N450   N     0.76256   0.18119   0.65383   0.00000  Uiso   1.00
O451   O     0.75326   0.09538   0.53992   0.00000  Uiso   1.00
O452   O     0.74675   0.23796   0.46008   0.00000  Uiso   1.00
O453   O     0.74480   0.08559   0.43612   0.00000  Uiso   1.00
O454   O     0.75520   0.24774   0.56388   0.00000  Uiso   1.00
O455   O     0.68936   0.17155   0.55191   0.00000  Uiso   1.00
O456   O     0.81065   0.16179   0.44809   0.00000  Uiso   1.00
O457   O     0.68090   0.16176   0.44810   0.00000  Uiso   1.00
O458   O     0.81910   0.17157   0.55190   0.00000  Uiso   1.00
O459   O     0.88607   0.25292   0.47442   0.00000  Uiso   1.00
C460   C     0.88194   0.24909   0.41012   0.00000  Uiso   1.00
H461   H     0.86213   0.21242   0.38558   0.00000  Uiso   1.00
H462   H     0.91530   0.24931   0.39094   0.00000  Uiso   1.00
C463   C     0.85809   0.29600   0.39729   0.00000  Uiso   1.00
H464   H     0.87783   0.33313   0.42002   0.00000  Uiso   1.00
H465   H     0.85416   0.29311   0.34682   0.00000  Uiso   1.00
H466   H     0.82444   0.29664   0.41526   0.00000  Uiso   1.00
O467   O     0.61178   0.07147   0.49921   0.00000  Uiso   1.00
C468   C     0.61425   0.04855   0.43571   0.00000  Uiso   1.00
H469   H     0.63746   0.07277   0.41499   0.00000  Uiso   1.00
H470   H     0.58070   0.04457   0.40969   0.00000  Uiso   1.00
C471   C     0.63214   0.32735   0.42734   0.00000  Uiso   1.00
H472   H     0.60422   0.29755   0.42490   0.00000  Uiso   1.00
H473   H     0.64866   0.31719   0.38346   0.00000  Uiso   1.00
H474   H     0.65674   0.32581   0.46611   0.00000  Uiso   1.00
H475   H     0.88500   0.09012   0.51679   0.00000  Uiso   1.00
H476   H     0.61572   0.24612   0.49853   0.00000  Uiso   1.00
H477   H     0.95346   0.04470   0.52698   0.00000  Uiso   1.00
H478   H     0.54719   0.29095   0.48661   0.00000  Uiso   1.00
H479   H     0.74443   0.32007   0.42876   0.00000  Uiso   1.00
H480   H     0.75667   0.01337   0.57126   0.00000  Uiso   1.00
C481   C     0.24890   0.39991   0.48438   0.00000  Uiso   1.00
C482   C     0.25157   0.60012   0.51561   0.00000  Uiso   1.00
C483   C     0.01907   0.41019   0.51770   0.00000  Uiso   1.00
C484   C     0.48128   0.58940   0.48613   0.00000  Uiso   1.00
C485   C     0.24863   0.34399   0.47567   0.00000  Uiso   1.00
C486   C     0.25269   0.65612   0.52434   0.00000  Uiso   1.00
C487   C     0.16455   0.49886   0.50085   0.00000  Uiso   1.00
C488   C     0.33546   0.50050   0.49904   0.00000  Uiso   1.00
C489   C     0.40812   0.54354   0.48552   0.00000  Uiso   1.00
C490   C     0.09133   0.45192   0.50425   0.00000  Uiso   1.00
C491   C     0.38353   0.50014   0.49689   0.00000  Uiso   1.00
C492   C     0.11647   0.49838   0.50285   0.00000  Uiso   1.00
C493   C     0.40481   0.45670   0.50872   0.00000  Uiso   1.00
C494   C     0.09559   0.54439   0.50019   0.00000  Uiso   1.00
C495   C     0.45123   0.45577   0.50937   0.00000  Uiso   1.00
C496   C     0.04911   0.54476   0.49790   0.00000  Uiso   1.00
C497   C     0.47663   0.50002   0.50106   0.00000  Uiso   1.00
C498   C     0.02355   0.49953   0.50287   0.00000  Uiso   1.00
C499   C     0.45520   0.54467   0.49073   0.00000  Uiso   1.00
C500   C     0.04482   0.45358   0.50867   0.00000  Uiso   1.00
C501   C     0.47269   0.41158   0.51896   0.00000  Uiso   1.00
C502   C     0.02781   0.58954   0.49038   0.00000  Uiso   1.00
Cu503  Cu    0.25501   0.50579   0.56146   0.00000  Uiso   1.00
Cu504  Cu    0.24500   0.49421   0.43854   0.00000  Uiso   1.00
H505   H     0.03486   0.37567   0.52512   0.00000  Uiso   1.00
H506   H     0.46588   0.62437   0.47919   0.00000  Uiso   1.00
H507   H     0.21557   0.45863   0.64943   0.00000  Uiso   1.00
H508   H     0.28403   0.54172   0.35064   0.00000  Uiso   1.00
N509   N     0.23745   0.48547   0.34617   0.00000  Uiso   1.00
N510   N     0.26256   0.51453   0.65383   0.00000  Uiso   1.00
O511   O     0.25326   0.42871   0.53992   0.00000  Uiso   1.00
O512   O     0.24675   0.57129   0.46008   0.00000  Uiso   1.00
O513   O     0.24480   0.41892   0.43612   0.00000  Uiso   1.00
O514   O     0.25520   0.58108   0.56388   0.00000  Uiso   1.00
O515   O     0.18936   0.50488   0.55191   0.00000  Uiso   1.00
O516   O     0.31065   0.49512   0.44809   0.00000  Uiso   1.00
O517   O     0.18090   0.49510   0.44810   0.00000  Uiso   1.00
O518   O     0.31910   0.50490   0.55190   0.00000  Uiso   1.00
O519   O     0.38607   0.58626   0.47442   0.00000  Uiso   1.00
C520   C     0.38194   0.58242   0.41012   0.00000  Uiso   1.00
H521   H     0.36213   0.54576   0.38558   0.00000  Uiso   1.00
H522   H     0.41530   0.58264   0.39094   0.00000  Uiso   1.00
C523   C     0.35809   0.62933   0.39729   0.00000  Uiso   1.00
H524   H     0.37783   0.66646   0.42002   0.00000  Uiso   1.00
H525   H     0.35416   0.62645   0.34682   0.00000  Uiso   1.00
H526   H     0.32444   0.62998   0.41526   0.00000  Uiso   1.00
O527   O     0.11178   0.40480   0.49921   0.00000  Uiso   1.00
C528   C     0.11425   0.38189   0.43571   0.00000  Uiso   1.00
H529   H     0.13746   0.40610   0.41499   0.00000  Uiso   1.00
H530   H     0.08070   0.37790   0.40969   0.00000  Uiso   1.00
C531   C     0.13214   0.66068   0.42734   0.00000  Uiso   1.00
H532   H     0.10422   0.63088   0.42490   0.00000  Uiso   1.00
H533   H     0.14866   0.65053   0.38346   0.00000  Uiso   1.00
H534   H     0.15674   0.65915   0.46611   0.00000  Uiso   1.00
H535   H     0.38500   0.42345   0.51679   0.00000  Uiso   1.00
H536   H     0.11572   0.57946   0.49853   0.00000  Uiso   1.00
H537   H     0.45346   0.37804   0.52698   0.00000  Uiso   1.00
H538   H     0.04719   0.62429   0.48661   0.00000  Uiso   1.00
H539   H     0.24443   0.65340   0.42876   0.00000  Uiso   1.00
H540   H     0.25667   0.34670   0.57126   0.00000  Uiso   1.00
C541   C     0.74890   0.39991   0.48438   0.00000  Uiso   1.00
C542   C     0.75157   0.60012   0.51561   0.00000  Uiso   1.00
C543   C     0.51907   0.41019   0.51770   0.00000  Uiso   1.00
C544   C     0.98128   0.58940   0.48613   0.00000  Uiso   1.00
C545   C     0.74863   0.34399   0.47567   0.00000  Uiso   1.00
C546   C     0.75269   0.65612   0.52434   0.00000  Uiso   1.00
C547   C     0.66455   0.49886   0.50085   0.00000  Uiso   1.00
C548   C     0.83546   0.50050   0.49904   0.00000  Uiso   1.00
C549   C     0.90812   0.54354   0.48552   0.00000  Uiso   1.00
C550   C     0.59133   0.45192   0.50425   0.00000  Uiso   1.00
C551   C     0.88353   0.50014   0.49689   0.00000  Uiso   1.00
C552   C     0.61647   0.49838   0.50285   0.00000  Uiso   1.00
C553   C     0.90481   0.45670   0.50872   0.00000  Uiso   1.00
C554   C     0.59559   0.54439   0.50019   0.00000  Uiso   1.00
C555   C     0.95123   0.45577   0.50937   0.00000  Uiso   1.00
C556   C     0.54911   0.54476   0.49790   0.00000  Uiso   1.00
C557   C     0.97663   0.50002   0.50106   0.00000  Uiso   1.00
C558   C     0.52355   0.49953   0.50287   0.00000  Uiso   1.00
C559   C     0.95520   0.54467   0.49073   0.00000  Uiso   1.00
C560   C     0.54482   0.45358   0.50867   0.00000  Uiso   1.00
C561   C     0.97269   0.41158   0.51896   0.00000  Uiso   1.00
C562   C     0.52781   0.58954   0.49038   0.00000  Uiso   1.00
Cu563  Cu    0.75501   0.50579   0.56146   0.00000  Uiso   1.00
Cu564  Cu    0.74500   0.49421   0.43854   0.00000  Uiso   1.00
H565   H     0.53486   0.37567   0.52512   0.00000  Uiso   1.00
H566   H     0.96588   0.62437   0.47919   0.00000  Uiso   1.00
H567   H     0.71557   0.45863   0.64943   0.00000  Uiso   1.00
H568   H     0.78403   0.54172   0.35064   0.00000  Uiso   1.00
N569   N     0.73745   0.48547   0.34617   0.00000  Uiso   1.00
N570   N     0.76256   0.51453   0.65383   0.00000  Uiso   1.00
O571   O     0.75326   0.42871   0.53992   0.00000  Uiso   1.00
O572   O     0.74675   0.57129   0.46008   0.00000  Uiso   1.00
O573   O     0.74480   0.41892   0.43612   0.00000  Uiso   1.00
O574   O     0.75520   0.58108   0.56388   0.00000  Uiso   1.00
O575   O     0.68936   0.50488   0.55191   0.00000  Uiso   1.00
O576   O     0.81065   0.49512   0.44809   0.00000  Uiso   1.00
O577   O     0.68090   0.49510   0.44810   0.00000  Uiso   1.00
O578   O     0.81910   0.50490   0.55190   0.00000  Uiso   1.00
O579   O     0.88607   0.58626   0.47442   0.00000  Uiso   1.00
C580   C     0.88194   0.58242   0.41012   0.00000  Uiso   1.00
H581   H     0.86213   0.54576   0.38558   0.00000  Uiso   1.00
H582   H     0.91530   0.58264   0.39094   0.00000  Uiso   1.00
C583   C     0.85809   0.62933   0.39729   0.00000  Uiso   1.00
H584   H     0.87783   0.66646   0.42002   0.00000  Uiso   1.00
H585   H     0.85416   0.62645   0.34682   0.00000  Uiso   1.00
H586   H     0.82444   0.62998   0.41526   0.00000  Uiso   1.00
O587   O     0.61178   0.40480   0.49921   0.00000  Uiso   1.00
C588   C     0.61425   0.38189   0.43571   0.00000  Uiso   1.00
H589   H     0.63746   0.40610   0.41499   0.00000  Uiso   1.00
H590   H     0.58070   0.37790   0.40969   0.00000  Uiso   1.00
C591   C     0.63214   0.66068   0.42734   0.00000  Uiso   1.00
H592   H     0.60422   0.63088   0.42490   0.00000  Uiso   1.00
H593   H     0.64866   0.65053   0.38346   0.00000  Uiso   1.00
H594   H     0.65674   0.65915   0.46611   0.00000  Uiso   1.00
H595   H     0.88500   0.42345   0.51679   0.00000  Uiso   1.00
H596   H     0.61572   0.57946   0.49853   0.00000  Uiso   1.00
H597   H     0.95346   0.37804   0.52698   0.00000  Uiso   1.00
H598   H     0.54719   0.62429   0.48661   0.00000  Uiso   1.00
H599   H     0.74443   0.65340   0.42876   0.00000  Uiso   1.00
H600   H     0.75667   0.34670   0.57126   0.00000  Uiso   1.00
C601   C     0.24890   0.73324   0.48438   0.00000  Uiso   1.00
C602   C     0.25157   0.93346   0.51561   0.00000  Uiso   1.00
C603   C     0.01907   0.74353   0.51770   0.00000  Uiso   1.00
C604   C     0.48128   0.92273   0.48613   0.00000  Uiso   1.00
C605   C     0.24863   0.67732   0.47567   0.00000  Uiso   1.00
C606   C     0.25269   0.98945   0.52434   0.00000  Uiso   1.00
C607   C     0.16455   0.83220   0.50085   0.00000  Uiso   1.00
C608   C     0.33546   0.83384   0.49904   0.00000  Uiso   1.00
C609   C     0.40812   0.87687   0.48552   0.00000  Uiso   1.00
C610   C     0.09133   0.78525   0.50425   0.00000  Uiso   1.00
C611   C     0.38353   0.83348   0.49689   0.00000  Uiso   1.00
C612   C     0.11647   0.83171   0.50285   0.00000  Uiso   1.00
C613   C     0.40481   0.79003   0.50872   0.00000  Uiso   1.00
C614   C     0.09559   0.87773   0.50019   0.00000  Uiso   1.00
C615   C     0.45123   0.78910   0.50937   0.00000  Uiso   1.00
C616   C     0.04911   0.87810   0.49790   0.00000  Uiso   1.00
C617   C     0.47663   0.83335   0.50106   0.00000  Uiso   1.00
C618   C     0.02355   0.83287   0.50287   0.00000  Uiso   1.00
C619   C     0.45520   0.87800   0.49073   0.00000  Uiso   1.00
C620   C     0.04482   0.78692   0.50867   0.00000  Uiso   1.00
C621   C     0.47269   0.74491   0.51896   0.00000  Uiso   1.00
C622   C     0.02781   0.92287   0.49038   0.00000  Uiso   1.00
Cu623  Cu    0.25501   0.83913   0.56146   0.00000  Uiso   1.00
Cu624  Cu    0.24500   0.82754   0.43854   0.00000  Uiso   1.00
H625   H     0.03486   0.70900   0.52512   0.00000  Uiso   1.00
H626   H     0.46588   0.95770   0.47919   0.00000  Uiso   1.00
H627   H     0.21557   0.79197   0.64943   0.00000  Uiso   1.00
H628   H     0.28403   0.87505   0.35064   0.00000  Uiso   1.00
N629   N     0.23745   0.81881   0.34617   0.00000  Uiso   1.00
N630   N     0.26256   0.84786   0.65383   0.00000  Uiso   1.00
O631   O     0.25326   0.76204   0.53992   0.00000  Uiso   1.00
O632   O     0.24675   0.90462   0.46008   0.00000  Uiso   1.00
O633   O     0.24480   0.75226   0.43612   0.00000  Uiso   1.00
O634   O     0.25520   0.91441   0.56388   0.00000  Uiso   1.00
O635   O     0.18936   0.83821   0.55191   0.00000  Uiso   1.00
O636   O     0.31065   0.82845   0.44809   0.00000  Uiso   1.00
O637   O     0.18090   0.82843   0.44810   0.00000  Uiso   1.00
O638   O     0.31910   0.83824   0.55190   0.00000  Uiso   1.00
O639   O     0.38607   0.91959   0.47442   0.00000  Uiso   1.00
C640   C     0.38194   0.91575   0.41012   0.00000  Uiso   1.00
H641   H     0.36213   0.87909   0.38558   0.00000  Uiso   1.00
H642   H     0.41530   0.91597   0.39094   0.00000  Uiso   1.00
C643   C     0.35809   0.96267   0.39729   0.00000  Uiso   1.00
H644   H     0.37783   0.99980   0.42002   0.00000  Uiso   1.00
H645   H     0.35416   0.95978   0.34682   0.00000  Uiso   1.00
H646   H     0.32444   0.96331   0.41526   0.00000  Uiso   1.00
O647   O     0.11178   0.73813   0.49921   0.00000  Uiso   1.00
C648   C     0.11425   0.71522   0.43571   0.00000  Uiso   1.00
H649   H     0.13746   0.73943   0.41499   0.00000  Uiso   1.00
H650   H     0.08070   0.71123   0.40969   0.00000  Uiso   1.00
C651   C     0.13214   0.99401   0.42734   0.00000  Uiso   1.00
H652   H     0.10422   0.96422   0.42490   0.00000  Uiso   1.00
H653   H     0.14866   0.98386   0.38346   0.00000  Uiso   1.00
H654   H     0.15674   0.99248   0.46611   0.00000  Uiso   1.00
H655   H     0.38500   0.75679   0.51679   0.00000  Uiso   1.00
H656   H     0.11572   0.91279   0.49853   0.00000  Uiso   1.00
H657   H     0.45346   0.71137   0.52698   0.00000  Uiso   1.00
H658   H     0.04719   0.95762   0.48661   0.00000  Uiso   1.00
H659   H     0.24443   0.98673   0.42876   0.00000  Uiso   1.00
H660   H     0.25667   0.68004   0.57126   0.00000  Uiso   1.00
C661   C     0.74890   0.73324   0.48438   0.00000  Uiso   1.00
C662   C     0.75157   0.93346   0.51561   0.00000  Uiso   1.00
C663   C     0.51907   0.74353   0.51770   0.00000  Uiso   1.00
C664   C     0.98128   0.92273   0.48613   0.00000  Uiso   1.00
C665   C     0.74863   0.67732   0.47567   0.00000  Uiso   1.00
C666   C     0.75269   0.98945   0.52434   0.00000  Uiso   1.00
C667   C     0.66455   0.83220   0.50085   0.00000  Uiso   1.00
C668   C     0.83546   0.83384   0.49904   0.00000  Uiso   1.00
C669   C     0.90812   0.87687   0.48552   0.00000  Uiso   1.00
C670   C     0.59133   0.78525   0.50425   0.00000  Uiso   1.00
C671   C     0.88353   0.83348   0.49689   0.00000  Uiso   1.00
C672   C     0.61647   0.83171   0.50285   0.00000  Uiso   1.00
C673   C     0.90481   0.79003   0.50872   0.00000  Uiso   1.00
C674   C     0.59559   0.87773   0.50019   0.00000  Uiso   1.00
C675   C     0.95123   0.78910   0.50937   0.00000  Uiso   1.00
C676   C     0.54911   0.87810   0.49790   0.00000  Uiso   1.00
C677   C     0.97663   0.83335   0.50106   0.00000  Uiso   1.00
C678   C     0.52355   0.83287   0.50287   0.00000  Uiso   1.00
C679   C     0.95520   0.87800   0.49073   0.00000  Uiso   1.00
C680   C     0.54482   0.78692   0.50867   0.00000  Uiso   1.00
C681   C     0.97269   0.74491   0.51896   0.00000  Uiso   1.00
C682   C     0.52781   0.92287   0.49038   0.00000  Uiso   1.00
Cu683  Cu    0.75501   0.83913   0.56146   0.00000  Uiso   1.00
Cu684  Cu    0.74500   0.82754   0.43854   0.00000  Uiso   1.00
H685   H     0.53486   0.70900   0.52512   0.00000  Uiso   1.00
H686   H     0.96588   0.95770   0.47919   0.00000  Uiso   1.00
H687   H     0.71557   0.79197   0.64943   0.00000  Uiso   1.00
H688   H     0.78403   0.87505   0.35064   0.00000  Uiso   1.00
N689   N     0.73745   0.81881   0.34617   0.00000  Uiso   1.00
N690   N     0.76256   0.84786   0.65383   0.00000  Uiso   1.00
O691   O     0.75326   0.76204   0.53992   0.00000  Uiso   1.00
O692   O     0.74675   0.90462   0.46008   0.00000  Uiso   1.00
O693   O     0.74480   0.75226   0.43612   0.00000  Uiso   1.00
O694   O     0.75520   0.91441   0.56388   0.00000  Uiso   1.00
O695   O     0.68936   0.83821   0.55191   0.00000  Uiso   1.00
O696   O     0.81065   0.82845   0.44809   0.00000  Uiso   1.00
O697   O     0.68090   0.82843   0.44810   0.00000  Uiso   1.00
O698   O     0.81910   0.83824   0.55190   0.00000  Uiso   1.00
O699   O     0.88607   0.91959   0.47442   0.00000  Uiso   1.00
C700   C     0.88194   0.91575   0.41012   0.00000  Uiso   1.00
H701   H     0.86213   0.87909   0.38558   0.00000  Uiso   1.00
H702   H     0.91530   0.91597   0.39094   0.00000  Uiso   1.00
C703   C     0.85809   0.96267   0.39729   0.00000  Uiso   1.00
H704   H     0.87783   0.99980   0.42002   0.00000  Uiso   1.00
H705   H     0.85416   0.95978   0.34682   0.00000  Uiso   1.00
H706   H     0.82444   0.96331   0.41526   0.00000  Uiso   1.00
O707   O     0.61178   0.73813   0.49921   0.00000  Uiso   1.00
C708   C     0.61425   0.71522   0.43571   0.00000  Uiso   1.00
H709   H     0.63746   0.73943   0.41499   0.00000  Uiso   1.00
H710   H     0.58070   0.71123   0.40969   0.00000  Uiso   1.00
C711   C     0.63214   0.99401   0.42734   0.00000  Uiso   1.00
H712   H     0.60422   0.96422   0.42490   0.00000  Uiso   1.00
H713   H     0.64866   0.98386   0.38346   0.00000  Uiso   1.00
H714   H     0.65674   0.99248   0.46611   0.00000  Uiso   1.00
H715   H     0.88500   0.75679   0.51679   0.00000  Uiso   1.00
H716   H     0.61572   0.91279   0.49853   0.00000  Uiso   1.00
H717   H     0.95346   0.71137   0.52698   0.00000  Uiso   1.00
H718   H     0.54719   0.95762   0.48661   0.00000  Uiso   1.00
H719   H     0.74443   0.98673   0.42876   0.00000  Uiso   1.00
H720   H     0.75667   0.68004   0.57126   0.00000  Uiso   1.00
C721   C     0.24890   0.06658   0.81772   0.00000  Uiso   1.00
C722   C     0.25157   0.26679   0.84894   0.00000  Uiso   1.00
C723   C     0.01907   0.07686   0.85104   0.00000  Uiso   1.00
C724   C     0.48128   0.25606   0.81947   0.00000  Uiso   1.00
C725   C     0.24863   0.01065   0.80900   0.00000  Uiso   1.00
C726   C     0.25269   0.32279   0.85767   0.00000  Uiso   1.00
C727   C     0.16455   0.16553   0.83418   0.00000  Uiso   1.00
C728   C     0.33546   0.16717   0.83237   0.00000  Uiso   1.00
C729   C     0.40812   0.21021   0.81885   0.00000  Uiso   1.00
C730   C     0.09133   0.11859   0.83758   0.00000  Uiso   1.00
C731   C     0.38353   0.16681   0.83023   0.00000  Uiso   1.00
C732   C     0.11647   0.16504   0.83618   0.00000  Uiso   1.00
C733   C     0.40481   0.12336   0.84206   0.00000  Uiso   1.00
C734   C     0.09559   0.21106   0.83352   0.00000  Uiso   1.00
C735   C     0.45123   0.12243   0.84271   0.00000  Uiso   1.00
C736   C     0.04911   0.21143   0.83123   0.00000  Uiso   1.00
C737   C     0.47663   0.16668   0.83439   0.00000  Uiso   1.00
C738   C     0.02355   0.16620   0.83620   0.00000  Uiso   1.00
C739   C     0.45520   0.21133   0.82406   0.00000  Uiso   1.00
C740   C     0.04482   0.12025   0.84201   0.00000  Uiso   1.00
C741   C     0.47269   0.07825   0.85229   0.00000  Uiso   1.00
C742   C     0.02781   0.25620   0.82372   0.00000  Uiso   1.00
Cu743  Cu    0.25501   0.17246   0.89479   0.00000  Uiso   1.00
Cu744  Cu    0.24500   0.16087   0.77187   0.00000  Uiso   1.00
H745   H     0.03486   0.04233   0.85846   0.00000  Uiso   1.00
H746   H     0.46588   0.29104   0.81252   0.00000  Uiso   1.00
H747   H     0.21557   0.12530   0.98276   0.00000  Uiso   1.00
H748   H     0.28403   0.20839   0.68397   0.00000  Uiso   1.00
N749   N     0.23745   0.15214   0.67951   0.00000  Uiso   1.00
N750   N     0.26256   0.18119   0.98716   0.00000  Uiso   1.00
O751   O     0.25326   0.09538   0.87326   0.00000  Uiso   1.00
O752   O     0.24675   0.23796   0.79341   0.00000  Uiso   1.00
O753   O     0.24480   0.08559   0.76945   0.00000  Uiso   1.00
O754   O     0.25520   0.24774   0.89721   0.00000  Uiso   1.00
O755   O     0.18936   0.17155   0.88524   0.00000  Uiso   1.00
O756   O     0.31065   0.16179   0.78143   0.00000  Uiso   1.00
O757   O     0.18090   0.16176   0.78143   0.00000  Uiso   1.00
O758   O     0.31910   0.17157   0.88523   0.00000  Uiso   1.00
O759   O     0.38607   0.25292   0.80775   0.00000  Uiso   1.00
C760   C     0.38194   0.24909   0.74345   0.00000  Uiso   1.00
H761   H     0.36213   0.21242   0.71891   0.00000  Uiso   1.00
H762   H     0.41530   0.24931   0.72427   0.00000  Uiso   1.00
C763   C     0.35809   0.29600   0.73062   0.00000  Uiso   1.00
H764   H     0.37783   0.33313   0.75335   0.00000  Uiso   1.00
H765   H     0.35416   0.29311   0.68016   0.00000  Uiso   1.00
H766   H     0.32444   0.29664   0.74860   0.00000  Uiso   1.00
O767   O     0.11178   0.07147   0.83255   0.00000  Uiso   1.00
C768   C     0.11425   0.04855   0.76905   0.00000  Uiso   1.00
H769   H     0.13746   0.07277   0.74833   0.00000  Uiso   1.00
H770   H     0.08070   0.04457   0.74302   0.00000  Uiso   1.00
C771   C     0.13214   0.32735   0.76067   0.00000  Uiso   1.00
H772   H     0.10422   0.29755   0.75823   0.00000  Uiso   1.00
H773   H     0.14866   0.31719   0.71679   0.00000  Uiso   1.00
H774   H     0.15674   0.32581   0.79944   0.00000  Uiso   1.00
H775   H     0.38500   0.09012   0.85012   0.00000  Uiso   1.00
H776   H     0.11572   0.24612   0.83186   0.00000  Uiso   1.00
H777   H     0.45346   0.04470   0.86031   0.00000  Uiso   1.00
H778   H     0.04719   0.29095   0.81994   0.00000  Uiso   1.00
H779   H     0.24443   0.32007   0.76209   0.00000  Uiso   1.00
H780   H     0.25667   0.01337   0.90459   0.00000  Uiso   1.00
C781   C     0.74890   0.06658   0.81772   0.00000  Uiso   1.00
C782   C     0.75157   0.26679   0.84894   0.00000  Uiso   1.00
C783   C     0.51907   0.07686   0.85104   0.00000  Uiso   1.00
C784   C     0.98128   0.25606   0.81947   0.00000  Uiso   1.00
C785   C     0.74863   0.01065   0.80900   0.00000  Uiso   1.00
C786   C     0.75269   0.32279   0.85767   0.00000  Uiso   1.00
C787   C     0.66455   0.16553   0.83418   0.00000  Uiso   1.00
C788   C     0.83546   0.16717   0.83237   0.00000  Uiso   1.00
C789   C     0.90812   0.21021   0.81885   0.00000  Uiso   1.00
C790   C     0.59133   0.11859   0.83758   0.00000  Uiso   1.00
C791   C     0.88353   0.16681   0.83023   0.00000  Uiso   1.00
C792   C     0.61647   0.16504   0.83618   0.00000  Uiso   1.00
C793   C     0.90481   0.12336   0.84206   0.00000  Uiso   1.00
C794   C     0.59559   0.21106   0.83352   0.00000  Uiso   1.00
C795   C     0.95123   0.12243   0.84271   0.00000  Uiso   1.00
C796   C     0.54911   0.21143   0.83123   0.00000  Uiso   1.00
C797   C     0.97663   0.16668   0.83439   0.00000  Uiso   1.00
C798   C     0.52355   0.16620   0.83620   0.00000  Uiso   1.00
C799   C     0.95520   0.21133   0.82406   0.00000  Uiso   1.00
C800   C     0.54482   0.12025   0.84201   0.00000  Uiso   1.00
C801   C     0.97269   0.07825   0.85229   0.00000  Uiso   1.00
C802   C     0.52781   0.25620   0.82372   0.00000  Uiso   1.00
Cu803  Cu    0.75501   0.17246   0.89479   0.00000  Uiso   1.00
Cu804  Cu    0.74500   0.16087   0.77187   0.00000  Uiso   1.00
H805   H     0.53486   0.04233   0.85846   0.00000  Uiso   1.00
H806   H     0.96588   0.29104   0.81252   0.00000  Uiso   1.00
H807   H     0.71557   0.12530   0.98276   0.00000  Uiso   1.00
H808   H     0.78403   0.20839   0.68397   0.00000  Uiso   1.00
N809   N     0.73745   0.15214   0.67951   0.00000  Uiso   1.00
N810   N     0.76256   0.18119   0.98716   0.00000  Uiso   1.00
O811   O     0.75326   0.09538   0.87326   0.00000  Uiso   1.00
O812   O     0.74675   0.23796   0.79341   0.00000  Uiso   1.00
O813   O     0.74480   0.08559   0.76945   0.00000  Uiso   1.00
O814   O     0.75520   0.24774   0.89721   0.00000  Uiso   1.00
O815   O     0.68936   0.17155   0.88524   0.00000  Uiso   1.00
O816   O     0.81065   0.16179   0.78143   0.00000  Uiso   1.00
O817   O     0.68090   0.16176   0.78143   0.00000  Uiso   1.00
O818   O     0.81910   0.17157   0.88523   0.00000  Uiso   1.00
O819   O     0.88607   0.25292   0.80775   0.00000  Uiso   1.00
C820   C     0.88194   0.24909   0.74345   0.00000  Uiso   1.00
H821   H     0.86213   0.21242   0.71891   0.00000  Uiso   1.00
H822   H     0.91530   0.24931   0.72427   0.00000  Uiso   1.00
C823   C     0.85809   0.29600   0.73062   0.00000  Uiso   1.00
H824   H     0.87783   0.33313   0.75335   0.00000  Uiso   1.00
H825   H     0.85416   0.29311   0.68016   0.00000  Uiso   1.00
H826   H     0.82444   0.29664   0.74860   0.00000  Uiso   1.00
O827   O     0.61178   0.07147   0.83255   0.00000  Uiso   1.00
C828   C     0.61425   0.04855   0.76905   0.00000  Uiso   1.00
H829   H     0.63746   0.07277   0.74833   0.00000  Uiso   1.00
H830   H     0.58070   0.04457   0.74302   0.00000  Uiso   1.00
C831   C     0.63214   0.32735   0.76067   0.00000  Uiso   1.00
H832   H     0.60422   0.29755   0.75823   0.00000  Uiso   1.00
H833   H     0.64866   0.31719   0.71679   0.00000  Uiso   1.00
H834   H     0.65674   0.32581   0.79944   0.00000  Uiso   1.00
H835   H     0.88500   0.09012   0.85012   0.00000  Uiso   1.00
H836   H     0.61572   0.24612   0.83186   0.00000  Uiso   1.00
H837   H     0.95346   0.04470   0.86031   0.00000  Uiso   1.00
H838   H     0.54719   0.29095   0.81994   0.00000  Uiso   1.00
H839   H     0.74443   0.32007   0.76209   0.00000  Uiso   1.00
H840   H     0.75667   0.01337   0.90459   0.00000  Uiso   1.00
C841   C     0.24890   0.39991   0.81772   0.00000  Uiso   1.00
C842   C     0.25157   0.60012   0.84894   0.00000  Uiso   1.00
C843   C     0.01907   0.41019   0.85104   0.00000  Uiso   1.00
C844   C     0.48128   0.58940   0.81947   0.00000  Uiso   1.00
C845   C     0.24863   0.34399   0.80900   0.00000  Uiso   1.00
C846   C     0.25269   0.65612   0.85767   0.00000  Uiso   1.00
C847   C     0.16455   0.49886   0.83418   0.00000  Uiso   1.00
C848   C     0.33546   0.50050   0.83237   0.00000  Uiso   1.00
C849   C     0.40812   0.54354   0.81885   0.00000  Uiso   1.00
C850   C     0.09133   0.45192   0.83758   0.00000  Uiso   1.00
C851   C     0.38353   0.50014   0.83023   0.00000  Uiso   1.00
C852   C     0.11647   0.49838   0.83618   0.00000  Uiso   1.00
C853   C     0.40481   0.45670   0.84206   0.00000  Uiso   1.00
C854   C     0.09559   0.54439   0.83352   0.00000  Uiso   1.00
C855   C     0.45123   0.45577   0.84271   0.00000  Uiso   1.00
C856   C     0.04911   0.54476   0.83123   0.00000  Uiso   1.00
C857   C     0.47663   0.50002   0.83439   0.00000  Uiso   1.00
C858   C     0.02355   0.49953   0.83620   0.00000  Uiso   1.00
C859   C     0.45520   0.54467   0.82406   0.00000  Uiso   1.00
C860   C     0.04482   0.45358   0.84201   0.00000  Uiso   1.00
C861   C     0.47269   0.41158   0.85229   0.00000  Uiso   1.00
C862   C     0.02781   0.58954   0.82372   0.00000  Uiso   1.00
Cu863  Cu    0.25501   0.50579   0.89479   0.00000  Uiso   1.00
Cu864  Cu    0.24500   0.49421   0.77187   0.00000  Uiso   1.00
H865   H     0.03486   0.37567   0.85846   0.00000  Uiso   1.00
H866   H     0.46588   0.62437   0.81252   0.00000  Uiso   1.00
H867   H     0.21557   0.45863   0.98276   0.00000  Uiso   1.00
H868   H     0.28403   0.54172   0.68397   0.00000  Uiso   1.00
N869   N     0.23745   0.48547   0.67951   0.00000  Uiso   1.00
N870   N     0.26256   0.51453   0.98716   0.00000  Uiso   1.00
O871   O     0.25326   0.42871   0.87326   0.00000  Uiso   1.00
O872   O     0.24675   0.57129   0.79341   0.00000  Uiso   1.00
O873   O     0.24480   0.41892   0.76945   0.00000  Uiso   1.00
O874   O     0.25520   0.58108   0.89721   0.00000  Uiso   1.00
O875   O     0.18936   0.50488   0.88524   0.00000  Uiso   1.00
O876   O     0.31065   0.49512   0.78143   0.00000  Uiso   1.00
O877   O     0.18090   0.49510   0.78143   0.00000  Uiso   1.00
O878   O     0.31910   0.50490   0.88523   0.00000  Uiso   1.00
O879   O     0.38607   0.58626   0.80775   0.00000  Uiso   1.00
C880   C     0.38194   0.58242   0.74345   0.00000  Uiso   1.00
H881   H     0.36213   0.54576   0.71891   0.00000  Uiso   1.00
H882   H     0.41530   0.58264   0.72427   0.00000  Uiso   1.00
C883   C     0.35809   0.62933   0.73062   0.00000  Uiso   1.00
H884   H     0.37783   0.66646   0.75335   0.00000  Uiso   1.00
H885   H     0.35416   0.62645   0.68016   0.00000  Uiso   1.00
H886   H     0.32444   0.62998   0.74860   0.00000  Uiso   1.00
O887   O     0.11178   0.40480   0.83255   0.00000  Uiso   1.00
C888   C     0.11425   0.38189   0.76905   0.00000  Uiso   1.00
H889   H     0.13746   0.40610   0.74833   0.00000  Uiso   1.00
H890   H     0.08070   0.37790   0.74302   0.00000  Uiso   1.00
C891   C     0.13214   0.66068   0.76067   0.00000  Uiso   1.00
H892   H     0.10422   0.63088   0.75823   0.00000  Uiso   1.00
H893   H     0.14866   0.65053   0.71679   0.00000  Uiso   1.00
H894   H     0.15674   0.65915   0.79944   0.00000  Uiso   1.00
H895   H     0.38500   0.42345   0.85012   0.00000  Uiso   1.00
H896   H     0.11572   0.57946   0.83186   0.00000  Uiso   1.00
H897   H     0.45346   0.37804   0.86031   0.00000  Uiso   1.00
H898   H     0.04719   0.62429   0.81994   0.00000  Uiso   1.00
H899   H     0.24443   0.65340   0.76209   0.00000  Uiso   1.00
H900   H     0.25667   0.34670   0.90459   0.00000  Uiso   1.00
C901   C     0.74890   0.39991   0.81772   0.00000  Uiso   1.00
C902   C     0.75157   0.60012   0.84894   0.00000  Uiso   1.00
C903   C     0.51907   0.41019   0.85104   0.00000  Uiso   1.00
C904   C     0.98128   0.58940   0.81947   0.00000  Uiso   1.00
C905   C     0.74863   0.34399   0.80900   0.00000  Uiso   1.00
C906   C     0.75269   0.65612   0.85767   0.00000  Uiso   1.00
C907   C     0.66455   0.49886   0.83418   0.00000  Uiso   1.00
C908   C     0.83546   0.50050   0.83237   0.00000  Uiso   1.00
C909   C     0.90812   0.54354   0.81885   0.00000  Uiso   1.00
C910   C     0.59133   0.45192   0.83758   0.00000  Uiso   1.00
C911   C     0.88353   0.50014   0.83023   0.00000  Uiso   1.00
C912   C     0.61647   0.49838   0.83618   0.00000  Uiso   1.00
C913   C     0.90481   0.45670   0.84206   0.00000  Uiso   1.00
C914   C     0.59559   0.54439   0.83352   0.00000  Uiso   1.00
C915   C     0.95123   0.45577   0.84271   0.00000  Uiso   1.00
C916   C     0.54911   0.54476   0.83123   0.00000  Uiso   1.00
C917   C     0.97663   0.50002   0.83439   0.00000  Uiso   1.00
C918   C     0.52355   0.49953   0.83620   0.00000  Uiso   1.00
C919   C     0.95520   0.54467   0.82406   0.00000  Uiso   1.00
C920   C     0.54482   0.45358   0.84201   0.00000  Uiso   1.00
C921   C     0.97269   0.41158   0.85229   0.00000  Uiso   1.00
C922   C     0.52781   0.58954   0.82372   0.00000  Uiso   1.00
Cu923  Cu    0.75501   0.50579   0.89479   0.00000  Uiso   1.00
Cu924  Cu    0.74500   0.49421   0.77187   0.00000  Uiso   1.00
H925   H     0.53486   0.37567   0.85846   0.00000  Uiso   1.00
H926   H     0.96588   0.62437   0.81252   0.00000  Uiso   1.00
H927   H     0.71557   0.45863   0.98276   0.00000  Uiso   1.00
H928   H     0.78403   0.54172   0.68397   0.00000  Uiso   1.00
N929   N     0.73745   0.48547   0.67951   0.00000  Uiso   1.00
N930   N     0.76256   0.51453   0.98716   0.00000  Uiso   1.00
O931   O     0.75326   0.42871   0.87326   0.00000  Uiso   1.00
O932   O     0.74675   0.57129   0.79341   0.00000  Uiso   1.00
O933   O     0.74480   0.41892   0.76945   0.00000  Uiso   1.00
O934   O     0.75520   0.58108   0.89721   0.00000  Uiso   1.00
O935   O     0.68936   0.50488   0.88524   0.00000  Uiso   1.00
O936   O     0.81065   0.49512   0.78143   0.00000  Uiso   1.00
O937   O     0.68090   0.49510   0.78143   0.00000  Uiso   1.00
O938   O     0.81910   0.50490   0.88523   0.00000  Uiso   1.00
O939   O     0.88607   0.58626   0.80775   0.00000  Uiso   1.00
C940   C     0.88194   0.58242   0.74345   0.00000  Uiso   1.00
H941   H     0.86213   0.54576   0.71891   0.00000  Uiso   1.00
H942   H     0.91530   0.58264   0.72427   0.00000  Uiso   1.00
C943   C     0.85809   0.62933   0.73062   0.00000  Uiso   1.00
H944   H     0.87783   0.66646   0.75335   0.00000  Uiso   1.00
H945   H     0.85416   0.62645   0.68016   0.00000  Uiso   1.00
H946   H     0.82444   0.62998   0.74860   0.00000  Uiso   1.00
O947   O     0.61178   0.40480   0.83255   0.00000  Uiso   1.00
C948   C     0.61425   0.38189   0.76905   0.00000  Uiso   1.00
H949   H     0.63746   0.40610   0.74833   0.00000  Uiso   1.00
H950   H     0.58070   0.37790   0.74302   0.00000  Uiso   1.00
C951   C     0.63214   0.66068   0.76067   0.00000  Uiso   1.00
H952   H     0.60422   0.63088   0.75823   0.00000  Uiso   1.00
H953   H     0.64866   0.65053   0.71679   0.00000  Uiso   1.00
H954   H     0.65674   0.65915   0.79944   0.00000  Uiso   1.00
H955   H     0.88500   0.42345   0.85012   0.00000  Uiso   1.00
H956   H     0.61572   0.57946   0.83186   0.00000  Uiso   1.00
H957   H     0.95346   0.37804   0.86031   0.00000  Uiso   1.00
H958   H     0.54719   0.62429   0.81994   0.00000  Uiso   1.00
H959   H     0.74443   0.65340   0.76209   0.00000  Uiso   1.00
H960   H     0.75667   0.34670   0.90459   0.00000  Uiso   1.00
C961   C     0.24890   0.73324   0.81772   0.00000  Uiso   1.00
C962   C     0.25157   0.93346   0.84894   0.00000  Uiso   1.00
C963   C     0.01907   0.74353   0.85104   0.00000  Uiso   1.00
C964   C     0.48128   0.92273   0.81947   0.00000  Uiso   1.00
C965   C     0.24863   0.67732   0.80900   0.00000  Uiso   1.00
C966   C     0.25269   0.98945   0.85767   0.00000  Uiso   1.00
C967   C     0.16455   0.83220   0.83418   0.00000  Uiso   1.00
C968   C     0.33546   0.83384   0.83237   0.00000  Uiso   1.00
C969   C     0.40812   0.87687   0.81885   0.00000  Uiso   1.00
C970   C     0.09133   0.78525   0.83758   0.00000  Uiso   1.00
C971   C     0.38353   0.83348   0.83023   0.00000  Uiso   1.00
C972   C     0.11647   0.83171   0.83618   0.00000  Uiso   1.00
C973   C     0.40481   0.79003   0.84206   0.00000  Uiso   1.00
C974   C     0.09559   0.87773   0.83352   0.00000  Uiso   1.00
C975   C     0.45123   0.78910   0.84271   0.00000  Uiso   1.00
C976   C     0.04911   0.87810   0.83123   0.00000  Uiso   1.00
C977   C     0.47663   0.83335   0.83439   0.00000  Uiso   1.00
C978   C     0.02355   0.83287   0.83620   0.00000  Uiso   1.00
C979   C     0.45520   0.87800   0.82406   0.00000  Uiso   1.00
C980   C     0.04482   0.78692   0.84201   0.00000  Uiso   1.00
C981   C     0.47269   0.74491   0.85229   0.00000  Uiso   1.00
C982   C     0.02781   0.92287   0.82372   0.00000  Uiso   1.00
Cu983  Cu    0.25501   0.83913   0.89479   0.00000  Uiso   1.00
Cu984  Cu    0.24500   0.82754   0.77187   0.00000  Uiso   1.00
H985   H     0.03486   0.70900   0.85846   0.00000  Uiso   1.00
H986   H     0.46588   0.95770   0.81252   0.00000  Uiso   1.00
H987   H     0.21557   0.79197   0.98276   0.00000  Uiso   1.00
H988   H     0.28403   0.87505   0.68397   0.00000  Uiso   1.00
N989   N     0.23745   0.81881   0.67951   0.00000  Uiso   1.00
N990   N     0.26256   0.84786   0.98716   0.00000  Uiso   1.00
O991   O     0.25326   0.76204   0.87326   0.00000  Uiso   1.00
O992   O     0.24675   0.90462   0.79341   0.00000  Uiso   1.00
O993   O     0.24480   0.75226   0.76945   0.00000  Uiso   1.00
O994   O     0.25520   0.91441   0.89721   0.00000  Uiso   1.00
O995   O     0.18936   0.83821   0.88524   0.00000  Uiso   1.00
O996   O     0.31065   0.82845   0.78143   0.00000  Uiso   1.00
O997   O     0.18090   0.82843   0.78143   0.00000  Uiso   1.00
O998   O     0.31910   0.83824   0.88523   0.00000  Uiso   1.00
O999   O     0.38607   0.91959   0.80775   0.00000  Uiso   1.00
C1000  C     0.38194   0.91575   0.74345   0.00000  Uiso   1.00
H1001  H     0.36213   0.87909   0.71891   0.00000  Uiso   1.00
H1002  H     0.41530   0.91597   0.72427   0.00000  Uiso   1.00
C1003  C     0.35809   0.96267   0.73062   0.00000  Uiso   1.00
H1004  H     0.37783   0.99980   0.75335   0.00000  Uiso   1.00
H1005  H     0.35416   0.95978   0.68016   0.00000  Uiso   1.00
H1006  H     0.32444   0.96331   0.74860   0.00000  Uiso   1.00
O1007  O     0.11178   0.73813   0.83255   0.00000  Uiso   1.00
C1008  C     0.11425   0.71522   0.76905   0.00000  Uiso   1.00
H1009  H     0.13746   0.73943   0.74833   0.00000  Uiso   1.00
H1010  H     0.08070   0.71123   0.74302   0.00000  Uiso   1.00
C1011  C     0.13214   0.99401   0.76067   0.00000  Uiso   1.00
H1012  H     0.10422   0.96422   0.75823   0.00000  Uiso   1.00
H1013  H     0.14866   0.98386   0.71679   0.00000  Uiso   1.00
H1014  H     0.15674   0.99248   0.79944   0.00000  Uiso   1.00
H1015  H     0.38500   0.75679   0.85012   0.00000  Uiso   1.00
H1016  H     0.11572   0.91279   0.83186   0.00000  Uiso   1.00
H1017  H     0.45346   0.71137   0.86031   0.00000  Uiso   1.00
H1018  H     0.04719   0.95762   0.81994   0.00000  Uiso   1.00
H1019  H     0.24443   0.98673   0.76209   0.00000  Uiso   1.00
H1020  H     0.25667   0.68004   0.90459   0.00000  Uiso   1.00
C1021  C     0.74890   0.73324   0.81772   0.00000  Uiso   1.00
C1022  C     0.75157   0.93346   0.84894   0.00000  Uiso   1.00
C1023  C     0.51907   0.74353   0.85104   0.00000  Uiso   1.00
C1024  C     0.98128   0.92273   0.81947   0.00000  Uiso   1.00
C1025  C     0.74863   0.67732   0.80900   0.00000  Uiso   1.00
C1026  C     0.75269   0.98945   0.85767   0.00000  Uiso   1.00
C1027  C     0.66455   0.83220   0.83418   0.00000  Uiso   1.00
C1028  C     0.83546   0.83384   0.83237   0.00000  Uiso   1.00
C1029  C     0.90812   0.87687   0.81885   0.00000  Uiso   1.00
C1030  C     0.59133   0.78525   0.83758   0.00000  Uiso   1.00
C1031  C     0.88353   0.83348   0.83023   0.00000  Uiso   1.00
C1032  C     0.61647   0.83171   0.83618   0.00000  Uiso   1.00
C1033  C     0.90481   0.79003   0.84206   0.00000  Uiso   1.00
C1034  C     0.59559   0.87773   0.83352   0.00000  Uiso   1.00
C1035  C     0.95123   0.78910   0.84271   0.00000  Uiso   1.00
C1036  C     0.54911   0.87810   0.83123   0.00000  Uiso   1.00
C1037  C     0.97663   0.83335   0.83439   0.00000  Uiso   1.00
C1038  C     0.52355   0.83287   0.83620   0.00000  Uiso   1.00
C1039  C     0.95520   0.87800   0.82406   0.00000  Uiso   1.00
C1040  C     0.54482   0.78692   0.84201   0.00000  Uiso   1.00
C1041  C     0.97269   0.74491   0.85229   0.00000  Uiso   1.00
C1042  C     0.52781   0.92287   0.82372   0.00000  Uiso   1.00
Cu1043 Cu    0.75501   0.83913   0.89479   0.00000  Uiso   1.00
Cu1044 Cu    0.74500   0.82754   0.77187   0.00000  Uiso   1.00
H1045  H     0.53486   0.70900   0.85846   0.00000  Uiso   1.00
H1046  H     0.96588   0.95770   0.81252   0.00000  Uiso   1.00
H1047  H     0.71557   0.79197   0.98276   0.00000  Uiso   1.00
H1048  H     0.78403   0.87505   0.68397   0.00000  Uiso   1.00
N1049  N     0.73745   0.81881   0.67951   0.00000  Uiso   1.00
N1050  N     0.76256   0.84786   0.98716   0.00000  Uiso   1.00
O1051  O     0.75326   0.76204   0.87326   0.00000  Uiso   1.00
O1052  O     0.74675   0.90462   0.79341   0.00000  Uiso   1.00
O1053  O     0.74480   0.75226   0.76945   0.00000  Uiso   1.00
O1054  O     0.75520   0.91441   0.89721   0.00000  Uiso   1.00
O1055  O     0.68936   0.83821   0.88524   0.00000  Uiso   1.00
O1056  O     0.81065   0.82845   0.78143   0.00000  Uiso   1.00
O1057  O     0.68090   0.82843   0.78143   0.00000  Uiso   1.00
O1058  O     0.81910   0.83824   0.88523   0.00000  Uiso   1.00
O1059  O     0.88607   0.91959   0.80775   0.00000  Uiso   1.00
C1060  C     0.88194   0.91575   0.74345   0.00000  Uiso   1.00
H1061  H     0.86213   0.87909   0.71891   0.00000  Uiso   1.00
H1062  H     0.91530   0.91597   0.72427   0.00000  Uiso   1.00
C1063  C     0.85809   0.96267   0.73062   0.00000  Uiso   1.00
H1064  H     0.87783   0.99980   0.75335   0.00000  Uiso   1.00
H1065  H     0.85416   0.95978   0.68016   0.00000  Uiso   1.00
H1066  H     0.82444   0.96331   0.74860   0.00000  Uiso   1.00
O1067  O     0.61178   0.73813   0.83255   0.00000  Uiso   1.00
C1068  C     0.61425   0.71522   0.76905   0.00000  Uiso   1.00
H1069  H     0.63746   0.73943   0.74833   0.00000  Uiso   1.00
H1070  H     0.58070   0.71123   0.74302   0.00000  Uiso   1.00
C1071  C     0.63214   0.99401   0.76067   0.00000  Uiso   1.00
H1072  H     0.60422   0.96422   0.75823   0.00000  Uiso   1.00
H1073  H     0.64866   0.98386   0.71679   0.00000  Uiso   1.00
H1074  H     0.65674   0.99248   0.79944   0.00000  Uiso   1.00
H1075  H     0.88500   0.75679   0.85012   0.00000  Uiso   1.00
H1076  H     0.61572   0.91279   0.83186   0.00000  Uiso   1.00
H1077  H     0.95346   0.71137   0.86031   0.00000  Uiso   1.00
H1078  H     0.54719   0.95762   0.81994   0.00000  Uiso   1.00
H1079  H     0.74443   0.98673   0.76209   0.00000  Uiso   1.00
H1080  H     0.75667   0.68004   0.90459   0.00000  Uiso   1.00
loop_
_geom_bond_atom_site_label_1
_geom_bond_atom_site_label_2
_geom_bond_distance
_geom_bond_site_symmetry_2
_ccdc_geom_bond_type
C1     O33     1.287   .     A
C1     C5      1.430   .     S
C1     O31     1.292   .     A
C2     O34     1.287   .     A
C2     C6      1.431   .     S
C2     O32     1.292   .     A
C3     C20     1.403   .     A
C3     H25     1.079   .     S
C3     C81     1.394   1_455 S
C4     C19     1.404   .     A
C4     H26     1.080   .     S
C4     C82     1.391   .     S
C5     C246    1.329   1_545 S
C5     H299    1.087   1_545 S
C6     C125    1.329   .     S
C6     H180    1.088   .     S
C7     O37     1.291   .     A
C7     C12     1.444   .     S
C7     O35     1.294   .     A
C8     O38     1.291   .     A
C8     C11     1.444   .     S
C8     O36     1.294   .     A
C9     C11     1.405   .     A
C9     O39     1.385   .     S
C9     C19     1.406   .     A
C10    C12     1.407   .     A
C10    O47     1.386   .     S
C10    C20     1.405   .     A
C11    C13     1.396   .     A
C12    C14     1.393   .     A
C13    C15     1.391   .     A
C13    H55     1.085   .     S
C14    H56     1.083   .     S
C14    C16     1.391   .     A
C15    C21     1.399   .     A
C15    C17     1.410   .     A
C16    C18     1.409   .     A
C16    C22     1.396   .     A
C17    C19     1.414   .     A
C17    C78     1.404   .     S
C18    C20     1.413   .     A
C18    C77     1.404   1_455 S
C21    H57     1.083   .     S
C21    C63     1.394   .     S
C22    H58     1.078   .     S
C22    C64     1.391   1_455 S
Cu23   O38     1.946   .     S
Cu23   Cu24    2.688   .     S
Cu23   O34     1.957   .     S
Cu23   O35     1.963   .     S
Cu23   N30     2.020   .     S
Cu23   O31     1.961   .     S
Cu24   O32     1.961   .     S
Cu24   O33     1.957   .     S
Cu24   O37     1.946   .     S
Cu24   O36     1.963   .     S
Cu24   N29     2.020   .     S
H27    N389    1.029   .     S
H28    N750    1.028   1_554 S
N29    H747    1.029   1_554 S
N29    N750    1.294   1_554 S
N30    N389    1.294   .     S
N30    H388    1.028   .     S
O39    C40     1.414   .     S
C40    C43     1.520   .     S
C40    H41     1.113   .     S
C40    H42     1.113   .     S
C43    H44     1.111   .     S
C43    H45     1.111   .     S
C43    H46     1.109   .     S
O47    C48     1.417   .     S
C48    H50     1.116   .     S
C48    H49     1.111   .     S
C48    C291    1.523   1_545 S
C51    H54     1.109   .     S
C51    H52     1.107   .     S
C51    H53     1.111   .     S
C51    C168    1.523   .     S
H59    C125    1.087   .     S
H60    C246    1.088   1_545 S
C61    O93     1.287   .     A
C61    C65     1.430   .     S
C61    O91     1.292   .     A
C62    O94     1.287   .     A
C62    C66     1.431   .     S
C62    O92     1.292   .     A
C63    C80     1.403   .     A
C63    H85     1.079   .     S
C64    C79     1.404   .     A
C64    H86     1.080   .     S
C64    C22     1.391   1_655 S
C65    C306    1.329   1_545 S
C65    H359    1.087   1_545 S
C66    C185    1.329   .     S
C66    H240    1.088   .     S
C67    O97     1.291   .     A
C67    C72     1.444   .     S
C67    O95     1.294   .     A
C68    O98     1.291   .     A
C68    C71     1.444   .     S
C68    O96     1.294   .     A
C69    C71     1.405   .     A
C69    O99     1.385   .     S
C69    C79     1.406   .     A
C70    C72     1.407   .     A
C70    O107    1.386   .     S
C70    C80     1.405   .     A
C71    C73     1.396   .     A
C72    C74     1.393   .     A
C73    C75     1.391   .     A
C73    H115    1.085   .     S
C74    H116    1.083   .     S
C74    C76     1.391   .     A
C75    C81     1.399   .     A
C75    C77     1.410   .     A
C76    C78     1.409   .     A
C76    C82     1.396   .     A
C77    C79     1.414   .     A
C77    C18     1.404   1_655 S
C78    C80     1.413   .     A
C81    H117    1.083   .     S
C81    C3      1.394   1_655 S
C82    H118    1.078   .     S
Cu83   O98     1.946   .     S
Cu83   Cu84    2.688   .     S
Cu83   O94     1.957   .     S
Cu83   O95     1.963   .     S
Cu83   N90     2.020   .     S
Cu83   O91     1.961   .     S
Cu84   O92     1.961   .     S
Cu84   O93     1.957   .     S
Cu84   O97     1.946   .     S
Cu84   O96     1.963   .     S
Cu84   N89     2.020   .     S
H87    N449    1.029   .     S
H88    N810    1.028   1_554 S
N89    H807    1.029   1_554 S
N89    N810    1.294   1_554 S
N90    N449    1.294   .     S
N90    H448    1.028   .     S
O99    C100    1.414   .     S
C100   C103    1.520   .     S
C100   H101    1.113   .     S
C100   H102    1.113   .     S
C103   H104    1.111   .     S
C103   H105    1.111   .     S
C103   H106    1.109   .     S
O107   C108    1.417   .     S
C108   H110    1.116   .     S
C108   H109    1.111   .     S
C108   C351    1.523   1_545 S
C111   H114    1.109   .     S
C111   H112    1.107   .     S
C111   H113    1.111   .     S
C111   C228    1.523   .     S
H119   C185    1.087   .     S
H120   C306    1.088   1_545 S
C121   O153    1.287   .     A
C121   C125    1.430   .     S
C121   O151    1.292   .     A
C122   O154    1.287   .     A
C122   C126    1.431   .     S
C122   O152    1.292   .     A
C123   C140    1.403   .     A
C123   H145    1.079   .     S
C123   C201    1.394   1_455 S
C124   C139    1.404   .     A
C124   H146    1.080   .     S
C124   C202    1.391   .     S
C126   C245    1.329   .     S
C126   H300    1.088   .     S
C127   O157    1.291   .     A
C127   C132    1.444   .     S
C127   O155    1.294   .     A
C128   O158    1.291   .     A
C128   C131    1.444   .     S
C128   O156    1.294   .     A
C129   C131    1.405   .     A
C129   O159    1.385   .     S
C129   C139    1.406   .     A
C130   C132    1.407   .     A
C130   O167    1.386   .     S
C130   C140    1.405   .     A
C131   C133    1.396   .     A
C132   C134    1.393   .     A
C133   C135    1.391   .     A
C133   H175    1.085   .     S
C134   H176    1.083   .     S
C134   C136    1.391   .     A
C135   C141    1.399   .     A
C135   C137    1.410   .     A
C136   C138    1.409   .     A
C136   C142    1.396   .     A
C137   C139    1.414   .     A
C137   C198    1.404   .     S
C138   C140    1.413   .     A
C138   C197    1.404   1_455 S
C141   H177    1.083   .     S
C141   C183    1.394   .     S
C142   H178    1.078   .     S
C142   C184    1.391   1_455 S
Cu143  O158    1.946   .     S
Cu143  Cu144   2.688   .     S
Cu143  O154    1.957   .     S
Cu143  O155    1.963   .     S
Cu143  N150    2.020   .     S
Cu143  O151    1.961   .     S
Cu144  O152    1.961   .     S
Cu144  O153    1.957   .     S
Cu144  O157    1.946   .     S
Cu144  O156    1.963   .     S
Cu144  N149    2.020   .     S
H147   N509    1.029   .     S
H148   N870    1.028   1_554 S
N149   H867    1.029   1_554 S
N149   N870    1.294   1_554 S
N150   N509    1.294   .     S
N150   H508    1.028   .     S
O159   C160    1.414   .     S
C160   C163    1.520   .     S
C160   H161    1.113   .     S
C160   H162    1.113   .     S
C163   H164    1.111   .     S
C163   H165    1.111   .     S
C163   H166    1.109   .     S
O167   C168    1.417   .     S
C168   H170    1.116   .     S
C168   H169    1.111   .     S
C171   H174    1.109   .     S
C171   H172    1.107   .     S
C171   H173    1.111   .     S
C171   C288    1.523   .     S
H179   C245    1.087   .     S
C181   O213    1.287   .     A
C181   C185    1.430   .     S
C181   O211    1.292   .     A
C182   O214    1.287   .     A
C182   C186    1.431   .     S
C182   O212    1.292   .     A
C183   C200    1.403   .     A
C183   H205    1.079   .     S
C184   C199    1.404   .     A
C184   H206    1.080   .     S
C184   C142    1.391   1_655 S
C186   C305    1.329   .     S
C186   H360    1.088   .     S
C187   O217    1.291   .     A
C187   C192    1.444   .     S
C187   O215    1.294   .     A
C188   O218    1.291   .     A
C188   C191    1.444   .     S
C188   O216    1.294   .     A
C189   C191    1.405   .     A
C189   O219    1.385   .     S
C189   C199    1.406   .     A
C190   C192    1.407   .     A
C190   O227    1.386   .     S
C190   C200    1.405   .     A
C191   C193    1.396   .     A
C192   C194    1.393   .     A
C193   C195    1.391   .     A
C193   H235    1.085   .     S
C194   H236    1.083   .     S
C194   C196    1.391   .     A
C195   C201    1.399   .     A
C195   C197    1.410   .     A
C196   C198    1.409   .     A
C196   C202    1.396   .     A
C197   C199    1.414   .     A
C197   C138    1.404   1_655 S
C198   C200    1.413   .     A
C201   H237    1.083   .     S
C201   C123    1.394   1_655 S
C202   H238    1.078   .     S
Cu203  O218    1.946   .     S
Cu203  Cu204   2.688   .     S
Cu203  O214    1.957   .     S
Cu203  O215    1.963   .     S
Cu203  N210    2.020   .     S
Cu203  O211    1.961   .     S
Cu204  O212    1.961   .     S
Cu204  O213    1.957   .     S
Cu204  O217    1.946   .     S
Cu204  O216    1.963   .     S
Cu204  N209    2.020   .     S
H207   N569    1.029   .     S
H208   N930    1.028   1_554 S
N209   H927    1.029   1_554 S
N209   N930    1.294   1_554 S
N210   N569    1.294   .     S
N210   H568    1.028   .     S
O219   C220    1.414   .     S
C220   C223    1.520   .     S
C220   H221    1.113   .     S
C220   H222    1.113   .     S
C223   H224    1.111   .     S
C223   H225    1.111   .     S
C223   H226    1.109   .     S
O227   C228    1.417   .     S
C228   H230    1.116   .     S
C228   H229    1.111   .     S
C231   H234    1.109   .     S
C231   H232    1.107   .     S
C231   H233    1.111   .     S
C231   C348    1.523   .     S
H239   C305    1.087   .     S
C241   O273    1.287   .     A
C241   C245    1.430   .     S
C241   O271    1.292   .     A
C242   O274    1.287   .     A
C242   C246    1.431   .     S
C242   O272    1.292   .     A
C243   C260    1.403   .     A
C243   H265    1.079   .     S
C243   C321    1.394   1_455 S
C244   C259    1.404   .     A
C244   H266    1.080   .     S
C244   C322    1.391   .     S
C246   C5      1.329   1_565 S
C246   H60     1.088   1_565 S
C247   O277    1.291   .     A
C247   C252    1.444   .     S
C247   O275    1.294   .     A
C248   O278    1.291   .     A
C248   C251    1.444   .     S
C248   O276    1.294   .     A
C249   C251    1.405   .     A
C249   O279    1.385   .     S
C249   C259    1.406   .     A
C250   C252    1.407   .     A
C250   O287    1.386   .     S
C250   C260    1.405   .     A
C251   C253    1.396   .     A
C252   C254    1.393   .     A
C253   C255    1.391   .     A
C253   H295    1.085   .     S
C254   H296    1.083   .     S
C254   C256    1.391   .     A
C255   C261    1.399   .     A
C255   C257    1.410   .     A
C256   C258    1.409   .     A
C256   C262    1.396   .     A
C257   C259    1.414   .     A
C257   C318    1.404   .     S
C258   C260    1.413   .     A
C258   C317    1.404   1_455 S
C261   H297    1.083   .     S
C261   C303    1.394   .     S
C262   H298    1.078   .     S
C262   C304    1.391   1_455 S
Cu263  O278    1.946   .     S
Cu263  Cu264   2.688   .     S
Cu263  O274    1.957   .     S
Cu263  O275    1.963   .     S
Cu263  N270    2.020   .     S
Cu263  O271    1.961   .     S
Cu264  O272    1.961   .     S
Cu264  O273    1.957   .     S
Cu264  O277    1.946   .     S
Cu264  O276    1.963   .     S
Cu264  N269    2.020   .     S
H267   N629    1.029   .     S
H268   N990    1.028   1_554 S
N269   H987    1.029   1_554 S
N269   N990    1.294   1_554 S
N270   N629    1.294   .     S
N270   H628    1.028   .     S
O279   C280    1.414   .     S
C280   C283    1.520   .     S
C280   H281    1.113   .     S
C280   H282    1.113   .     S
C283   H284    1.111   .     S
C283   H285    1.111   .     S
C283   H286    1.109   .     S
O287   C288    1.417   .     S
C288   H290    1.116   .     S
C288   H289    1.111   .     S
C291   H294    1.109   .     S
C291   H292    1.107   .     S
C291   H293    1.111   .     S
C291   C48     1.523   1_565 S
H299   C5      1.087   1_565 S
C301   O333    1.287   .     A
C301   C305    1.430   .     S
C301   O331    1.292   .     A
C302   O334    1.287   .     A
C302   C306    1.431   .     S
C302   O332    1.292   .     A
C303   C320    1.403   .     A
C303   H325    1.079   .     S
C304   C319    1.404   .     A
C304   H326    1.080   .     S
C304   C262    1.391   1_655 S
C306   C65     1.329   1_565 S
C306   H120    1.088   1_565 S
C307   O337    1.291   .     A
C307   C312    1.444   .     S
C307   O335    1.294   .     A
C308   O338    1.291   .     A
C308   C311    1.444   .     S
C308   O336    1.294   .     A
C309   C311    1.405   .     A
C309   O339    1.385   .     S
C309   C319    1.406   .     A
C310   C312    1.407   .     A
C310   O347    1.386   .     S
C310   C320    1.405   .     A
C311   C313    1.396   .     A
C312   C314    1.393   .     A
C313   C315    1.391   .     A
C313   H355    1.085   .     S
C314   H356    1.083   .     S
C314   C316    1.391   .     A
C315   C321    1.399   .     A
C315   C317    1.410   .     A
C316   C318    1.409   .     A
C316   C322    1.396   .     A
C317   C319    1.414   .     A
C317   C258    1.404   1_655 S
C318   C320    1.413   .     A
C321   H357    1.083   .     S
C321   C243    1.394   1_655 S
C322   H358    1.078   .     S
Cu323  O338    1.946   .     S
Cu323  Cu324   2.688   .     S
Cu323  O334    1.957   .     S
Cu323  O335    1.963   .     S
Cu323  N330    2.020   .     S
Cu323  O331    1.961   .     S
Cu324  O332    1.961   .     S
Cu324  O333    1.957   .     S
Cu324  O337    1.946   .     S
Cu324  O336    1.963   .     S
Cu324  N329    2.020   .     S
H327   N689    1.029   .     S
H328   N1050   1.028   1_554 S
N329   H1047   1.029   1_554 S
N329   N1050   1.294   1_554 S
N330   N689    1.294   .     S
N330   H688    1.028   .     S
O339   C340    1.414   .     S
C340   C343    1.520   .     S
C340   H341    1.113   .     S
C340   H342    1.113   .     S
C343   H344    1.111   .     S
C343   H345    1.111   .     S
C343   H346    1.109   .     S
O347   C348    1.417   .     S
C348   H350    1.116   .     S
C348   H349    1.111   .     S
C351   H354    1.109   .     S
C351   H352    1.107   .     S
C351   H353    1.111   .     S
C351   C108    1.523   1_565 S
H359   C65     1.087   1_565 S
C361   O393    1.287   .     A
C361   C365    1.430   .     S
C361   O391    1.292   .     A
C362   O394    1.287   .     A
C362   C366    1.431   .     S
C362   O392    1.292   .     A
C363   C380    1.403   .     A
C363   H385    1.079   .     S
C363   C441    1.394   1_455 S
C364   C379    1.404   .     A
C364   H386    1.080   .     S
C364   C442    1.391   .     S
C365   C606    1.329   1_545 S
C365   H659    1.087   1_545 S
C366   C485    1.329   .     S
C366   H540    1.088   .     S
C367   O397    1.291   .     A
C367   C372    1.444   .     S
C367   O395    1.294   .     A
C368   O398    1.291   .     A
C368   C371    1.444   .     S
C368   O396    1.294   .     A
C369   C371    1.405   .     A
C369   O399    1.385   .     S
C369   C379    1.406   .     A
C370   C372    1.407   .     A
C370   O407    1.386   .     S
C370   C380    1.405   .     A
C371   C373    1.396   .     A
C372   C374    1.393   .     A
C373   C375    1.391   .     A
C373   H415    1.085   .     S
C374   H416    1.083   .     S
C374   C376    1.391   .     A
C375   C381    1.399   .     A
C375   C377    1.410   .     A
C376   C378    1.409   .     A
C376   C382    1.396   .     A
C377   C379    1.414   .     A
C377   C438    1.404   .     S
C378   C380    1.413   .     A
C378   C437    1.404   1_455 S
C381   H417    1.083   .     S
C381   C423    1.394   .     S
C382   H418    1.078   .     S
C382   C424    1.391   1_455 S
Cu383  O398    1.946   .     S
Cu383  Cu384   2.688   .     S
Cu383  O394    1.957   .     S
Cu383  O395    1.963   .     S
Cu383  N390    2.020   .     S
Cu383  O391    1.961   .     S
Cu384  O392    1.961   .     S
Cu384  O393    1.957   .     S
Cu384  O397    1.946   .     S
Cu384  O396    1.963   .     S
Cu384  N389    2.020   .     S
H387   N749    1.029   .     S
N390   N749    1.294   .     S
N390   H748    1.028   .     S
O399   C400    1.414   .     S
C400   C403    1.520   .     S
C400   H401    1.113   .     S
C400   H402    1.113   .     S
C403   H404    1.111   .     S
C403   H405    1.111   .     S
C403   H406    1.109   .     S
O407   C408    1.417   .     S
C408   H410    1.116   .     S
C408   H409    1.111   .     S
C408   C651    1.523   1_545 S
C411   H414    1.109   .     S
C411   H412    1.107   .     S
C411   H413    1.111   .     S
C411   C528    1.523   .     S
H419   C485    1.087   .     S
H420   C606    1.088   1_545 S
C421   O453    1.287   .     A
C421   C425    1.430   .     S
C421   O451    1.292   .     A
C422   O454    1.287   .     A
C422   C426    1.431   .     S
C422   O452    1.292   .     A
C423   C440    1.403   .     A
C423   H445    1.079   .     S
C424   C439    1.404   .     A
C424   H446    1.080   .     S
C424   C382    1.391   1_655 S
C425   C666    1.329   1_545 S
C425   H719    1.087   1_545 S
C426   C545    1.329   .     S
C426   H600    1.088   .     S
C427   O457    1.291   .     A
C427   C432    1.444   .     S
C427   O455    1.294   .     A
C428   O458    1.291   .     A
C428   C431    1.444   .     S
C428   O456    1.294   .     A
C429   C431    1.405   .     A
C429   O459    1.385   .     S
C429   C439    1.406   .     A
C430   C432    1.407   .     A
C430   O467    1.386   .     S
C430   C440    1.405   .     A
C431   C433    1.396   .     A
C432   C434    1.393   .     A
C433   C435    1.391   .     A
C433   H475    1.085   .     S
C434   H476    1.083   .     S
C434   C436    1.391   .     A
C435   C441    1.399   .     A
C435   C437    1.410   .     A
C436   C438    1.409   .     A
C436   C442    1.396   .     A
C437   C439    1.414   .     A
C437   C378    1.404   1_655 S
C438   C440    1.413   .     A
C441   H477    1.083   .     S
C441   C363    1.394   1_655 S
C442   H478    1.078   .     S
Cu443  O458    1.946   .     S
Cu443  Cu444   2.688   .     S
Cu443  O454    1.957   .     S
Cu443  O455    1.963   .     S
Cu443  N450    2.020   .     S
Cu443  O451    1.961   .     S
Cu444  O452    1.961   .     S
Cu444  O453    1.957   .     S
Cu444  O457    1.946   .     S
Cu444  O456    1.963   .     S
Cu444  N449    2.020   .     S
H447   N809    1.029   .     S
N450   N809    1.294   .     S
N450   H808    1.028   .     S
O459   C460    1.414   .     S
C460   C463    1.520   .     S
C460   H461    1.113   .     S
C460   H462    1.113   .     S
C463   H464    1.111   .     S
C463   H465    1.111   .     S
C463   H466    1.109   .     S
O467   C468    1.417   .     S
C468   H470    1.116   .     S
C468   H469    1.111   .     S
C468   C711    1.523   1_545 S
C471   H474    1.109   .     S
C471   H472    1.107   .     S
C471   H473    1.111   .     S
C471   C588    1.523   .     S
H479   C545    1.087   .     S
H480   C666    1.088   1_545 S
C481   O513    1.287   .     A
C481   C485    1.430   .     S
C481   O511    1.292   .     A
C482   O514    1.287   .     A
C482   C486    1.431   .     S
C482   O512    1.292   .     A
C483   C500    1.403   .     A
C483   H505    1.079   .     S
C483   C561    1.394   1_455 S
C484   C499    1.404   .     A
C484   H506    1.080   .     S
C484   C562    1.391   .     S
C486   C605    1.329   .     S
C486   H660    1.088   .     S
C487   O517    1.291   .     A
C487   C492    1.444   .     S
C487   O515    1.294   .     A
C488   O518    1.291   .     A
C488   C491    1.444   .     S
C488   O516    1.294   .     A
C489   C491    1.405   .     A
C489   O519    1.385   .     S
C489   C499    1.406   .     A
C490   C492    1.407   .     A
C490   O527    1.386   .     S
C490   C500    1.405   .     A
C491   C493    1.396   .     A
C492   C494    1.393   .     A
C493   C495    1.391   .     A
C493   H535    1.085   .     S
C494   H536    1.083   .     S
C494   C496    1.391   .     A
C495   C501    1.399   .     A
C495   C497    1.410   .     A
C496   C498    1.409   .     A
C496   C502    1.396   .     A
C497   C499    1.414   .     A
C497   C558    1.404   .     S
C498   C500    1.413   .     A
C498   C557    1.404   1_455 S
C501   H537    1.083   .     S
C501   C543    1.394   .     S
C502   H538    1.078   .     S
C502   C544    1.391   1_455 S
Cu503  O518    1.946   .     S
Cu503  Cu504   2.688   .     S
Cu503  O514    1.957   .     S
Cu503  O515    1.963   .     S
Cu503  N510    2.020   .     S
Cu503  O511    1.961   .     S
Cu504  O512    1.961   .     S
Cu504  O513    1.957   .     S
Cu504  O517    1.946   .     S
Cu504  O516    1.963   .     S
Cu504  N509    2.020   .     S
H507   N869    1.029   .     S
N510   N869    1.294   .     S
N510   H868    1.028   .     S
O519   C520    1.414   .     S
C520   C523    1.520   .     S
C520   H521    1.113   .     S
C520   H522    1.113   .     S
C523   H524    1.111   .     S
C523   H525    1.111   .     S
C523   H526    1.109   .     S
O527   C528    1.417   .     S
C528   H530    1.116   .     S
C528   H529    1.111   .     S
C531   H534    1.109   .     S
C531   H532    1.107   .     S
C531   H533    1.111   .     S
C531   C648    1.523   .     S
H539   C605    1.087   .     S
C541   O573    1.287   .     A
C541   C545    1.430   .     S
C541   O571    1.292   .     A
C542   O574    1.287   .     A
C542   C546    1.431   .     S
C542   O572    1.292   .     A
C543   C560    1.403   .     A
C543   H565    1.079   .     S
C544   C559    1.404   .     A
C544   H566    1.080   .     S
C544   C502    1.391   1_655 S
C546   C665    1.329   .     S
C546   H720    1.088   .     S
C547   O577    1.291   .     A
C547   C552    1.444   .     S
C547   O575    1.294   .     A
C548   O578    1.291   .     A
C548   C551    1.444   .     S
C548   O576    1.294   .     A
C549   C551    1.405   .     A
C549   O579    1.385   .     S
C549   C559    1.406   .     A
C550   C552    1.407   .     A
C550   O587    1.386   .     S
C550   C560    1.405   .     A
C551   C553    1.396   .     A
C552   C554    1.393   .     A
C553   C555    1.391   .     A
C553   H595    1.085   .     S
C554   H596    1.083   .     S
C554   C556    1.391   .     A
C555   C561    1.399   .     A
C555   C557    1.410   .     A
C556   C558    1.409   .     A
C556   C562    1.396   .     A
C557   C559    1.414   .     A
C557   C498    1.404   1_655 S
C558   C560    1.413   .     A
C561   H597    1.083   .     S
C561   C483    1.394   1_655 S
C562   H598    1.078   .     S
Cu563  O578    1.946   .     S
Cu563  Cu564   2.688   .     S
Cu563  O574    1.957   .     S
Cu563  O575    1.963   .     S
Cu563  N570    2.020   .     S
Cu563  O571    1.961   .     S
Cu564  O572    1.961   .     S
Cu564  O573    1.957   .     S
Cu564  O577    1.946   .     S
Cu564  O576    1.963   .     S
Cu564  N569    2.020   .     S
H567   N929    1.029   .     S
N570   N929    1.294   .     S
N570   H928    1.028   .     S
O579   C580    1.414   .     S
C580   C583    1.520   .     S
C580   H581    1.113   .     S
C580   H582    1.113   .     S
C583   H584    1.111   .     S
C583   H585    1.111   .     S
C583   H586    1.109   .     S
O587   C588    1.417   .     S
C588   H590    1.116   .     S
C588   H589    1.111   .     S
C591   H594    1.109   .     S
C591   H592    1.107   .     S
C591   H593    1.111   .     S
C591   C708    1.523   .     S
H599   C665    1.087   .     S
C601   O633    1.287   .     A
C601   C605    1.430   .     S
C601   O631    1.292   .     A
C602   O634    1.287   .     A
C602   C606    1.431   .     S
C602   O632    1.292   .     A
C603   C620    1.403   .     A
C603   H625    1.079   .     S
C603   C681    1.394   1_455 S
C604   C619    1.404   .     A
C604   H626    1.080   .     S
C604   C682    1.391   .     S
C606   C365    1.329   1_565 S
C606   H420    1.088   1_565 S
C607   O637    1.291   .     A
C607   C612    1.444   .     S
C607   O635    1.294   .     A
C608   O638    1.291   .     A
C608   C611    1.444   .     S
C608   O636    1.294   .     A
C609   C611    1.405   .     A
C609   O639    1.385   .     S
C609   C619    1.406   .     A
C610   C612    1.407   .     A
C610   O647    1.386   .     S
C610   C620    1.405   .     A
C611   C613    1.396   .     A
C612   C614    1.393   .     A
C613   C615    1.391   .     A
C613   H655    1.085   .     S
C614   H656    1.083   .     S
C614   C616    1.391   .     A
C615   C621    1.399   .     A
C615   C617    1.410   .     A
C616   C618    1.409   .     A
C616   C622    1.396   .     A
C617   C619    1.414   .     A
C617   C678    1.404   .     S
C618   C620    1.413   .     A
C618   C677    1.404   1_455 S
C621   H657    1.083   .     S
C621   C663    1.394   .     S
C622   H658    1.078   .     S
C622   C664    1.391   1_455 S
Cu623  O638    1.946   .     S
Cu623  Cu624   2.688   .     S
Cu623  O634    1.957   .     S
Cu623  O635    1.963   .     S
Cu623  N630    2.020   .     S
Cu623  O631    1.961   .     S
Cu624  O632    1.961   .     S
Cu624  O633    1.957   .     S
Cu624  O637    1.946   .     S
Cu624  O636    1.963   .     S
Cu624  N629    2.020   .     S
H627   N989    1.029   .     S
N630   N989    1.294   .     S
N630   H988    1.028   .     S
O639   C640    1.414   .     S
C640   C643    1.520   .     S
C640   H641    1.113   .     S
C640   H642    1.113   .     S
C643   H644    1.111   .     S
C643   H645    1.111   .     S
C643   H646    1.109   .     S
O647   C648    1.417   .     S
C648   H650    1.116   .     S
C648   H649    1.111   .     S
C651   H654    1.109   .     S
C651   H652    1.107   .     S
C651   H653    1.111   .     S
C651   C408    1.523   1_565 S
H659   C365    1.087   1_565 S
C661   O693    1.287   .     A
C661   C665    1.430   .     S
C661   O691    1.292   .     A
C662   O694    1.287   .     A
C662   C666    1.431   .     S
C662   O692    1.292   .     A
C663   C680    1.403   .     A
C663   H685    1.079   .     S
C664   C679    1.404   .     A
C664   H686    1.080   .     S
C664   C622    1.391   1_655 S
C666   C425    1.329   1_565 S
C666   H480    1.088   1_565 S
C667   O697    1.291   .     A
C667   C672    1.444   .     S
C667   O695    1.294   .     A
C668   O698    1.291   .     A
C668   C671    1.444   .     S
C668   O696    1.294   .     A
C669   C671    1.405   .     A
C669   O699    1.385   .     S
C669   C679    1.406   .     A
C670   C672    1.407   .     A
C670   O707    1.386   .     S
C670   C680    1.405   .     A
C671   C673    1.396   .     A
C672   C674    1.393   .     A
C673   C675    1.391   .     A
C673   H715    1.085   .     S
C674   H716    1.083   .     S
C674   C676    1.391   .     A
C675   C681    1.399   .     A
C675   C677    1.410   .     A
C676   C678    1.409   .     A
C676   C682    1.396   .     A
C677   C679    1.414   .     A
C677   C618    1.404   1_655 S
C678   C680    1.413   .     A
C681   H717    1.083   .     S
C681   C603    1.394   1_655 S
C682   H718    1.078   .     S
Cu683  O698    1.946   .     S
Cu683  Cu684   2.688   .     S
Cu683  O694    1.957   .     S
Cu683  O695    1.963   .     S
Cu683  N690    2.020   .     S
Cu683  O691    1.961   .     S
Cu684  O692    1.961   .     S
Cu684  O693    1.957   .     S
Cu684  O697    1.946   .     S
Cu684  O696    1.963   .     S
Cu684  N689    2.020   .     S
H687   N1049   1.029   .     S
N690   N1049   1.294   .     S
N690   H1048   1.028   .     S
O699   C700    1.414   .     S
C700   C703    1.520   .     S
C700   H701    1.113   .     S
C700   H702    1.113   .     S
C703   H704    1.111   .     S
C703   H705    1.111   .     S
C703   H706    1.109   .     S
O707   C708    1.417   .     S
C708   H710    1.116   .     S
C708   H709    1.111   .     S
C711   H714    1.109   .     S
C711   H712    1.107   .     S
C711   H713    1.111   .     S
C711   C468    1.523   1_565 S
H719   C425    1.087   1_565 S
C721   O753    1.287   .     A
C721   C725    1.430   .     S
C721   O751    1.292   .     A
C722   O754    1.287   .     A
C722   C726    1.431   .     S
C722   O752    1.292   .     A
C723   C740    1.403   .     A
C723   H745    1.079   .     S
C723   C801    1.394   1_455 S
C724   C739    1.404   .     A
C724   H746    1.080   .     S
C724   C802    1.391   .     S
C725   C966    1.329   1_545 S
C725   H1019   1.087   1_545 S
C726   C845    1.329   .     S
C726   H900    1.088   .     S
C727   O757    1.291   .     A
C727   C732    1.444   .     S
C727   O755    1.294   .     A
C728   O758    1.291   .     A
C728   C731    1.444   .     S
C728   O756    1.294   .     A
C729   C731    1.405   .     A
C729   O759    1.385   .     S
C729   C739    1.406   .     A
C730   C732    1.407   .     A
C730   O767    1.386   .     S
C730   C740    1.405   .     A
C731   C733    1.396   .     A
C732   C734    1.393   .     A
C733   C735    1.391   .     A
C733   H775    1.085   .     S
C734   H776    1.083   .     S
C734   C736    1.391   .     A
C735   C741    1.399   .     A
C735   C737    1.410   .     A
C736   C738    1.409   .     A
C736   C742    1.396   .     A
C737   C739    1.414   .     A
C737   C798    1.404   .     S
C738   C740    1.413   .     A
C738   C797    1.404   1_455 S
C741   H777    1.083   .     S
C741   C783    1.394   .     S
C742   H778    1.078   .     S
C742   C784    1.391   1_455 S
Cu743  O758    1.946   .     S
Cu743  Cu744   2.688   .     S
Cu743  O754    1.957   .     S
Cu743  O755    1.963   .     S
Cu743  N750    2.020   .     S
Cu743  O751    1.961   .     S
Cu744  O752    1.961   .     S
Cu744  O753    1.957   .     S
Cu744  O757    1.946   .     S
Cu744  O756    1.963   .     S
Cu744  N749    2.020   .     S
H747   N29     1.029   1_556 S
N750   N29     1.294   1_556 S
N750   H28     1.028   1_556 S
O759   C760    1.414   .     S
C760   C763    1.520   .     S
C760   H761    1.113   .     S
C760   H762    1.113   .     S
C763   H764    1.111   .     S
C763   H765    1.111   .     S
C763   H766    1.109   .     S
O767   C768    1.417   .     S
C768   H770    1.116   .     S
C768   H769    1.111   .     S
C768   C1011   1.523   1_545 S
C771   H774    1.109   .     S
C771   H772    1.107   .     S
C771   H773    1.111   .     S
C771   C888    1.523   .     S
H779   C845    1.087   .     S
H780   C966    1.088   1_545 S
C781   O813    1.287   .     A
C781   C785    1.430   .     S
C781   O811    1.292   .     A
C782   O814    1.287   .     A
C782   C786    1.431   .     S
C782   O812    1.292   .     A
C783   C800    1.403   .     A
C783   H805    1.079   .     S
C784   C799    1.404   .     A
C784   H806    1.080   .     S
C784   C742    1.391   1_655 S
C785   C1026   1.329   1_545 S
C785   H1079   1.087   1_545 S
C786   C905    1.329   .     S
C786   H960    1.088   .     S
C787   O817    1.291   .     A
C787   C792    1.444   .     S
C787   O815    1.294   .     A
C788   O818    1.291   .     A
C788   C791    1.444   .     S
C788   O816    1.294   .     A
C789   C791    1.405   .     A
C789   O819    1.385   .     S
C789   C799    1.406   .     A
C790   C792    1.407   .     A
C790   O827    1.386   .     S
C790   C800    1.405   .     A
C791   C793    1.396   .     A
C792   C794    1.393   .     A
C793   C795    1.391   .     A
C793   H835    1.085   .     S
C794   H836    1.083   .     S
C794   C796    1.391   .     A
C795   C801    1.399   .     A
C795   C797    1.410   .     A
C796   C798    1.409   .     A
C796   C802    1.396   .     A
C797   C799    1.414   .     A
C797   C738    1.404   1_655 S
C798   C800    1.413   .     A
C801   H837    1.083   .     S
C801   C723    1.394   1_655 S
C802   H838    1.078   .     S
Cu803  O818    1.946   .     S
Cu803  Cu804   2.688   .     S
Cu803  O814    1.957   .     S
Cu803  O815    1.963   .     S
Cu803  N810    2.020   .     S
Cu803  O811    1.961   .     S
Cu804  O812    1.961   .     S
Cu804  O813    1.957   .     S
Cu804  O817    1.946   .     S
Cu804  O816    1.963   .     S
Cu804  N809    2.020   .     S
H807   N89     1.029   1_556 S
N810   N89     1.294   1_556 S
N810   H88     1.028   1_556 S
O819   C820    1.414   .     S
C820   C823    1.520   .     S
C820   H821    1.113   .     S
C820   H822    1.113   .     S
C823   H824    1.111   .     S
C823   H825    1.111   .     S
C823   H826    1.109   .     S
O827   C828    1.417   .     S
C828   H830    1.116   .     S
C828   H829    1.111   .     S
C828   C1071   1.523   1_545 S
C831   H834    1.109   .     S
C831   H832    1.107   .     S
C831   H833    1.111   .     S
C831   C948    1.523   .     S
H839   C905    1.087   .     S
H840   C1026   1.088   1_545 S
C841   O873    1.287   .     A
C841   C845    1.430   .     S
C841   O871    1.292   .     A
C842   O874    1.287   .     A
C842   C846    1.431   .     S
C842   O872    1.292   .     A
C843   C860    1.403   .     A
C843   H865    1.079   .     S
C843   C921    1.394   1_455 S
C844   C859    1.404   .     A
C844   H866    1.080   .     S
C844   C922    1.391   .     S
C846   C965    1.329   .     S
C846   H1020   1.088   .     S
C847   O877    1.291   .     A
C847   C852    1.444   .     S
C847   O875    1.294   .     A
C848   O878    1.291   .     A
C848   C851    1.444   .     S
C848   O876    1.294   .     A
C849   C851    1.405   .     A
C849   O879    1.385   .     S
C849   C859    1.406   .     A
C850   C852    1.407   .     A
C850   O887    1.386   .     S
C850   C860    1.405   .     A
C851   C853    1.396   .     A
C852   C854    1.393   .     A
C853   C855    1.391   .     A
C853   H895    1.085   .     S
C854   H896    1.083   .     S
C854   C856    1.391   .     A
C855   C861    1.399   .     A
C855   C857    1.410   .     A
C856   C858    1.409   .     A
C856   C862    1.396   .     A
C857   C859    1.414   .     A
C857   C918    1.404   .     S
C858   C860    1.413   .     A
C858   C917    1.404   1_455 S
C861   H897    1.083   .     S
C861   C903    1.394   .     S
C862   H898    1.078   .     S
C862   C904    1.391   1_455 S
Cu863  O878    1.946   .     S
Cu863  Cu864   2.688   .     S
Cu863  O874    1.957   .     S
Cu863  O875    1.963   .     S
Cu863  N870    2.020   .     S
Cu863  O871    1.961   .     S
Cu864  O872    1.961   .     S
Cu864  O873    1.957   .     S
Cu864  O877    1.946   .     S
Cu864  O876    1.963   .     S
Cu864  N869    2.020   .     S
H867   N149    1.029   1_556 S
N870   N149    1.294   1_556 S
N870   H148    1.028   1_556 S
O879   C880    1.414   .     S
C880   C883    1.520   .     S
C880   H881    1.113   .     S
C880   H882    1.113   .     S
C883   H884    1.111   .     S
C883   H885    1.111   .     S
C883   H886    1.109   .     S
O887   C888    1.417   .     S
C888   H890    1.116   .     S
C888   H889    1.111   .     S
C891   H894    1.109   .     S
C891   H892    1.107   .     S
C891   H893    1.111   .     S
C891   C1008   1.523   .     S
H899   C965    1.087   .     S
C901   O933    1.287   .     A
C901   C905    1.430   .     S
C901   O931    1.292   .     A
C902   O934    1.287   .     A
C902   C906    1.431   .     S
C902   O932    1.292   .     A
C903   C920    1.403   .     A
C903   H925    1.079   .     S
C904   C919    1.404   .     A
C904   H926    1.080   .     S
C904   C862    1.391   1_655 S
C906   C1025   1.329   .     S
C906   H1080   1.088   .     S
C907   O937    1.291   .     A
C907   C912    1.444   .     S
C907   O935    1.294   .     A
C908   O938    1.291   .     A
C908   C911    1.444   .     S
C908   O936    1.294   .     A
C909   C911    1.405   .     A
C909   O939    1.385   .     S
C909   C919    1.406   .     A
C910   C912    1.407   .     A
C910   O947    1.386   .     S
C910   C920    1.405   .     A
C911   C913    1.396   .     A
C912   C914    1.393   .     A
C913   C915    1.391   .     A
C913   H955    1.085   .     S
C914   H956    1.083   .     S
C914   C916    1.391   .     A
C915   C921    1.399   .     A
C915   C917    1.410   .     A
C916   C918    1.409   .     A
C916   C922    1.396   .     A
C917   C919    1.414   .     A
C917   C858    1.404   1_655 S
C918   C920    1.413   .     A
C921   H957    1.083   .     S
C921   C843    1.394   1_655 S
C922   H958    1.078   .     S
Cu923  O938    1.946   .     S
Cu923  Cu924   2.688   .     S
Cu923  O934    1.957   .     S
Cu923  O935    1.963   .     S
Cu923  N930    2.020   .     S
Cu923  O931    1.961   .     S
Cu924  O932    1.961   .     S
Cu924  O933    1.957   .     S
Cu924  O937    1.946   .     S
Cu924  O936    1.963   .     S
Cu924  N929    2.020   .     S
H927   N209    1.029   1_556 S
N930   N209    1.294   1_556 S
N930   H208    1.028   1_556 S
O939   C940    1.414   .     S
C940   C943    1.520   .     S
C940   H941    1.113   .     S
C940   H942    1.113   .     S
C943   H944    1.111   .     S
C943   H945    1.111   .     S
C943   H946    1.109   .     S
O947   C948    1.417   .     S
C948   H950    1.116   .     S
C948   H949    1.111   .     S
C951   H954    1.109   .     S
C951   H952    1.107   .     S
C951   H953    1.111   .     S
C951   C1068   1.523   .     S
H959   C1025   1.087   .     S
C961   O993    1.287   .     A
C961   C965    1.430   .     S
C961   O991    1.292   .     A
C962   O994    1.287   .     A
C962   C966    1.431   .     S
C962   O992    1.292   .     A
C963   C980    1.403   .     A
C963   H985    1.079   .     S
C963   C1041   1.394   1_455 S
C964   C979    1.404   .     A
C964   H986    1.080   .     S
C964   C1042   1.391   .     S
C966   C725    1.329   1_565 S
C966   H780    1.088   1_565 S
C967   O997    1.291   .     A
C967   C972    1.444   .     S
C967   O995    1.294   .     A
C968   O998    1.291   .     A
C968   C971    1.444   .     S
C968   O996    1.294   .     A
C969   C971    1.405   .     A
C969   O999    1.385   .     S
C969   C979    1.406   .     A
C970   C972    1.407   .     A
C970   O1007   1.386   .     S
C970   C980    1.405   .     A
C971   C973    1.396   .     A
C972   C974    1.393   .     A
C973   C975    1.391   .     A
C973   H1015   1.085   .     S
C974   H1016   1.083   .     S
C974   C976    1.391   .     A
C975   C981    1.399   .     A
C975   C977    1.410   .     A
C976   C978    1.409   .     A
C976   C982    1.396   .     A
C977   C979    1.414   .     A
C977   C1038   1.404   .     S
C978   C980    1.413   .     A
C978   C1037   1.404   1_455 S
C981   H1017   1.083   .     S
C981   C1023   1.394   .     S
C982   H1018   1.078   .     S
C982   C1024   1.391   1_455 S
Cu983  O998    1.946   .     S
Cu983  Cu984   2.688   .     S
Cu983  O994    1.957   .     S
Cu983  O995    1.963   .     S
Cu983  N990    2.020   .     S
Cu983  O991    1.961   .     S
Cu984  O992    1.961   .     S
Cu984  O993    1.957   .     S
Cu984  O997    1.946   .     S
Cu984  O996    1.963   .     S
Cu984  N989    2.020   .     S
H987   N269    1.029   1_556 S
N990   N269    1.294   1_556 S
N990   H268    1.028   1_556 S
O999   C1000   1.414   .     S
C1000  C1003   1.520   .     S
C1000  H1001   1.113   .     S
C1000  H1002   1.113   .     S
C1003  H1004   1.111   .     S
C1003  H1005   1.111   .     S
C1003  H1006   1.109   .     S
O1007  C1008   1.417   .     S
C1008  H1010   1.116   .     S
C1008  H1009   1.111   .     S
C1011  H1014   1.109   .     S
C1011  H1012   1.107   .     S
C1011  H1013   1.111   .     S
C1011  C768    1.523   1_565 S
H1019  C725    1.087   1_565 S
C1021  O1053   1.287   .     A
C1021  C1025   1.430   .     S
C1021  O1051   1.292   .     A
C1022  O1054   1.287   .     A
C1022  C1026   1.431   .     S
C1022  O1052   1.292   .     A
C1023  C1040   1.403   .     A
C1023  H1045   1.079   .     S
C1024  C1039   1.404   .     A
C1024  H1046   1.080   .     S
C1024  C982    1.391   1_655 S
C1026  C785    1.329   1_565 S
C1026  H840    1.088   1_565 S
C1027  O1057   1.291   .     A
C1027  C1032   1.444   .     S
C1027  O1055   1.294   .     A
C1028  O1058   1.291   .     A
C1028  C1031   1.444   .     S
C1028  O1056   1.294   .     A
C1029  C1031   1.405   .     A
C1029  O1059   1.385   .     S
C1029  C1039   1.406   .     A
C1030  C1032   1.407   .     A
C1030  O1067   1.386   .     S
C1030  C1040   1.405   .     A
C1031  C1033   1.396   .     A
C1032  C1034   1.393   .     A
C1033  C1035   1.391   .     A
C1033  H1075   1.085   .     S
C1034  H1076   1.083   .     S
C1034  C1036   1.391   .     A
C1035  C1041   1.399   .     A
C1035  C1037   1.410   .     A
C1036  C1038   1.409   .     A
C1036  C1042   1.396   .     A
C1037  C1039   1.414   .     A
C1037  C978    1.404   1_655 S
C1038  C1040   1.413   .     A
C1041  H1077   1.083   .     S
C1041  C963    1.394   1_655 S
C1042  H1078   1.078   .     S
Cu1043 O1058   1.946   .     S
Cu1043 Cu1044  2.688   .     S
Cu1043 O1054   1.957   .     S
Cu1043 O1055   1.963   .     S
Cu1043 N1050   2.020   .     S
Cu1043 O1051   1.961   .     S
Cu1044 O1052   1.961   .     S
Cu1044 O1053   1.957   .     S
Cu1044 O1057   1.946   .     S
Cu1044 O1056   1.963   .     S
Cu1044 N1049   2.020   .     S
H1047  N329    1.029   1_556 S
N1050  N329    1.294   1_556 S
N1050  H328    1.028   1_556 S
O1059  C1060   1.414   .     S
C1060  C1063   1.520   .     S
C1060  H1061   1.113   .     S
C1060  H1062   1.113   .     S
C1063  H1064   1.111   .     S
C1063  H1065   1.111   .     S
C1063  H1066   1.109   .     S
O1067  C1068   1.417   .     S
C1068  H1070   1.116   .     S
C1068  H1069   1.111   .     S
C1071  H1074   1.109   .     S
C1071  H1072   1.107   .     S
C1071  H1073   1.111   .     S
C1071  C828    1.523   1_565 S
H1079  C785    1.087   1_565 S
