data_str_m2_o10_o17_pcu_sym.226
_audit_creation_date              2020-01-03
_audit_creation_method            'Materials Studio'
_symmetry_space_group_name_H-M    'P1'
_symmetry_Int_Tables_number       1
_symmetry_cell_setting            triclinic
loop_
_symmetry_equiv_pos_as_xyz
  x,y,z
_cell_length_a                    30.1175
_cell_length_b                    26.3606
_cell_length_c                    22.5617
_cell_angle_alpha                 102.9162
_cell_angle_beta                  93.2496
_cell_angle_gamma                 93.8113
loop_
_atom_site_label
_atom_site_type_symbol
_atom_site_fract_x
_atom_site_fract_y
_atom_site_fract_z
_atom_site_U_iso_or_equiv
_atom_site_adp_type
_atom_site_occupancy
C1     C     0.24764   0.06679   0.15135   0.00000  Uiso   1.00
C2     C     0.25300   0.26655   0.18189   0.00000  Uiso   1.00
C3     C     0.01460   0.06800   0.12823   0.00000  Uiso   1.00
C4     C     0.48243   0.25884   0.19518   0.00000  Uiso   1.00
C5     C     0.24272   0.01067   0.14381   0.00000  Uiso   1.00
C6     C     0.25869   0.32266   0.18908   0.00000  Uiso   1.00
C7     C     0.16443   0.16312   0.16726   0.00000  Uiso   1.00
C8     C     0.33522   0.16735   0.16538   0.00000  Uiso   1.00
C9     C     0.40931   0.21011   0.15797   0.00000  Uiso   1.00
C10    C     0.08891   0.11660   0.16669   0.00000  Uiso   1.00
C11    C     0.38305   0.16493   0.16150   0.00000  Uiso   1.00
C12    C     0.11581   0.16351   0.16929   0.00000  Uiso   1.00
C13    C     0.40214   0.11700   0.15740   0.00000  Uiso   1.00
C14    C     0.09582   0.21055   0.16940   0.00000  Uiso   1.00
C15    C     0.44866   0.11613   0.15158   0.00000  Uiso   1.00
C16    C     0.04918   0.21112   0.17413   0.00000  Uiso   1.00
C17    C     0.47561   0.16369   0.16179   0.00000  Uiso   1.00
C18    C     0.02244   0.16333   0.16287   0.00000  Uiso   1.00
C19    C     0.45566   0.21163   0.17138   0.00000  Uiso   1.00
C20    C     0.04235   0.11526   0.15192   0.00000  Uiso   1.00
C21    C     0.46858   0.06917   0.13394   0.00000  Uiso   1.00
C22    C     0.02878   0.25810   0.19208   0.00000  Uiso   1.00
Cu23   Cu    0.25500   0.17246   0.22813   0.00000  Uiso   1.00
Cu24   Cu    0.24499   0.16087   0.10521   0.00000  Uiso   1.00
H25    H     0.44804   0.03303   0.12263   0.00000  Uiso   1.00
H26    H     0.04903   0.29408   0.20765   0.00000  Uiso   1.00
N27    N     0.23744   0.15214   0.01284   0.00000  Uiso   1.00
N28    N     0.26255   0.18119   0.32049   0.00000  Uiso   1.00
O29    O     0.25325   0.09538   0.20659   0.00000  Uiso   1.00
O30    O     0.24674   0.23796   0.12674   0.00000  Uiso   1.00
O31    O     0.24480   0.08559   0.10279   0.00000  Uiso   1.00
O32    O     0.25520   0.24774   0.23055   0.00000  Uiso   1.00
O33    O     0.18935   0.17155   0.21857   0.00000  Uiso   1.00
O34    O     0.31064   0.16179   0.11476   0.00000  Uiso   1.00
O35    O     0.18090   0.16176   0.11477   0.00000  Uiso   1.00
O36    O     0.31910   0.17157   0.21857   0.00000  Uiso   1.00
C37    C     0.39057   0.24573   0.11962   0.00000  Uiso   1.00
C38    C     0.38772   0.21904   0.05173   0.00000  Uiso   1.00
H39    H     0.42128   0.20847   0.03760   0.00000  Uiso   1.00
H40    H     0.36470   0.18311   0.04130   0.00000  Uiso   1.00
H41    H     0.37568   0.24626   0.02443   0.00000  Uiso   1.00
H42    H     0.35736   0.25760   0.13383   0.00000  Uiso   1.00
H43    H     0.41214   0.28161   0.12291   0.00000  Uiso   1.00
C44    C     0.10766   0.07000   0.18581   0.00000  Uiso   1.00
C45    C     0.13857   0.08264   0.24346   0.00000  Uiso   1.00
H46    H     0.17283   0.08319   0.22921   0.00000  Uiso   1.00
H47    H     0.13196   0.12009   0.27438   0.00000  Uiso   1.00
H48    H     0.13494   0.05110   0.26879   0.00000  Uiso   1.00
H49    H     0.08005   0.04638   0.19921   0.00000  Uiso   1.00
H50    H     0.12436   0.04651   0.14758   0.00000  Uiso   1.00
C51    C     0.37233   0.06740   0.15533   0.00000  Uiso   1.00
C52    C     0.35526   0.04025   0.09005   0.00000  Uiso   1.00
H53    H     0.33488   0.06621   0.06931   0.00000  Uiso   1.00
H54    H     0.38330   0.02930   0.06120   0.00000  Uiso   1.00
H55    H     0.33410   0.00421   0.09040   0.00000  Uiso   1.00
H56    H     0.38990   0.04021   0.17725   0.00000  Uiso   1.00
H57    H     0.34341   0.07598   0.18308   0.00000  Uiso   1.00
C58    C     0.12343   0.25771   0.15790   0.00000  Uiso   1.00
C59    C     0.11804   0.25844   0.09033   0.00000  Uiso   1.00
H60    H     0.13238   0.29618   0.08306   0.00000  Uiso   1.00
H61    H     0.13553   0.22650   0.06291   0.00000  Uiso   1.00
H62    H     0.08231   0.25307   0.07361   0.00000  Uiso   1.00
H63    H     0.11496   0.29503   0.18626   0.00000  Uiso   1.00
H64    H     0.15935   0.25747   0.17098   0.00000  Uiso   1.00
C65    C     0.03286   0.01856   0.09096   0.00000  Uiso   1.00
C66    C     0.49813   0.30868   0.05654   0.00000  Uiso   1.00
H67    H     0.48324   0.28729   0.08837   0.00000  Uiso   1.00
H68    H     0.47114   0.32490   0.03324   0.00000  Uiso   1.00
H69    H     0.01427   0.28007   0.02227   0.00000  Uiso   1.00
H70    H     0.05469   0.03039   0.05754   0.00000  Uiso   1.00
H71    H     0.05307   0.33212   0.11930   0.00000  Uiso   1.00
C72    C     0.46212   0.30584   0.23392   0.00000  Uiso   1.00
C73    C     0.49445   0.01969   0.26424   0.00000  Uiso   1.00
H74    H     0.02232   0.00841   0.29123   0.00000  Uiso   1.00
H75    H     0.00856   0.03826   0.22971   0.00000  Uiso   1.00
H76    H     0.47638   0.04916   0.29479   0.00000  Uiso   1.00
H77    H     0.43663   0.32123   0.20802   0.00000  Uiso   1.00
H78    H     0.44455   0.29190   0.26988   0.00000  Uiso   1.00
O79    O     0.22045   0.31304   0.09124   0.00000  Uiso   1.00
H80    H     0.20807   0.00191   0.06532   0.00000  Uiso   1.00
O81    O     0.28212   0.02014   0.24083   0.00000  Uiso   1.00
H82    H     0.29497   0.33103   0.26611   0.00000  Uiso   1.00
O83    O     0.22596   0.10440   0.31200   0.00000  Uiso   1.00
H84    H     0.20932   0.08596   0.00516   0.00000  Uiso   1.00
O85    O     0.28050   0.22572   0.02395   0.00000  Uiso   1.00
H86    H     0.29487   0.24539   0.33001   0.00000  Uiso   1.00
C87    C     0.74764   0.06679   0.15135   0.00000  Uiso   1.00
C88    C     0.75300   0.26655   0.18189   0.00000  Uiso   1.00
C89    C     0.51460   0.06800   0.12823   0.00000  Uiso   1.00
C90    C     0.98243   0.25884   0.19518   0.00000  Uiso   1.00
C91    C     0.74272   0.01067   0.14381   0.00000  Uiso   1.00
C92    C     0.75869   0.32266   0.18908   0.00000  Uiso   1.00
C93    C     0.66443   0.16312   0.16726   0.00000  Uiso   1.00
C94    C     0.83522   0.16735   0.16538   0.00000  Uiso   1.00
C95    C     0.90931   0.21011   0.15797   0.00000  Uiso   1.00
C96    C     0.58891   0.11660   0.16669   0.00000  Uiso   1.00
C97    C     0.88305   0.16493   0.16150   0.00000  Uiso   1.00
C98    C     0.61581   0.16351   0.16929   0.00000  Uiso   1.00
C99    C     0.90214   0.11700   0.15740   0.00000  Uiso   1.00
C100   C     0.59582   0.21055   0.16940   0.00000  Uiso   1.00
C101   C     0.94866   0.11613   0.15158   0.00000  Uiso   1.00
C102   C     0.54918   0.21112   0.17413   0.00000  Uiso   1.00
C103   C     0.97561   0.16369   0.16179   0.00000  Uiso   1.00
C104   C     0.52244   0.16333   0.16287   0.00000  Uiso   1.00
C105   C     0.95566   0.21163   0.17138   0.00000  Uiso   1.00
C106   C     0.54235   0.11526   0.15192   0.00000  Uiso   1.00
C107   C     0.96858   0.06917   0.13394   0.00000  Uiso   1.00
C108   C     0.52878   0.25810   0.19208   0.00000  Uiso   1.00
Cu109  Cu    0.75500   0.17246   0.22813   0.00000  Uiso   1.00
Cu110  Cu    0.74499   0.16087   0.10521   0.00000  Uiso   1.00
H111   H     0.94804   0.03303   0.12263   0.00000  Uiso   1.00
H112   H     0.54903   0.29408   0.20765   0.00000  Uiso   1.00
N113   N     0.73744   0.15214   0.01284   0.00000  Uiso   1.00
N114   N     0.76255   0.18119   0.32049   0.00000  Uiso   1.00
O115   O     0.75325   0.09538   0.20659   0.00000  Uiso   1.00
O116   O     0.74674   0.23796   0.12674   0.00000  Uiso   1.00
O117   O     0.74480   0.08559   0.10279   0.00000  Uiso   1.00
O118   O     0.75520   0.24774   0.23055   0.00000  Uiso   1.00
O119   O     0.68935   0.17155   0.21857   0.00000  Uiso   1.00
O120   O     0.81064   0.16179   0.11476   0.00000  Uiso   1.00
O121   O     0.68090   0.16176   0.11477   0.00000  Uiso   1.00
O122   O     0.81910   0.17157   0.21857   0.00000  Uiso   1.00
C123   C     0.89057   0.24573   0.11962   0.00000  Uiso   1.00
C124   C     0.88772   0.21904   0.05173   0.00000  Uiso   1.00
H125   H     0.92128   0.20847   0.03760   0.00000  Uiso   1.00
H126   H     0.86470   0.18311   0.04130   0.00000  Uiso   1.00
H127   H     0.87568   0.24626   0.02443   0.00000  Uiso   1.00
H128   H     0.85736   0.25760   0.13383   0.00000  Uiso   1.00
H129   H     0.91214   0.28161   0.12291   0.00000  Uiso   1.00
C130   C     0.60766   0.07000   0.18581   0.00000  Uiso   1.00
C131   C     0.63857   0.08264   0.24346   0.00000  Uiso   1.00
H132   H     0.67283   0.08319   0.22921   0.00000  Uiso   1.00
H133   H     0.63196   0.12009   0.27438   0.00000  Uiso   1.00
H134   H     0.63494   0.05110   0.26879   0.00000  Uiso   1.00
H135   H     0.58005   0.04638   0.19921   0.00000  Uiso   1.00
H136   H     0.62436   0.04651   0.14758   0.00000  Uiso   1.00
C137   C     0.87233   0.06740   0.15533   0.00000  Uiso   1.00
C138   C     0.85526   0.04025   0.09005   0.00000  Uiso   1.00
H139   H     0.83488   0.06621   0.06931   0.00000  Uiso   1.00
H140   H     0.88330   0.02930   0.06120   0.00000  Uiso   1.00
H141   H     0.83410   0.00421   0.09040   0.00000  Uiso   1.00
H142   H     0.88990   0.04021   0.17725   0.00000  Uiso   1.00
H143   H     0.84341   0.07598   0.18308   0.00000  Uiso   1.00
C144   C     0.62343   0.25771   0.15790   0.00000  Uiso   1.00
C145   C     0.61804   0.25844   0.09033   0.00000  Uiso   1.00
H146   H     0.63238   0.29618   0.08306   0.00000  Uiso   1.00
H147   H     0.63553   0.22650   0.06291   0.00000  Uiso   1.00
H148   H     0.58231   0.25307   0.07361   0.00000  Uiso   1.00
H149   H     0.61496   0.29503   0.18626   0.00000  Uiso   1.00
H150   H     0.65935   0.25747   0.17098   0.00000  Uiso   1.00
C151   C     0.53286   0.01856   0.09096   0.00000  Uiso   1.00
C152   C     0.99813   0.30868   0.05654   0.00000  Uiso   1.00
H153   H     0.98324   0.28729   0.08837   0.00000  Uiso   1.00
H154   H     0.97114   0.32490   0.03324   0.00000  Uiso   1.00
H155   H     0.51427   0.28007   0.02227   0.00000  Uiso   1.00
H156   H     0.55469   0.03039   0.05754   0.00000  Uiso   1.00
H157   H     0.55307   0.33212   0.11930   0.00000  Uiso   1.00
C158   C     0.96212   0.30584   0.23392   0.00000  Uiso   1.00
C159   C     0.99445   0.01969   0.26424   0.00000  Uiso   1.00
H160   H     0.52232   0.00841   0.29123   0.00000  Uiso   1.00
H161   H     0.50856   0.03826   0.22971   0.00000  Uiso   1.00
H162   H     0.97638   0.04916   0.29479   0.00000  Uiso   1.00
H163   H     0.93663   0.32123   0.20802   0.00000  Uiso   1.00
H164   H     0.94455   0.29190   0.26988   0.00000  Uiso   1.00
O165   O     0.72045   0.31304   0.09124   0.00000  Uiso   1.00
H166   H     0.70807   0.00191   0.06532   0.00000  Uiso   1.00
O167   O     0.78212   0.02014   0.24083   0.00000  Uiso   1.00
H168   H     0.79497   0.33103   0.26611   0.00000  Uiso   1.00
O169   O     0.72596   0.10440   0.31200   0.00000  Uiso   1.00
H170   H     0.70932   0.08596   0.00516   0.00000  Uiso   1.00
O171   O     0.78050   0.22572   0.02395   0.00000  Uiso   1.00
H172   H     0.79487   0.24539   0.33001   0.00000  Uiso   1.00
C173   C     0.24764   0.40012   0.15135   0.00000  Uiso   1.00
C174   C     0.25300   0.59989   0.18189   0.00000  Uiso   1.00
C175   C     0.01460   0.40133   0.12823   0.00000  Uiso   1.00
C176   C     0.48243   0.59218   0.19518   0.00000  Uiso   1.00
C177   C     0.24272   0.34401   0.14381   0.00000  Uiso   1.00
C178   C     0.25869   0.65599   0.18908   0.00000  Uiso   1.00
C179   C     0.16443   0.49645   0.16726   0.00000  Uiso   1.00
C180   C     0.33522   0.50069   0.16538   0.00000  Uiso   1.00
C181   C     0.40931   0.54344   0.15797   0.00000  Uiso   1.00
C182   C     0.08891   0.44994   0.16669   0.00000  Uiso   1.00
C183   C     0.38305   0.49827   0.16150   0.00000  Uiso   1.00
C184   C     0.11581   0.49684   0.16929   0.00000  Uiso   1.00
C185   C     0.40214   0.45034   0.15740   0.00000  Uiso   1.00
C186   C     0.09582   0.54388   0.16940   0.00000  Uiso   1.00
C187   C     0.44866   0.44947   0.15158   0.00000  Uiso   1.00
C188   C     0.04918   0.54445   0.17413   0.00000  Uiso   1.00
C189   C     0.47561   0.49703   0.16179   0.00000  Uiso   1.00
C190   C     0.02244   0.49667   0.16287   0.00000  Uiso   1.00
C191   C     0.45566   0.54497   0.17138   0.00000  Uiso   1.00
C192   C     0.04235   0.44859   0.15192   0.00000  Uiso   1.00
C193   C     0.46858   0.40250   0.13394   0.00000  Uiso   1.00
C194   C     0.02878   0.59144   0.19208   0.00000  Uiso   1.00
Cu195  Cu    0.25500   0.50579   0.22813   0.00000  Uiso   1.00
Cu196  Cu    0.24499   0.49421   0.10521   0.00000  Uiso   1.00
H197   H     0.44804   0.36636   0.12263   0.00000  Uiso   1.00
H198   H     0.04903   0.62741   0.20765   0.00000  Uiso   1.00
N199   N     0.23744   0.48547   0.01284   0.00000  Uiso   1.00
N200   N     0.26255   0.51453   0.32049   0.00000  Uiso   1.00
O201   O     0.25325   0.42871   0.20659   0.00000  Uiso   1.00
O202   O     0.24674   0.57129   0.12674   0.00000  Uiso   1.00
O203   O     0.24480   0.41892   0.10279   0.00000  Uiso   1.00
O204   O     0.25520   0.58108   0.23055   0.00000  Uiso   1.00
O205   O     0.18935   0.50488   0.21857   0.00000  Uiso   1.00
O206   O     0.31064   0.49512   0.11476   0.00000  Uiso   1.00
O207   O     0.18090   0.49510   0.11477   0.00000  Uiso   1.00
O208   O     0.31910   0.50490   0.21857   0.00000  Uiso   1.00
C209   C     0.39057   0.57907   0.11962   0.00000  Uiso   1.00
C210   C     0.38772   0.55237   0.05173   0.00000  Uiso   1.00
H211   H     0.42128   0.54180   0.03760   0.00000  Uiso   1.00
H212   H     0.36470   0.51644   0.04130   0.00000  Uiso   1.00
H213   H     0.37568   0.57959   0.02443   0.00000  Uiso   1.00
H214   H     0.35736   0.59093   0.13383   0.00000  Uiso   1.00
H215   H     0.41214   0.61494   0.12291   0.00000  Uiso   1.00
C216   C     0.10766   0.40334   0.18581   0.00000  Uiso   1.00
C217   C     0.13857   0.41598   0.24346   0.00000  Uiso   1.00
H218   H     0.17283   0.41653   0.22921   0.00000  Uiso   1.00
H219   H     0.13196   0.45343   0.27438   0.00000  Uiso   1.00
H220   H     0.13494   0.38443   0.26879   0.00000  Uiso   1.00
H221   H     0.08005   0.37972   0.19921   0.00000  Uiso   1.00
H222   H     0.12436   0.37984   0.14758   0.00000  Uiso   1.00
C223   C     0.37233   0.40073   0.15533   0.00000  Uiso   1.00
C224   C     0.35526   0.37358   0.09005   0.00000  Uiso   1.00
H225   H     0.33488   0.39954   0.06931   0.00000  Uiso   1.00
H226   H     0.38330   0.36263   0.06120   0.00000  Uiso   1.00
H227   H     0.33410   0.33755   0.09040   0.00000  Uiso   1.00
H228   H     0.38990   0.37354   0.17725   0.00000  Uiso   1.00
H229   H     0.34341   0.40931   0.18308   0.00000  Uiso   1.00
C230   C     0.12343   0.59105   0.15790   0.00000  Uiso   1.00
C231   C     0.11804   0.59177   0.09033   0.00000  Uiso   1.00
H232   H     0.13238   0.62951   0.08306   0.00000  Uiso   1.00
H233   H     0.13553   0.55983   0.06291   0.00000  Uiso   1.00
H234   H     0.08231   0.58640   0.07361   0.00000  Uiso   1.00
H235   H     0.11496   0.62836   0.18626   0.00000  Uiso   1.00
H236   H     0.15935   0.59080   0.17098   0.00000  Uiso   1.00
C237   C     0.03286   0.35189   0.09096   0.00000  Uiso   1.00
C238   C     0.49813   0.64201   0.05654   0.00000  Uiso   1.00
H239   H     0.48324   0.62062   0.08837   0.00000  Uiso   1.00
H240   H     0.47114   0.65823   0.03324   0.00000  Uiso   1.00
H241   H     0.01427   0.61341   0.02227   0.00000  Uiso   1.00
H242   H     0.05469   0.36373   0.05754   0.00000  Uiso   1.00
H243   H     0.05307   0.66546   0.11930   0.00000  Uiso   1.00
C244   C     0.46212   0.63917   0.23392   0.00000  Uiso   1.00
C245   C     0.49445   0.35303   0.26424   0.00000  Uiso   1.00
H246   H     0.02232   0.34175   0.29123   0.00000  Uiso   1.00
H247   H     0.00856   0.37159   0.22971   0.00000  Uiso   1.00
H248   H     0.47638   0.38249   0.29479   0.00000  Uiso   1.00
H249   H     0.43663   0.65457   0.20802   0.00000  Uiso   1.00
H250   H     0.44455   0.62523   0.26988   0.00000  Uiso   1.00
O251   O     0.22045   0.64637   0.09124   0.00000  Uiso   1.00
H252   H     0.20807   0.33524   0.06532   0.00000  Uiso   1.00
O253   O     0.28212   0.35347   0.24083   0.00000  Uiso   1.00
H254   H     0.29497   0.66437   0.26611   0.00000  Uiso   1.00
O255   O     0.22596   0.43773   0.31200   0.00000  Uiso   1.00
H256   H     0.20932   0.41929   0.00516   0.00000  Uiso   1.00
O257   O     0.28050   0.55905   0.02395   0.00000  Uiso   1.00
H258   H     0.29487   0.57873   0.33001   0.00000  Uiso   1.00
C259   C     0.74764   0.40012   0.15135   0.00000  Uiso   1.00
C260   C     0.75300   0.59989   0.18189   0.00000  Uiso   1.00
C261   C     0.51460   0.40133   0.12823   0.00000  Uiso   1.00
C262   C     0.98243   0.59218   0.19518   0.00000  Uiso   1.00
C263   C     0.74272   0.34401   0.14381   0.00000  Uiso   1.00
C264   C     0.75869   0.65599   0.18908   0.00000  Uiso   1.00
C265   C     0.66443   0.49645   0.16726   0.00000  Uiso   1.00
C266   C     0.83522   0.50069   0.16538   0.00000  Uiso   1.00
C267   C     0.90931   0.54344   0.15797   0.00000  Uiso   1.00
C268   C     0.58891   0.44994   0.16669   0.00000  Uiso   1.00
C269   C     0.88305   0.49827   0.16150   0.00000  Uiso   1.00
C270   C     0.61581   0.49684   0.16929   0.00000  Uiso   1.00
C271   C     0.90214   0.45034   0.15740   0.00000  Uiso   1.00
C272   C     0.59582   0.54388   0.16940   0.00000  Uiso   1.00
C273   C     0.94866   0.44947   0.15158   0.00000  Uiso   1.00
C274   C     0.54918   0.54445   0.17413   0.00000  Uiso   1.00
C275   C     0.97561   0.49703   0.16179   0.00000  Uiso   1.00
C276   C     0.52244   0.49667   0.16287   0.00000  Uiso   1.00
C277   C     0.95566   0.54497   0.17138   0.00000  Uiso   1.00
C278   C     0.54235   0.44859   0.15192   0.00000  Uiso   1.00
C279   C     0.96858   0.40250   0.13394   0.00000  Uiso   1.00
C280   C     0.52878   0.59144   0.19208   0.00000  Uiso   1.00
Cu281  Cu    0.75500   0.50579   0.22813   0.00000  Uiso   1.00
Cu282  Cu    0.74499   0.49421   0.10521   0.00000  Uiso   1.00
H283   H     0.94804   0.36636   0.12263   0.00000  Uiso   1.00
H284   H     0.54903   0.62741   0.20765   0.00000  Uiso   1.00
N285   N     0.73744   0.48547   0.01284   0.00000  Uiso   1.00
N286   N     0.76255   0.51453   0.32049   0.00000  Uiso   1.00
O287   O     0.75325   0.42871   0.20659   0.00000  Uiso   1.00
O288   O     0.74674   0.57129   0.12674   0.00000  Uiso   1.00
O289   O     0.74480   0.41892   0.10279   0.00000  Uiso   1.00
O290   O     0.75520   0.58108   0.23055   0.00000  Uiso   1.00
O291   O     0.68935   0.50488   0.21857   0.00000  Uiso   1.00
O292   O     0.81064   0.49512   0.11476   0.00000  Uiso   1.00
O293   O     0.68090   0.49510   0.11477   0.00000  Uiso   1.00
O294   O     0.81910   0.50490   0.21857   0.00000  Uiso   1.00
C295   C     0.89057   0.57907   0.11962   0.00000  Uiso   1.00
C296   C     0.88772   0.55237   0.05173   0.00000  Uiso   1.00
H297   H     0.92128   0.54180   0.03760   0.00000  Uiso   1.00
H298   H     0.86470   0.51644   0.04130   0.00000  Uiso   1.00
H299   H     0.87568   0.57959   0.02443   0.00000  Uiso   1.00
H300   H     0.85736   0.59093   0.13383   0.00000  Uiso   1.00
H301   H     0.91214   0.61494   0.12291   0.00000  Uiso   1.00
C302   C     0.60766   0.40334   0.18581   0.00000  Uiso   1.00
C303   C     0.63857   0.41598   0.24346   0.00000  Uiso   1.00
H304   H     0.67283   0.41653   0.22921   0.00000  Uiso   1.00
H305   H     0.63196   0.45343   0.27438   0.00000  Uiso   1.00
H306   H     0.63494   0.38443   0.26879   0.00000  Uiso   1.00
H307   H     0.58005   0.37972   0.19921   0.00000  Uiso   1.00
H308   H     0.62436   0.37984   0.14758   0.00000  Uiso   1.00
C309   C     0.87233   0.40073   0.15533   0.00000  Uiso   1.00
C310   C     0.85526   0.37358   0.09005   0.00000  Uiso   1.00
H311   H     0.83488   0.39954   0.06931   0.00000  Uiso   1.00
H312   H     0.88330   0.36263   0.06120   0.00000  Uiso   1.00
H313   H     0.83410   0.33755   0.09040   0.00000  Uiso   1.00
H314   H     0.88990   0.37354   0.17725   0.00000  Uiso   1.00
H315   H     0.84341   0.40931   0.18308   0.00000  Uiso   1.00
C316   C     0.62343   0.59105   0.15790   0.00000  Uiso   1.00
C317   C     0.61804   0.59177   0.09033   0.00000  Uiso   1.00
H318   H     0.63238   0.62951   0.08306   0.00000  Uiso   1.00
H319   H     0.63553   0.55983   0.06291   0.00000  Uiso   1.00
H320   H     0.58231   0.58640   0.07361   0.00000  Uiso   1.00
H321   H     0.61496   0.62836   0.18626   0.00000  Uiso   1.00
H322   H     0.65935   0.59080   0.17098   0.00000  Uiso   1.00
C323   C     0.53286   0.35189   0.09096   0.00000  Uiso   1.00
C324   C     0.99813   0.64201   0.05654   0.00000  Uiso   1.00
H325   H     0.98324   0.62062   0.08837   0.00000  Uiso   1.00
H326   H     0.97114   0.65823   0.03324   0.00000  Uiso   1.00
H327   H     0.51427   0.61341   0.02227   0.00000  Uiso   1.00
H328   H     0.55469   0.36373   0.05754   0.00000  Uiso   1.00
H329   H     0.55307   0.66546   0.11930   0.00000  Uiso   1.00
C330   C     0.96212   0.63917   0.23392   0.00000  Uiso   1.00
C331   C     0.99445   0.35303   0.26424   0.00000  Uiso   1.00
H332   H     0.52232   0.34175   0.29123   0.00000  Uiso   1.00
H333   H     0.50856   0.37159   0.22971   0.00000  Uiso   1.00
H334   H     0.97638   0.38249   0.29479   0.00000  Uiso   1.00
H335   H     0.93663   0.65457   0.20802   0.00000  Uiso   1.00
H336   H     0.94455   0.62523   0.26988   0.00000  Uiso   1.00
O337   O     0.72045   0.64637   0.09124   0.00000  Uiso   1.00
H338   H     0.70807   0.33524   0.06532   0.00000  Uiso   1.00
O339   O     0.78212   0.35347   0.24083   0.00000  Uiso   1.00
H340   H     0.79497   0.66437   0.26611   0.00000  Uiso   1.00
O341   O     0.72596   0.43773   0.31200   0.00000  Uiso   1.00
H342   H     0.70932   0.41929   0.00516   0.00000  Uiso   1.00
O343   O     0.78050   0.55905   0.02395   0.00000  Uiso   1.00
H344   H     0.79487   0.57873   0.33001   0.00000  Uiso   1.00
C345   C     0.24764   0.73346   0.15135   0.00000  Uiso   1.00
C346   C     0.25300   0.93322   0.18189   0.00000  Uiso   1.00
C347   C     0.01460   0.73466   0.12823   0.00000  Uiso   1.00
C348   C     0.48243   0.92551   0.19518   0.00000  Uiso   1.00
C349   C     0.24272   0.67734   0.14381   0.00000  Uiso   1.00
C350   C     0.25869   0.98932   0.18908   0.00000  Uiso   1.00
C351   C     0.16443   0.82979   0.16726   0.00000  Uiso   1.00
C352   C     0.33522   0.83402   0.16538   0.00000  Uiso   1.00
C353   C     0.40931   0.87678   0.15797   0.00000  Uiso   1.00
C354   C     0.08891   0.78327   0.16669   0.00000  Uiso   1.00
C355   C     0.38305   0.83160   0.16150   0.00000  Uiso   1.00
C356   C     0.11581   0.83017   0.16929   0.00000  Uiso   1.00
C357   C     0.40214   0.78367   0.15740   0.00000  Uiso   1.00
C358   C     0.09582   0.87722   0.16940   0.00000  Uiso   1.00
C359   C     0.44866   0.78280   0.15158   0.00000  Uiso   1.00
C360   C     0.04918   0.87779   0.17413   0.00000  Uiso   1.00
C361   C     0.47561   0.83036   0.16179   0.00000  Uiso   1.00
C362   C     0.02244   0.83000   0.16287   0.00000  Uiso   1.00
C363   C     0.45566   0.87830   0.17138   0.00000  Uiso   1.00
C364   C     0.04235   0.78193   0.15192   0.00000  Uiso   1.00
C365   C     0.46858   0.73584   0.13394   0.00000  Uiso   1.00
C366   C     0.02878   0.92477   0.19208   0.00000  Uiso   1.00
Cu367  Cu    0.25500   0.83913   0.22813   0.00000  Uiso   1.00
Cu368  Cu    0.24499   0.82754   0.10521   0.00000  Uiso   1.00
H369   H     0.44804   0.69970   0.12263   0.00000  Uiso   1.00
H370   H     0.04903   0.96075   0.20765   0.00000  Uiso   1.00
N371   N     0.23744   0.81881   0.01284   0.00000  Uiso   1.00
N372   N     0.26255   0.84786   0.32049   0.00000  Uiso   1.00
O373   O     0.25325   0.76204   0.20659   0.00000  Uiso   1.00
O374   O     0.24674   0.90462   0.12674   0.00000  Uiso   1.00
O375   O     0.24480   0.75226   0.10279   0.00000  Uiso   1.00
O376   O     0.25520   0.91441   0.23055   0.00000  Uiso   1.00
O377   O     0.18935   0.83821   0.21857   0.00000  Uiso   1.00
O378   O     0.31064   0.82845   0.11476   0.00000  Uiso   1.00
O379   O     0.18090   0.82843   0.11477   0.00000  Uiso   1.00
O380   O     0.31910   0.83824   0.21857   0.00000  Uiso   1.00
C381   C     0.39057   0.91240   0.11962   0.00000  Uiso   1.00
C382   C     0.38772   0.88570   0.05173   0.00000  Uiso   1.00
H383   H     0.42128   0.87513   0.03760   0.00000  Uiso   1.00
H384   H     0.36470   0.84978   0.04130   0.00000  Uiso   1.00
H385   H     0.37568   0.91293   0.02443   0.00000  Uiso   1.00
H386   H     0.35736   0.92427   0.13383   0.00000  Uiso   1.00
H387   H     0.41214   0.94828   0.12291   0.00000  Uiso   1.00
C388   C     0.10766   0.73667   0.18581   0.00000  Uiso   1.00
C389   C     0.13857   0.74931   0.24346   0.00000  Uiso   1.00
H390   H     0.17283   0.74986   0.22921   0.00000  Uiso   1.00
H391   H     0.13196   0.78676   0.27438   0.00000  Uiso   1.00
H392   H     0.13494   0.71776   0.26879   0.00000  Uiso   1.00
H393   H     0.08005   0.71305   0.19921   0.00000  Uiso   1.00
H394   H     0.12436   0.71317   0.14758   0.00000  Uiso   1.00
C395   C     0.37233   0.73407   0.15533   0.00000  Uiso   1.00
C396   C     0.35526   0.70692   0.09005   0.00000  Uiso   1.00
H397   H     0.33488   0.73288   0.06931   0.00000  Uiso   1.00
H398   H     0.38330   0.69597   0.06120   0.00000  Uiso   1.00
H399   H     0.33410   0.67088   0.09040   0.00000  Uiso   1.00
H400   H     0.38990   0.70687   0.17725   0.00000  Uiso   1.00
H401   H     0.34341   0.74265   0.18308   0.00000  Uiso   1.00
C402   C     0.12343   0.92438   0.15790   0.00000  Uiso   1.00
C403   C     0.11804   0.92511   0.09033   0.00000  Uiso   1.00
H404   H     0.13238   0.96285   0.08306   0.00000  Uiso   1.00
H405   H     0.13553   0.89317   0.06291   0.00000  Uiso   1.00
H406   H     0.08231   0.91974   0.07361   0.00000  Uiso   1.00
H407   H     0.11496   0.96169   0.18626   0.00000  Uiso   1.00
H408   H     0.15935   0.92413   0.17098   0.00000  Uiso   1.00
C409   C     0.03286   0.68522   0.09096   0.00000  Uiso   1.00
C410   C     0.49813   0.97534   0.05654   0.00000  Uiso   1.00
H411   H     0.48324   0.95396   0.08837   0.00000  Uiso   1.00
H412   H     0.47114   0.99156   0.03324   0.00000  Uiso   1.00
H413   H     0.01427   0.94674   0.02227   0.00000  Uiso   1.00
H414   H     0.05469   0.69706   0.05754   0.00000  Uiso   1.00
H415   H     0.05307   0.99879   0.11930   0.00000  Uiso   1.00
C416   C     0.46212   0.97251   0.23392   0.00000  Uiso   1.00
C417   C     0.49445   0.68636   0.26424   0.00000  Uiso   1.00
H418   H     0.02232   0.67508   0.29123   0.00000  Uiso   1.00
H419   H     0.00856   0.70492   0.22971   0.00000  Uiso   1.00
H420   H     0.47638   0.71582   0.29479   0.00000  Uiso   1.00
H421   H     0.43663   0.98790   0.20802   0.00000  Uiso   1.00
H422   H     0.44455   0.95856   0.26988   0.00000  Uiso   1.00
O423   O     0.22045   0.97971   0.09124   0.00000  Uiso   1.00
H424   H     0.20807   0.66857   0.06532   0.00000  Uiso   1.00
O425   O     0.28212   0.68681   0.24083   0.00000  Uiso   1.00
H426   H     0.29497   0.99770   0.26611   0.00000  Uiso   1.00
O427   O     0.22596   0.77107   0.31200   0.00000  Uiso   1.00
H428   H     0.20932   0.75263   0.00516   0.00000  Uiso   1.00
O429   O     0.28050   0.89239   0.02395   0.00000  Uiso   1.00
H430   H     0.29487   0.91206   0.33001   0.00000  Uiso   1.00
C431   C     0.74764   0.73346   0.15135   0.00000  Uiso   1.00
C432   C     0.75300   0.93322   0.18189   0.00000  Uiso   1.00
C433   C     0.51460   0.73466   0.12823   0.00000  Uiso   1.00
C434   C     0.98243   0.92551   0.19518   0.00000  Uiso   1.00
C435   C     0.74272   0.67734   0.14381   0.00000  Uiso   1.00
C436   C     0.75869   0.98932   0.18908   0.00000  Uiso   1.00
C437   C     0.66443   0.82979   0.16726   0.00000  Uiso   1.00
C438   C     0.83522   0.83402   0.16538   0.00000  Uiso   1.00
C439   C     0.90931   0.87678   0.15797   0.00000  Uiso   1.00
C440   C     0.58891   0.78327   0.16669   0.00000  Uiso   1.00
C441   C     0.88305   0.83160   0.16150   0.00000  Uiso   1.00
C442   C     0.61581   0.83017   0.16929   0.00000  Uiso   1.00
C443   C     0.90214   0.78367   0.15740   0.00000  Uiso   1.00
C444   C     0.59582   0.87722   0.16940   0.00000  Uiso   1.00
C445   C     0.94866   0.78280   0.15158   0.00000  Uiso   1.00
C446   C     0.54918   0.87779   0.17413   0.00000  Uiso   1.00
C447   C     0.97561   0.83036   0.16179   0.00000  Uiso   1.00
C448   C     0.52244   0.83000   0.16287   0.00000  Uiso   1.00
C449   C     0.95566   0.87830   0.17138   0.00000  Uiso   1.00
C450   C     0.54235   0.78193   0.15192   0.00000  Uiso   1.00
C451   C     0.96858   0.73584   0.13394   0.00000  Uiso   1.00
C452   C     0.52878   0.92477   0.19208   0.00000  Uiso   1.00
Cu453  Cu    0.75500   0.83913   0.22813   0.00000  Uiso   1.00
Cu454  Cu    0.74499   0.82754   0.10521   0.00000  Uiso   1.00
H455   H     0.94804   0.69970   0.12263   0.00000  Uiso   1.00
H456   H     0.54903   0.96075   0.20765   0.00000  Uiso   1.00
N457   N     0.73744   0.81881   0.01284   0.00000  Uiso   1.00
N458   N     0.76255   0.84786   0.32049   0.00000  Uiso   1.00
O459   O     0.75325   0.76204   0.20659   0.00000  Uiso   1.00
O460   O     0.74674   0.90462   0.12674   0.00000  Uiso   1.00
O461   O     0.74480   0.75226   0.10279   0.00000  Uiso   1.00
O462   O     0.75520   0.91441   0.23055   0.00000  Uiso   1.00
O463   O     0.68935   0.83821   0.21857   0.00000  Uiso   1.00
O464   O     0.81064   0.82845   0.11476   0.00000  Uiso   1.00
O465   O     0.68090   0.82843   0.11477   0.00000  Uiso   1.00
O466   O     0.81910   0.83824   0.21857   0.00000  Uiso   1.00
C467   C     0.89057   0.91240   0.11962   0.00000  Uiso   1.00
C468   C     0.88772   0.88570   0.05173   0.00000  Uiso   1.00
H469   H     0.92128   0.87513   0.03760   0.00000  Uiso   1.00
H470   H     0.86470   0.84978   0.04130   0.00000  Uiso   1.00
H471   H     0.87568   0.91293   0.02443   0.00000  Uiso   1.00
H472   H     0.85736   0.92427   0.13383   0.00000  Uiso   1.00
H473   H     0.91214   0.94828   0.12291   0.00000  Uiso   1.00
C474   C     0.60766   0.73667   0.18581   0.00000  Uiso   1.00
C475   C     0.63857   0.74931   0.24346   0.00000  Uiso   1.00
H476   H     0.67283   0.74986   0.22921   0.00000  Uiso   1.00
H477   H     0.63196   0.78676   0.27438   0.00000  Uiso   1.00
H478   H     0.63494   0.71776   0.26879   0.00000  Uiso   1.00
H479   H     0.58005   0.71305   0.19921   0.00000  Uiso   1.00
H480   H     0.62436   0.71317   0.14758   0.00000  Uiso   1.00
C481   C     0.87233   0.73407   0.15533   0.00000  Uiso   1.00
C482   C     0.85526   0.70692   0.09005   0.00000  Uiso   1.00
H483   H     0.83488   0.73288   0.06931   0.00000  Uiso   1.00
H484   H     0.88330   0.69597   0.06120   0.00000  Uiso   1.00
H485   H     0.83410   0.67088   0.09040   0.00000  Uiso   1.00
H486   H     0.88990   0.70687   0.17725   0.00000  Uiso   1.00
H487   H     0.84341   0.74265   0.18308   0.00000  Uiso   1.00
C488   C     0.62343   0.92438   0.15790   0.00000  Uiso   1.00
C489   C     0.61804   0.92511   0.09033   0.00000  Uiso   1.00
H490   H     0.63238   0.96285   0.08306   0.00000  Uiso   1.00
H491   H     0.63553   0.89317   0.06291   0.00000  Uiso   1.00
H492   H     0.58231   0.91974   0.07361   0.00000  Uiso   1.00
H493   H     0.61496   0.96169   0.18626   0.00000  Uiso   1.00
H494   H     0.65935   0.92413   0.17098   0.00000  Uiso   1.00
C495   C     0.53286   0.68522   0.09096   0.00000  Uiso   1.00
C496   C     0.99813   0.97534   0.05654   0.00000  Uiso   1.00
H497   H     0.98324   0.95396   0.08837   0.00000  Uiso   1.00
H498   H     0.97114   0.99156   0.03324   0.00000  Uiso   1.00
H499   H     0.51427   0.94674   0.02227   0.00000  Uiso   1.00
H500   H     0.55469   0.69706   0.05754   0.00000  Uiso   1.00
H501   H     0.55307   0.99879   0.11930   0.00000  Uiso   1.00
C502   C     0.96212   0.97251   0.23392   0.00000  Uiso   1.00
C503   C     0.99445   0.68636   0.26424   0.00000  Uiso   1.00
H504   H     0.52232   0.67508   0.29123   0.00000  Uiso   1.00
H505   H     0.50856   0.70492   0.22971   0.00000  Uiso   1.00
H506   H     0.97638   0.71582   0.29479   0.00000  Uiso   1.00
H507   H     0.93663   0.98790   0.20802   0.00000  Uiso   1.00
H508   H     0.94455   0.95856   0.26988   0.00000  Uiso   1.00
O509   O     0.72045   0.97971   0.09124   0.00000  Uiso   1.00
H510   H     0.70807   0.66857   0.06532   0.00000  Uiso   1.00
O511   O     0.78212   0.68681   0.24083   0.00000  Uiso   1.00
H512   H     0.79497   0.99770   0.26611   0.00000  Uiso   1.00
O513   O     0.72596   0.77107   0.31200   0.00000  Uiso   1.00
H514   H     0.70932   0.75263   0.00516   0.00000  Uiso   1.00
O515   O     0.78050   0.89239   0.02395   0.00000  Uiso   1.00
H516   H     0.79487   0.91206   0.33001   0.00000  Uiso   1.00
C517   C     0.24764   0.06679   0.48468   0.00000  Uiso   1.00
C518   C     0.25300   0.26655   0.51522   0.00000  Uiso   1.00
C519   C     0.01460   0.06800   0.46156   0.00000  Uiso   1.00
C520   C     0.48243   0.25884   0.52852   0.00000  Uiso   1.00
C521   C     0.24272   0.01067   0.47714   0.00000  Uiso   1.00
C522   C     0.25869   0.32266   0.52241   0.00000  Uiso   1.00
C523   C     0.16443   0.16312   0.50059   0.00000  Uiso   1.00
C524   C     0.33522   0.16735   0.49871   0.00000  Uiso   1.00
C525   C     0.40931   0.21011   0.49131   0.00000  Uiso   1.00
C526   C     0.08891   0.11660   0.50003   0.00000  Uiso   1.00
C527   C     0.38305   0.16493   0.49483   0.00000  Uiso   1.00
C528   C     0.11581   0.16351   0.50262   0.00000  Uiso   1.00
C529   C     0.40214   0.11700   0.49073   0.00000  Uiso   1.00
C530   C     0.09582   0.21055   0.50273   0.00000  Uiso   1.00
C531   C     0.44866   0.11613   0.48492   0.00000  Uiso   1.00
C532   C     0.04918   0.21112   0.50747   0.00000  Uiso   1.00
C533   C     0.47561   0.16369   0.49512   0.00000  Uiso   1.00
C534   C     0.02244   0.16333   0.49620   0.00000  Uiso   1.00
C535   C     0.45566   0.21163   0.50472   0.00000  Uiso   1.00
C536   C     0.04235   0.11526   0.48525   0.00000  Uiso   1.00
C537   C     0.46858   0.06917   0.46727   0.00000  Uiso   1.00
C538   C     0.02878   0.25810   0.52541   0.00000  Uiso   1.00
Cu539  Cu    0.25500   0.17246   0.56146   0.00000  Uiso   1.00
Cu540  Cu    0.24499   0.16087   0.43854   0.00000  Uiso   1.00
H541   H     0.44804   0.03303   0.45596   0.00000  Uiso   1.00
H542   H     0.04903   0.29408   0.54098   0.00000  Uiso   1.00
N543   N     0.23744   0.15214   0.34617   0.00000  Uiso   1.00
N544   N     0.26255   0.18119   0.65383   0.00000  Uiso   1.00
O545   O     0.25325   0.09538   0.53992   0.00000  Uiso   1.00
O546   O     0.24674   0.23796   0.46008   0.00000  Uiso   1.00
O547   O     0.24480   0.08559   0.43612   0.00000  Uiso   1.00
O548   O     0.25520   0.24774   0.56388   0.00000  Uiso   1.00
O549   O     0.18935   0.17155   0.55191   0.00000  Uiso   1.00
O550   O     0.31064   0.16179   0.44809   0.00000  Uiso   1.00
O551   O     0.18090   0.16176   0.44810   0.00000  Uiso   1.00
O552   O     0.31910   0.17157   0.55190   0.00000  Uiso   1.00
C553   C     0.39057   0.24573   0.45296   0.00000  Uiso   1.00
C554   C     0.38772   0.21904   0.38507   0.00000  Uiso   1.00
H555   H     0.42128   0.20847   0.37093   0.00000  Uiso   1.00
H556   H     0.36470   0.18311   0.37463   0.00000  Uiso   1.00
H557   H     0.37568   0.24626   0.35776   0.00000  Uiso   1.00
H558   H     0.35736   0.25760   0.46716   0.00000  Uiso   1.00
H559   H     0.41214   0.28161   0.45624   0.00000  Uiso   1.00
C560   C     0.10766   0.07000   0.51915   0.00000  Uiso   1.00
C561   C     0.13857   0.08264   0.57679   0.00000  Uiso   1.00
H562   H     0.17283   0.08319   0.56255   0.00000  Uiso   1.00
H563   H     0.13196   0.12009   0.60771   0.00000  Uiso   1.00
H564   H     0.13494   0.05110   0.60212   0.00000  Uiso   1.00
H565   H     0.08005   0.04638   0.53255   0.00000  Uiso   1.00
H566   H     0.12436   0.04651   0.48091   0.00000  Uiso   1.00
C567   C     0.37233   0.06740   0.48866   0.00000  Uiso   1.00
C568   C     0.35526   0.04025   0.42338   0.00000  Uiso   1.00
H569   H     0.33488   0.06621   0.40264   0.00000  Uiso   1.00
H570   H     0.38330   0.02930   0.39454   0.00000  Uiso   1.00
H571   H     0.33410   0.00421   0.42374   0.00000  Uiso   1.00
H572   H     0.38990   0.04021   0.51059   0.00000  Uiso   1.00
H573   H     0.34341   0.07598   0.51641   0.00000  Uiso   1.00
C574   C     0.12343   0.25771   0.49123   0.00000  Uiso   1.00
C575   C     0.11804   0.25844   0.42366   0.00000  Uiso   1.00
H576   H     0.13238   0.29618   0.41639   0.00000  Uiso   1.00
H577   H     0.13553   0.22650   0.39625   0.00000  Uiso   1.00
H578   H     0.08231   0.25307   0.40694   0.00000  Uiso   1.00
H579   H     0.11496   0.29503   0.51959   0.00000  Uiso   1.00
H580   H     0.15935   0.25747   0.50431   0.00000  Uiso   1.00
C581   C     0.03286   0.01856   0.42429   0.00000  Uiso   1.00
C582   C     0.49813   0.30868   0.38988   0.00000  Uiso   1.00
H583   H     0.48324   0.28729   0.42171   0.00000  Uiso   1.00
H584   H     0.47114   0.32490   0.36657   0.00000  Uiso   1.00
H585   H     0.01427   0.28007   0.35561   0.00000  Uiso   1.00
H586   H     0.05469   0.03039   0.39087   0.00000  Uiso   1.00
H587   H     0.05307   0.33212   0.45264   0.00000  Uiso   1.00
C588   C     0.46212   0.30584   0.56725   0.00000  Uiso   1.00
C589   C     0.49445   0.01969   0.59758   0.00000  Uiso   1.00
H590   H     0.02232   0.00841   0.62456   0.00000  Uiso   1.00
H591   H     0.00856   0.03826   0.56304   0.00000  Uiso   1.00
H592   H     0.47638   0.04916   0.62813   0.00000  Uiso   1.00
H593   H     0.43663   0.32123   0.54136   0.00000  Uiso   1.00
H594   H     0.44455   0.29190   0.60321   0.00000  Uiso   1.00
O595   O     0.22045   0.31304   0.42457   0.00000  Uiso   1.00
H596   H     0.20807   0.00191   0.39865   0.00000  Uiso   1.00
O597   O     0.28212   0.02014   0.57417   0.00000  Uiso   1.00
H598   H     0.29497   0.33103   0.59945   0.00000  Uiso   1.00
O599   O     0.22596   0.10440   0.64534   0.00000  Uiso   1.00
H600   H     0.20932   0.08596   0.33849   0.00000  Uiso   1.00
O601   O     0.28050   0.22572   0.35728   0.00000  Uiso   1.00
H602   H     0.29487   0.24539   0.66335   0.00000  Uiso   1.00
C603   C     0.74764   0.06679   0.48468   0.00000  Uiso   1.00
C604   C     0.75300   0.26655   0.51522   0.00000  Uiso   1.00
C605   C     0.51460   0.06800   0.46156   0.00000  Uiso   1.00
C606   C     0.98243   0.25884   0.52852   0.00000  Uiso   1.00
C607   C     0.74272   0.01067   0.47714   0.00000  Uiso   1.00
C608   C     0.75869   0.32266   0.52241   0.00000  Uiso   1.00
C609   C     0.66443   0.16312   0.50059   0.00000  Uiso   1.00
C610   C     0.83522   0.16735   0.49871   0.00000  Uiso   1.00
C611   C     0.90931   0.21011   0.49131   0.00000  Uiso   1.00
C612   C     0.58891   0.11660   0.50003   0.00000  Uiso   1.00
C613   C     0.88305   0.16493   0.49483   0.00000  Uiso   1.00
C614   C     0.61581   0.16351   0.50262   0.00000  Uiso   1.00
C615   C     0.90214   0.11700   0.49073   0.00000  Uiso   1.00
C616   C     0.59582   0.21055   0.50273   0.00000  Uiso   1.00
C617   C     0.94866   0.11613   0.48492   0.00000  Uiso   1.00
C618   C     0.54918   0.21112   0.50747   0.00000  Uiso   1.00
C619   C     0.97561   0.16369   0.49512   0.00000  Uiso   1.00
C620   C     0.52244   0.16333   0.49620   0.00000  Uiso   1.00
C621   C     0.95566   0.21163   0.50472   0.00000  Uiso   1.00
C622   C     0.54235   0.11526   0.48525   0.00000  Uiso   1.00
C623   C     0.96858   0.06917   0.46727   0.00000  Uiso   1.00
C624   C     0.52878   0.25810   0.52541   0.00000  Uiso   1.00
Cu625  Cu    0.75500   0.17246   0.56146   0.00000  Uiso   1.00
Cu626  Cu    0.74499   0.16087   0.43854   0.00000  Uiso   1.00
H627   H     0.94804   0.03303   0.45596   0.00000  Uiso   1.00
H628   H     0.54903   0.29408   0.54098   0.00000  Uiso   1.00
N629   N     0.73744   0.15214   0.34617   0.00000  Uiso   1.00
N630   N     0.76255   0.18119   0.65383   0.00000  Uiso   1.00
O631   O     0.75325   0.09538   0.53992   0.00000  Uiso   1.00
O632   O     0.74674   0.23796   0.46008   0.00000  Uiso   1.00
O633   O     0.74480   0.08559   0.43612   0.00000  Uiso   1.00
O634   O     0.75520   0.24774   0.56388   0.00000  Uiso   1.00
O635   O     0.68935   0.17155   0.55191   0.00000  Uiso   1.00
O636   O     0.81064   0.16179   0.44809   0.00000  Uiso   1.00
O637   O     0.68090   0.16176   0.44810   0.00000  Uiso   1.00
O638   O     0.81910   0.17157   0.55190   0.00000  Uiso   1.00
C639   C     0.89057   0.24573   0.45296   0.00000  Uiso   1.00
C640   C     0.88772   0.21904   0.38507   0.00000  Uiso   1.00
H641   H     0.92128   0.20847   0.37093   0.00000  Uiso   1.00
H642   H     0.86470   0.18311   0.37463   0.00000  Uiso   1.00
H643   H     0.87568   0.24626   0.35776   0.00000  Uiso   1.00
H644   H     0.85736   0.25760   0.46716   0.00000  Uiso   1.00
H645   H     0.91214   0.28161   0.45624   0.00000  Uiso   1.00
C646   C     0.60766   0.07000   0.51915   0.00000  Uiso   1.00
C647   C     0.63857   0.08264   0.57679   0.00000  Uiso   1.00
H648   H     0.67283   0.08319   0.56255   0.00000  Uiso   1.00
H649   H     0.63196   0.12009   0.60771   0.00000  Uiso   1.00
H650   H     0.63494   0.05110   0.60212   0.00000  Uiso   1.00
H651   H     0.58005   0.04638   0.53255   0.00000  Uiso   1.00
H652   H     0.62436   0.04651   0.48091   0.00000  Uiso   1.00
C653   C     0.87233   0.06740   0.48866   0.00000  Uiso   1.00
C654   C     0.85526   0.04025   0.42338   0.00000  Uiso   1.00
H655   H     0.83488   0.06621   0.40264   0.00000  Uiso   1.00
H656   H     0.88330   0.02930   0.39454   0.00000  Uiso   1.00
H657   H     0.83410   0.00421   0.42374   0.00000  Uiso   1.00
H658   H     0.88990   0.04021   0.51059   0.00000  Uiso   1.00
H659   H     0.84341   0.07598   0.51641   0.00000  Uiso   1.00
C660   C     0.62343   0.25771   0.49123   0.00000  Uiso   1.00
C661   C     0.61804   0.25844   0.42366   0.00000  Uiso   1.00
H662   H     0.63238   0.29618   0.41639   0.00000  Uiso   1.00
H663   H     0.63553   0.22650   0.39625   0.00000  Uiso   1.00
H664   H     0.58231   0.25307   0.40694   0.00000  Uiso   1.00
H665   H     0.61496   0.29503   0.51959   0.00000  Uiso   1.00
H666   H     0.65935   0.25747   0.50431   0.00000  Uiso   1.00
C667   C     0.53286   0.01856   0.42429   0.00000  Uiso   1.00
C668   C     0.99813   0.30868   0.38988   0.00000  Uiso   1.00
H669   H     0.98324   0.28729   0.42171   0.00000  Uiso   1.00
H670   H     0.97114   0.32490   0.36657   0.00000  Uiso   1.00
H671   H     0.51427   0.28007   0.35561   0.00000  Uiso   1.00
H672   H     0.55469   0.03039   0.39087   0.00000  Uiso   1.00
H673   H     0.55307   0.33212   0.45264   0.00000  Uiso   1.00
C674   C     0.96212   0.30584   0.56725   0.00000  Uiso   1.00
C675   C     0.99445   0.01969   0.59758   0.00000  Uiso   1.00
H676   H     0.52232   0.00841   0.62456   0.00000  Uiso   1.00
H677   H     0.50856   0.03826   0.56304   0.00000  Uiso   1.00
H678   H     0.97638   0.04916   0.62813   0.00000  Uiso   1.00
H679   H     0.93663   0.32123   0.54136   0.00000  Uiso   1.00
H680   H     0.94455   0.29190   0.60321   0.00000  Uiso   1.00
O681   O     0.72045   0.31304   0.42457   0.00000  Uiso   1.00
H682   H     0.70807   0.00191   0.39865   0.00000  Uiso   1.00
O683   O     0.78212   0.02014   0.57417   0.00000  Uiso   1.00
H684   H     0.79497   0.33103   0.59945   0.00000  Uiso   1.00
O685   O     0.72596   0.10440   0.64534   0.00000  Uiso   1.00
H686   H     0.70932   0.08596   0.33849   0.00000  Uiso   1.00
O687   O     0.78050   0.22572   0.35728   0.00000  Uiso   1.00
H688   H     0.79487   0.24539   0.66335   0.00000  Uiso   1.00
C689   C     0.24764   0.40012   0.48468   0.00000  Uiso   1.00
C690   C     0.25300   0.59989   0.51522   0.00000  Uiso   1.00
C691   C     0.01460   0.40133   0.46156   0.00000  Uiso   1.00
C692   C     0.48243   0.59218   0.52852   0.00000  Uiso   1.00
C693   C     0.24272   0.34401   0.47714   0.00000  Uiso   1.00
C694   C     0.25869   0.65599   0.52241   0.00000  Uiso   1.00
C695   C     0.16443   0.49645   0.50059   0.00000  Uiso   1.00
C696   C     0.33522   0.50069   0.49871   0.00000  Uiso   1.00
C697   C     0.40931   0.54344   0.49131   0.00000  Uiso   1.00
C698   C     0.08891   0.44994   0.50003   0.00000  Uiso   1.00
C699   C     0.38305   0.49827   0.49483   0.00000  Uiso   1.00
C700   C     0.11581   0.49684   0.50262   0.00000  Uiso   1.00
C701   C     0.40214   0.45034   0.49073   0.00000  Uiso   1.00
C702   C     0.09582   0.54388   0.50273   0.00000  Uiso   1.00
C703   C     0.44866   0.44947   0.48492   0.00000  Uiso   1.00
C704   C     0.04918   0.54445   0.50747   0.00000  Uiso   1.00
C705   C     0.47561   0.49703   0.49512   0.00000  Uiso   1.00
C706   C     0.02244   0.49667   0.49620   0.00000  Uiso   1.00
C707   C     0.45566   0.54497   0.50472   0.00000  Uiso   1.00
C708   C     0.04235   0.44859   0.48525   0.00000  Uiso   1.00
C709   C     0.46858   0.40250   0.46727   0.00000  Uiso   1.00
C710   C     0.02878   0.59144   0.52541   0.00000  Uiso   1.00
Cu711  Cu    0.25500   0.50579   0.56146   0.00000  Uiso   1.00
Cu712  Cu    0.24499   0.49421   0.43854   0.00000  Uiso   1.00
H713   H     0.44804   0.36636   0.45596   0.00000  Uiso   1.00
H714   H     0.04903   0.62741   0.54098   0.00000  Uiso   1.00
N715   N     0.23744   0.48547   0.34617   0.00000  Uiso   1.00
N716   N     0.26255   0.51453   0.65383   0.00000  Uiso   1.00
O717   O     0.25325   0.42871   0.53992   0.00000  Uiso   1.00
O718   O     0.24674   0.57129   0.46008   0.00000  Uiso   1.00
O719   O     0.24480   0.41892   0.43612   0.00000  Uiso   1.00
O720   O     0.25520   0.58108   0.56388   0.00000  Uiso   1.00
O721   O     0.18935   0.50488   0.55191   0.00000  Uiso   1.00
O722   O     0.31064   0.49512   0.44809   0.00000  Uiso   1.00
O723   O     0.18090   0.49510   0.44810   0.00000  Uiso   1.00
O724   O     0.31910   0.50490   0.55190   0.00000  Uiso   1.00
C725   C     0.39057   0.57907   0.45296   0.00000  Uiso   1.00
C726   C     0.38772   0.55237   0.38507   0.00000  Uiso   1.00
H727   H     0.42128   0.54180   0.37093   0.00000  Uiso   1.00
H728   H     0.36470   0.51644   0.37463   0.00000  Uiso   1.00
H729   H     0.37568   0.57959   0.35776   0.00000  Uiso   1.00
H730   H     0.35736   0.59093   0.46716   0.00000  Uiso   1.00
H731   H     0.41214   0.61494   0.45624   0.00000  Uiso   1.00
C732   C     0.10766   0.40334   0.51915   0.00000  Uiso   1.00
C733   C     0.13857   0.41598   0.57679   0.00000  Uiso   1.00
H734   H     0.17283   0.41653   0.56255   0.00000  Uiso   1.00
H735   H     0.13196   0.45343   0.60771   0.00000  Uiso   1.00
H736   H     0.13494   0.38443   0.60212   0.00000  Uiso   1.00
H737   H     0.08005   0.37972   0.53255   0.00000  Uiso   1.00
H738   H     0.12436   0.37984   0.48091   0.00000  Uiso   1.00
C739   C     0.37233   0.40073   0.48866   0.00000  Uiso   1.00
C740   C     0.35526   0.37358   0.42338   0.00000  Uiso   1.00
H741   H     0.33488   0.39954   0.40264   0.00000  Uiso   1.00
H742   H     0.38330   0.36263   0.39454   0.00000  Uiso   1.00
H743   H     0.33410   0.33755   0.42374   0.00000  Uiso   1.00
H744   H     0.38990   0.37354   0.51059   0.00000  Uiso   1.00
H745   H     0.34341   0.40931   0.51641   0.00000  Uiso   1.00
C746   C     0.12343   0.59105   0.49123   0.00000  Uiso   1.00
C747   C     0.11804   0.59177   0.42366   0.00000  Uiso   1.00
H748   H     0.13238   0.62951   0.41639   0.00000  Uiso   1.00
H749   H     0.13553   0.55983   0.39625   0.00000  Uiso   1.00
H750   H     0.08231   0.58640   0.40694   0.00000  Uiso   1.00
H751   H     0.11496   0.62836   0.51959   0.00000  Uiso   1.00
H752   H     0.15935   0.59080   0.50431   0.00000  Uiso   1.00
C753   C     0.03286   0.35189   0.42429   0.00000  Uiso   1.00
C754   C     0.49813   0.64201   0.38988   0.00000  Uiso   1.00
H755   H     0.48324   0.62062   0.42171   0.00000  Uiso   1.00
H756   H     0.47114   0.65823   0.36657   0.00000  Uiso   1.00
H757   H     0.01427   0.61341   0.35561   0.00000  Uiso   1.00
H758   H     0.05469   0.36373   0.39087   0.00000  Uiso   1.00
H759   H     0.05307   0.66546   0.45264   0.00000  Uiso   1.00
C760   C     0.46212   0.63917   0.56725   0.00000  Uiso   1.00
C761   C     0.49445   0.35303   0.59758   0.00000  Uiso   1.00
H762   H     0.02232   0.34175   0.62456   0.00000  Uiso   1.00
H763   H     0.00856   0.37159   0.56304   0.00000  Uiso   1.00
H764   H     0.47638   0.38249   0.62813   0.00000  Uiso   1.00
H765   H     0.43663   0.65457   0.54136   0.00000  Uiso   1.00
H766   H     0.44455   0.62523   0.60321   0.00000  Uiso   1.00
O767   O     0.22045   0.64637   0.42457   0.00000  Uiso   1.00
H768   H     0.20807   0.33524   0.39865   0.00000  Uiso   1.00
O769   O     0.28212   0.35347   0.57417   0.00000  Uiso   1.00
H770   H     0.29497   0.66437   0.59945   0.00000  Uiso   1.00
O771   O     0.22596   0.43773   0.64534   0.00000  Uiso   1.00
H772   H     0.20932   0.41929   0.33849   0.00000  Uiso   1.00
O773   O     0.28050   0.55905   0.35728   0.00000  Uiso   1.00
H774   H     0.29487   0.57873   0.66335   0.00000  Uiso   1.00
C775   C     0.74764   0.40012   0.48468   0.00000  Uiso   1.00
C776   C     0.75300   0.59989   0.51522   0.00000  Uiso   1.00
C777   C     0.51460   0.40133   0.46156   0.00000  Uiso   1.00
C778   C     0.98243   0.59218   0.52852   0.00000  Uiso   1.00
C779   C     0.74272   0.34401   0.47714   0.00000  Uiso   1.00
C780   C     0.75869   0.65599   0.52241   0.00000  Uiso   1.00
C781   C     0.66443   0.49645   0.50059   0.00000  Uiso   1.00
C782   C     0.83522   0.50069   0.49871   0.00000  Uiso   1.00
C783   C     0.90931   0.54344   0.49131   0.00000  Uiso   1.00
C784   C     0.58891   0.44994   0.50003   0.00000  Uiso   1.00
C785   C     0.88305   0.49827   0.49483   0.00000  Uiso   1.00
C786   C     0.61581   0.49684   0.50262   0.00000  Uiso   1.00
C787   C     0.90214   0.45034   0.49073   0.00000  Uiso   1.00
C788   C     0.59582   0.54388   0.50273   0.00000  Uiso   1.00
C789   C     0.94866   0.44947   0.48492   0.00000  Uiso   1.00
C790   C     0.54918   0.54445   0.50747   0.00000  Uiso   1.00
C791   C     0.97561   0.49703   0.49512   0.00000  Uiso   1.00
C792   C     0.52244   0.49667   0.49620   0.00000  Uiso   1.00
C793   C     0.95566   0.54497   0.50472   0.00000  Uiso   1.00
C794   C     0.54235   0.44859   0.48525   0.00000  Uiso   1.00
C795   C     0.96858   0.40250   0.46727   0.00000  Uiso   1.00
C796   C     0.52878   0.59144   0.52541   0.00000  Uiso   1.00
Cu797  Cu    0.75500   0.50579   0.56146   0.00000  Uiso   1.00
Cu798  Cu    0.74499   0.49421   0.43854   0.00000  Uiso   1.00
H799   H     0.94804   0.36636   0.45596   0.00000  Uiso   1.00
H800   H     0.54903   0.62741   0.54098   0.00000  Uiso   1.00
N801   N     0.73744   0.48547   0.34617   0.00000  Uiso   1.00
N802   N     0.76255   0.51453   0.65383   0.00000  Uiso   1.00
O803   O     0.75325   0.42871   0.53992   0.00000  Uiso   1.00
O804   O     0.74674   0.57129   0.46008   0.00000  Uiso   1.00
O805   O     0.74480   0.41892   0.43612   0.00000  Uiso   1.00
O806   O     0.75520   0.58108   0.56388   0.00000  Uiso   1.00
O807   O     0.68935   0.50488   0.55191   0.00000  Uiso   1.00
O808   O     0.81064   0.49512   0.44809   0.00000  Uiso   1.00
O809   O     0.68090   0.49510   0.44810   0.00000  Uiso   1.00
O810   O     0.81910   0.50490   0.55190   0.00000  Uiso   1.00
C811   C     0.89057   0.57907   0.45296   0.00000  Uiso   1.00
C812   C     0.88772   0.55237   0.38507   0.00000  Uiso   1.00
H813   H     0.92128   0.54180   0.37093   0.00000  Uiso   1.00
H814   H     0.86470   0.51644   0.37463   0.00000  Uiso   1.00
H815   H     0.87568   0.57959   0.35776   0.00000  Uiso   1.00
H816   H     0.85736   0.59093   0.46716   0.00000  Uiso   1.00
H817   H     0.91214   0.61494   0.45624   0.00000  Uiso   1.00
C818   C     0.60766   0.40334   0.51915   0.00000  Uiso   1.00
C819   C     0.63857   0.41598   0.57679   0.00000  Uiso   1.00
H820   H     0.67283   0.41653   0.56255   0.00000  Uiso   1.00
H821   H     0.63196   0.45343   0.60771   0.00000  Uiso   1.00
H822   H     0.63494   0.38443   0.60212   0.00000  Uiso   1.00
H823   H     0.58005   0.37972   0.53255   0.00000  Uiso   1.00
H824   H     0.62436   0.37984   0.48091   0.00000  Uiso   1.00
C825   C     0.87233   0.40073   0.48866   0.00000  Uiso   1.00
C826   C     0.85526   0.37358   0.42338   0.00000  Uiso   1.00
H827   H     0.83488   0.39954   0.40264   0.00000  Uiso   1.00
H828   H     0.88330   0.36263   0.39454   0.00000  Uiso   1.00
H829   H     0.83410   0.33755   0.42374   0.00000  Uiso   1.00
H830   H     0.88990   0.37354   0.51059   0.00000  Uiso   1.00
H831   H     0.84341   0.40931   0.51641   0.00000  Uiso   1.00
C832   C     0.62343   0.59105   0.49123   0.00000  Uiso   1.00
C833   C     0.61804   0.59177   0.42366   0.00000  Uiso   1.00
H834   H     0.63238   0.62951   0.41639   0.00000  Uiso   1.00
H835   H     0.63553   0.55983   0.39625   0.00000  Uiso   1.00
H836   H     0.58231   0.58640   0.40694   0.00000  Uiso   1.00
H837   H     0.61496   0.62836   0.51959   0.00000  Uiso   1.00
H838   H     0.65935   0.59080   0.50431   0.00000  Uiso   1.00
C839   C     0.53286   0.35189   0.42429   0.00000  Uiso   1.00
C840   C     0.99813   0.64201   0.38988   0.00000  Uiso   1.00
H841   H     0.98324   0.62062   0.42171   0.00000  Uiso   1.00
H842   H     0.97114   0.65823   0.36657   0.00000  Uiso   1.00
H843   H     0.51427   0.61341   0.35561   0.00000  Uiso   1.00
H844   H     0.55469   0.36373   0.39087   0.00000  Uiso   1.00
H845   H     0.55307   0.66546   0.45264   0.00000  Uiso   1.00
C846   C     0.96212   0.63917   0.56725   0.00000  Uiso   1.00
C847   C     0.99445   0.35303   0.59758   0.00000  Uiso   1.00
H848   H     0.52232   0.34175   0.62456   0.00000  Uiso   1.00
H849   H     0.50856   0.37159   0.56304   0.00000  Uiso   1.00
H850   H     0.97638   0.38249   0.62813   0.00000  Uiso   1.00
H851   H     0.93663   0.65457   0.54136   0.00000  Uiso   1.00
H852   H     0.94455   0.62523   0.60321   0.00000  Uiso   1.00
O853   O     0.72045   0.64637   0.42457   0.00000  Uiso   1.00
H854   H     0.70807   0.33524   0.39865   0.00000  Uiso   1.00
O855   O     0.78212   0.35347   0.57417   0.00000  Uiso   1.00
H856   H     0.79497   0.66437   0.59945   0.00000  Uiso   1.00
O857   O     0.72596   0.43773   0.64534   0.00000  Uiso   1.00
H858   H     0.70932   0.41929   0.33849   0.00000  Uiso   1.00
O859   O     0.78050   0.55905   0.35728   0.00000  Uiso   1.00
H860   H     0.79487   0.57873   0.66335   0.00000  Uiso   1.00
C861   C     0.24764   0.73346   0.48468   0.00000  Uiso   1.00
C862   C     0.25300   0.93322   0.51522   0.00000  Uiso   1.00
C863   C     0.01460   0.73466   0.46156   0.00000  Uiso   1.00
C864   C     0.48243   0.92551   0.52852   0.00000  Uiso   1.00
C865   C     0.24272   0.67734   0.47714   0.00000  Uiso   1.00
C866   C     0.25869   0.98932   0.52241   0.00000  Uiso   1.00
C867   C     0.16443   0.82979   0.50059   0.00000  Uiso   1.00
C868   C     0.33522   0.83402   0.49871   0.00000  Uiso   1.00
C869   C     0.40931   0.87678   0.49131   0.00000  Uiso   1.00
C870   C     0.08891   0.78327   0.50003   0.00000  Uiso   1.00
C871   C     0.38305   0.83160   0.49483   0.00000  Uiso   1.00
C872   C     0.11581   0.83017   0.50262   0.00000  Uiso   1.00
C873   C     0.40214   0.78367   0.49073   0.00000  Uiso   1.00
C874   C     0.09582   0.87722   0.50273   0.00000  Uiso   1.00
C875   C     0.44866   0.78280   0.48492   0.00000  Uiso   1.00
C876   C     0.04918   0.87779   0.50747   0.00000  Uiso   1.00
C877   C     0.47561   0.83036   0.49512   0.00000  Uiso   1.00
C878   C     0.02244   0.83000   0.49620   0.00000  Uiso   1.00
C879   C     0.45566   0.87830   0.50472   0.00000  Uiso   1.00
C880   C     0.04235   0.78193   0.48525   0.00000  Uiso   1.00
C881   C     0.46858   0.73584   0.46727   0.00000  Uiso   1.00
C882   C     0.02878   0.92477   0.52541   0.00000  Uiso   1.00
Cu883  Cu    0.25500   0.83913   0.56146   0.00000  Uiso   1.00
Cu884  Cu    0.24499   0.82754   0.43854   0.00000  Uiso   1.00
H885   H     0.44804   0.69970   0.45596   0.00000  Uiso   1.00
H886   H     0.04903   0.96075   0.54098   0.00000  Uiso   1.00
N887   N     0.23744   0.81881   0.34617   0.00000  Uiso   1.00
N888   N     0.26255   0.84786   0.65383   0.00000  Uiso   1.00
O889   O     0.25325   0.76204   0.53992   0.00000  Uiso   1.00
O890   O     0.24674   0.90462   0.46008   0.00000  Uiso   1.00
O891   O     0.24480   0.75226   0.43612   0.00000  Uiso   1.00
O892   O     0.25520   0.91441   0.56388   0.00000  Uiso   1.00
O893   O     0.18935   0.83821   0.55191   0.00000  Uiso   1.00
O894   O     0.31064   0.82845   0.44809   0.00000  Uiso   1.00
O895   O     0.18090   0.82843   0.44810   0.00000  Uiso   1.00
O896   O     0.31910   0.83824   0.55190   0.00000  Uiso   1.00
C897   C     0.39057   0.91240   0.45296   0.00000  Uiso   1.00
C898   C     0.38772   0.88570   0.38507   0.00000  Uiso   1.00
H899   H     0.42128   0.87513   0.37093   0.00000  Uiso   1.00
H900   H     0.36470   0.84978   0.37463   0.00000  Uiso   1.00
H901   H     0.37568   0.91293   0.35776   0.00000  Uiso   1.00
H902   H     0.35736   0.92427   0.46716   0.00000  Uiso   1.00
H903   H     0.41214   0.94828   0.45624   0.00000  Uiso   1.00
C904   C     0.10766   0.73667   0.51915   0.00000  Uiso   1.00
C905   C     0.13857   0.74931   0.57679   0.00000  Uiso   1.00
H906   H     0.17283   0.74986   0.56255   0.00000  Uiso   1.00
H907   H     0.13196   0.78676   0.60771   0.00000  Uiso   1.00
H908   H     0.13494   0.71776   0.60212   0.00000  Uiso   1.00
H909   H     0.08005   0.71305   0.53255   0.00000  Uiso   1.00
H910   H     0.12436   0.71317   0.48091   0.00000  Uiso   1.00
C911   C     0.37233   0.73407   0.48866   0.00000  Uiso   1.00
C912   C     0.35526   0.70692   0.42338   0.00000  Uiso   1.00
H913   H     0.33488   0.73288   0.40264   0.00000  Uiso   1.00
H914   H     0.38330   0.69597   0.39454   0.00000  Uiso   1.00
H915   H     0.33410   0.67088   0.42374   0.00000  Uiso   1.00
H916   H     0.38990   0.70687   0.51059   0.00000  Uiso   1.00
H917   H     0.34341   0.74265   0.51641   0.00000  Uiso   1.00
C918   C     0.12343   0.92438   0.49123   0.00000  Uiso   1.00
C919   C     0.11804   0.92511   0.42366   0.00000  Uiso   1.00
H920   H     0.13238   0.96285   0.41639   0.00000  Uiso   1.00
H921   H     0.13553   0.89317   0.39625   0.00000  Uiso   1.00
H922   H     0.08231   0.91974   0.40694   0.00000  Uiso   1.00
H923   H     0.11496   0.96169   0.51959   0.00000  Uiso   1.00
H924   H     0.15935   0.92413   0.50431   0.00000  Uiso   1.00
C925   C     0.03286   0.68522   0.42429   0.00000  Uiso   1.00
C926   C     0.49813   0.97534   0.38988   0.00000  Uiso   1.00
H927   H     0.48324   0.95396   0.42171   0.00000  Uiso   1.00
H928   H     0.47114   0.99156   0.36657   0.00000  Uiso   1.00
H929   H     0.01427   0.94674   0.35561   0.00000  Uiso   1.00
H930   H     0.05469   0.69706   0.39087   0.00000  Uiso   1.00
H931   H     0.05307   0.99879   0.45264   0.00000  Uiso   1.00
C932   C     0.46212   0.97251   0.56725   0.00000  Uiso   1.00
C933   C     0.49445   0.68636   0.59758   0.00000  Uiso   1.00
H934   H     0.02232   0.67508   0.62456   0.00000  Uiso   1.00
H935   H     0.00856   0.70492   0.56304   0.00000  Uiso   1.00
H936   H     0.47638   0.71582   0.62813   0.00000  Uiso   1.00
H937   H     0.43663   0.98790   0.54136   0.00000  Uiso   1.00
H938   H     0.44455   0.95856   0.60321   0.00000  Uiso   1.00
O939   O     0.22045   0.97971   0.42457   0.00000  Uiso   1.00
H940   H     0.20807   0.66857   0.39865   0.00000  Uiso   1.00
O941   O     0.28212   0.68681   0.57417   0.00000  Uiso   1.00
H942   H     0.29497   0.99770   0.59945   0.00000  Uiso   1.00
O943   O     0.22596   0.77107   0.64534   0.00000  Uiso   1.00
H944   H     0.20932   0.75263   0.33849   0.00000  Uiso   1.00
O945   O     0.28050   0.89239   0.35728   0.00000  Uiso   1.00
H946   H     0.29487   0.91206   0.66335   0.00000  Uiso   1.00
C947   C     0.74764   0.73346   0.48468   0.00000  Uiso   1.00
C948   C     0.75300   0.93322   0.51522   0.00000  Uiso   1.00
C949   C     0.51460   0.73466   0.46156   0.00000  Uiso   1.00
C950   C     0.98243   0.92551   0.52852   0.00000  Uiso   1.00
C951   C     0.74272   0.67734   0.47714   0.00000  Uiso   1.00
C952   C     0.75869   0.98932   0.52241   0.00000  Uiso   1.00
C953   C     0.66443   0.82979   0.50059   0.00000  Uiso   1.00
C954   C     0.83522   0.83402   0.49871   0.00000  Uiso   1.00
C955   C     0.90931   0.87678   0.49131   0.00000  Uiso   1.00
C956   C     0.58891   0.78327   0.50003   0.00000  Uiso   1.00
C957   C     0.88305   0.83160   0.49483   0.00000  Uiso   1.00
C958   C     0.61581   0.83017   0.50262   0.00000  Uiso   1.00
C959   C     0.90214   0.78367   0.49073   0.00000  Uiso   1.00
C960   C     0.59582   0.87722   0.50273   0.00000  Uiso   1.00
C961   C     0.94866   0.78280   0.48492   0.00000  Uiso   1.00
C962   C     0.54918   0.87779   0.50747   0.00000  Uiso   1.00
C963   C     0.97561   0.83036   0.49512   0.00000  Uiso   1.00
C964   C     0.52244   0.83000   0.49620   0.00000  Uiso   1.00
C965   C     0.95566   0.87830   0.50472   0.00000  Uiso   1.00
C966   C     0.54235   0.78193   0.48525   0.00000  Uiso   1.00
C967   C     0.96858   0.73584   0.46727   0.00000  Uiso   1.00
C968   C     0.52878   0.92477   0.52541   0.00000  Uiso   1.00
Cu969  Cu    0.75500   0.83913   0.56146   0.00000  Uiso   1.00
Cu970  Cu    0.74499   0.82754   0.43854   0.00000  Uiso   1.00
H971   H     0.94804   0.69970   0.45596   0.00000  Uiso   1.00
H972   H     0.54903   0.96075   0.54098   0.00000  Uiso   1.00
N973   N     0.73744   0.81881   0.34617   0.00000  Uiso   1.00
N974   N     0.76255   0.84786   0.65383   0.00000  Uiso   1.00
O975   O     0.75325   0.76204   0.53992   0.00000  Uiso   1.00
O976   O     0.74674   0.90462   0.46008   0.00000  Uiso   1.00
O977   O     0.74480   0.75226   0.43612   0.00000  Uiso   1.00
O978   O     0.75520   0.91441   0.56388   0.00000  Uiso   1.00
O979   O     0.68935   0.83821   0.55191   0.00000  Uiso   1.00
O980   O     0.81064   0.82845   0.44809   0.00000  Uiso   1.00
O981   O     0.68090   0.82843   0.44810   0.00000  Uiso   1.00
O982   O     0.81910   0.83824   0.55190   0.00000  Uiso   1.00
C983   C     0.89057   0.91240   0.45296   0.00000  Uiso   1.00
C984   C     0.88772   0.88570   0.38507   0.00000  Uiso   1.00
H985   H     0.92128   0.87513   0.37093   0.00000  Uiso   1.00
H986   H     0.86470   0.84978   0.37463   0.00000  Uiso   1.00
H987   H     0.87568   0.91293   0.35776   0.00000  Uiso   1.00
H988   H     0.85736   0.92427   0.46716   0.00000  Uiso   1.00
H989   H     0.91214   0.94828   0.45624   0.00000  Uiso   1.00
C990   C     0.60766   0.73667   0.51915   0.00000  Uiso   1.00
C991   C     0.63857   0.74931   0.57679   0.00000  Uiso   1.00
H992   H     0.67283   0.74986   0.56255   0.00000  Uiso   1.00
H993   H     0.63196   0.78676   0.60771   0.00000  Uiso   1.00
H994   H     0.63494   0.71776   0.60212   0.00000  Uiso   1.00
H995   H     0.58005   0.71305   0.53255   0.00000  Uiso   1.00
H996   H     0.62436   0.71317   0.48091   0.00000  Uiso   1.00
C997   C     0.87233   0.73407   0.48866   0.00000  Uiso   1.00
C998   C     0.85526   0.70692   0.42338   0.00000  Uiso   1.00
H999   H     0.83488   0.73288   0.40264   0.00000  Uiso   1.00
H1000  H     0.88330   0.69597   0.39454   0.00000  Uiso   1.00
H1001  H     0.83410   0.67088   0.42374   0.00000  Uiso   1.00
H1002  H     0.88990   0.70687   0.51059   0.00000  Uiso   1.00
H1003  H     0.84341   0.74265   0.51641   0.00000  Uiso   1.00
C1004  C     0.62343   0.92438   0.49123   0.00000  Uiso   1.00
C1005  C     0.61804   0.92511   0.42366   0.00000  Uiso   1.00
H1006  H     0.63238   0.96285   0.41639   0.00000  Uiso   1.00
H1007  H     0.63553   0.89317   0.39625   0.00000  Uiso   1.00
H1008  H     0.58231   0.91974   0.40694   0.00000  Uiso   1.00
H1009  H     0.61496   0.96169   0.51959   0.00000  Uiso   1.00
H1010  H     0.65935   0.92413   0.50431   0.00000  Uiso   1.00
C1011  C     0.53286   0.68522   0.42429   0.00000  Uiso   1.00
C1012  C     0.99813   0.97534   0.38988   0.00000  Uiso   1.00
H1013  H     0.98324   0.95396   0.42171   0.00000  Uiso   1.00
H1014  H     0.97114   0.99156   0.36657   0.00000  Uiso   1.00
H1015  H     0.51427   0.94674   0.35561   0.00000  Uiso   1.00
H1016  H     0.55469   0.69706   0.39087   0.00000  Uiso   1.00
H1017  H     0.55307   0.99879   0.45264   0.00000  Uiso   1.00
C1018  C     0.96212   0.97251   0.56725   0.00000  Uiso   1.00
C1019  C     0.99445   0.68636   0.59758   0.00000  Uiso   1.00
H1020  H     0.52232   0.67508   0.62456   0.00000  Uiso   1.00
H1021  H     0.50856   0.70492   0.56304   0.00000  Uiso   1.00
H1022  H     0.97638   0.71582   0.62813   0.00000  Uiso   1.00
H1023  H     0.93663   0.98790   0.54136   0.00000  Uiso   1.00
H1024  H     0.94455   0.95856   0.60321   0.00000  Uiso   1.00
O1025  O     0.72045   0.97971   0.42457   0.00000  Uiso   1.00
H1026  H     0.70807   0.66857   0.39865   0.00000  Uiso   1.00
O1027  O     0.78212   0.68681   0.57417   0.00000  Uiso   1.00
H1028  H     0.79497   0.99770   0.59945   0.00000  Uiso   1.00
O1029  O     0.72596   0.77107   0.64534   0.00000  Uiso   1.00
H1030  H     0.70932   0.75263   0.33849   0.00000  Uiso   1.00
O1031  O     0.78050   0.89239   0.35728   0.00000  Uiso   1.00
H1032  H     0.79487   0.91206   0.66335   0.00000  Uiso   1.00
C1033  C     0.24764   0.06679   0.81801   0.00000  Uiso   1.00
C1034  C     0.25300   0.26655   0.84856   0.00000  Uiso   1.00
C1035  C     0.01460   0.06800   0.79489   0.00000  Uiso   1.00
C1036  C     0.48243   0.25884   0.86185   0.00000  Uiso   1.00
C1037  C     0.24272   0.01067   0.81048   0.00000  Uiso   1.00
C1038  C     0.25869   0.32266   0.85575   0.00000  Uiso   1.00
C1039  C     0.16443   0.16312   0.83393   0.00000  Uiso   1.00
C1040  C     0.33522   0.16735   0.83204   0.00000  Uiso   1.00
C1041  C     0.40931   0.21011   0.82464   0.00000  Uiso   1.00
C1042  C     0.08891   0.11660   0.83336   0.00000  Uiso   1.00
C1043  C     0.38305   0.16493   0.82817   0.00000  Uiso   1.00
C1044  C     0.11581   0.16351   0.83595   0.00000  Uiso   1.00
C1045  C     0.40214   0.11700   0.82406   0.00000  Uiso   1.00
C1046  C     0.09582   0.21055   0.83606   0.00000  Uiso   1.00
C1047  C     0.44866   0.11613   0.81825   0.00000  Uiso   1.00
C1048  C     0.04918   0.21112   0.84080   0.00000  Uiso   1.00
C1049  C     0.47561   0.16369   0.82845   0.00000  Uiso   1.00
C1050  C     0.02244   0.16333   0.82954   0.00000  Uiso   1.00
C1051  C     0.45566   0.21163   0.83805   0.00000  Uiso   1.00
C1052  C     0.04235   0.11526   0.81858   0.00000  Uiso   1.00
C1053  C     0.46858   0.06917   0.80060   0.00000  Uiso   1.00
C1054  C     0.02878   0.25810   0.85875   0.00000  Uiso   1.00
Cu1055 Cu    0.25500   0.17246   0.89479   0.00000  Uiso   1.00
Cu1056 Cu    0.24499   0.16087   0.77187   0.00000  Uiso   1.00
H1057  H     0.44804   0.03303   0.78929   0.00000  Uiso   1.00
H1058  H     0.04903   0.29408   0.87431   0.00000  Uiso   1.00
N1059  N     0.23744   0.15214   0.67951   0.00000  Uiso   1.00
N1060  N     0.26255   0.18119   0.98716   0.00000  Uiso   1.00
O1061  O     0.25325   0.09538   0.87326   0.00000  Uiso   1.00
O1062  O     0.24674   0.23796   0.79341   0.00000  Uiso   1.00
O1063  O     0.24480   0.08559   0.76945   0.00000  Uiso   1.00
O1064  O     0.25520   0.24774   0.89721   0.00000  Uiso   1.00
O1065  O     0.18935   0.17155   0.88524   0.00000  Uiso   1.00
O1066  O     0.31064   0.16179   0.78143   0.00000  Uiso   1.00
O1067  O     0.18090   0.16176   0.78143   0.00000  Uiso   1.00
O1068  O     0.31910   0.17157   0.88523   0.00000  Uiso   1.00
C1069  C     0.39057   0.24573   0.78629   0.00000  Uiso   1.00
C1070  C     0.38772   0.21904   0.71840   0.00000  Uiso   1.00
H1071  H     0.42128   0.20847   0.70427   0.00000  Uiso   1.00
H1072  H     0.36470   0.18311   0.70796   0.00000  Uiso   1.00
H1073  H     0.37568   0.24626   0.69110   0.00000  Uiso   1.00
H1074  H     0.35736   0.25760   0.80049   0.00000  Uiso   1.00
H1075  H     0.41214   0.28161   0.78958   0.00000  Uiso   1.00
C1076  C     0.10766   0.07000   0.85248   0.00000  Uiso   1.00
C1077  C     0.13857   0.08264   0.91012   0.00000  Uiso   1.00
H1078  H     0.17283   0.08319   0.89588   0.00000  Uiso   1.00
H1079  H     0.13196   0.12009   0.94104   0.00000  Uiso   1.00
H1080  H     0.13494   0.05110   0.93545   0.00000  Uiso   1.00
H1081  H     0.08005   0.04638   0.86588   0.00000  Uiso   1.00
H1082  H     0.12436   0.04651   0.81424   0.00000  Uiso   1.00
C1083  C     0.37233   0.06740   0.82199   0.00000  Uiso   1.00
C1084  C     0.35526   0.04025   0.75671   0.00000  Uiso   1.00
H1085  H     0.33488   0.06621   0.73597   0.00000  Uiso   1.00
H1086  H     0.38330   0.02930   0.72787   0.00000  Uiso   1.00
H1087  H     0.33410   0.00421   0.75707   0.00000  Uiso   1.00
H1088  H     0.38990   0.04021   0.84392   0.00000  Uiso   1.00
H1089  H     0.34341   0.07598   0.84974   0.00000  Uiso   1.00
C1090  C     0.12343   0.25771   0.82456   0.00000  Uiso   1.00
C1091  C     0.11804   0.25844   0.75699   0.00000  Uiso   1.00
H1092  H     0.13238   0.29618   0.74973   0.00000  Uiso   1.00
H1093  H     0.13553   0.22650   0.72958   0.00000  Uiso   1.00
H1094  H     0.08231   0.25307   0.74027   0.00000  Uiso   1.00
H1095  H     0.11496   0.29503   0.85293   0.00000  Uiso   1.00
H1096  H     0.15935   0.25747   0.83764   0.00000  Uiso   1.00
C1097  C     0.03286   0.01856   0.75762   0.00000  Uiso   1.00
C1098  C     0.49813   0.30868   0.72321   0.00000  Uiso   1.00
H1099  H     0.48324   0.28729   0.75504   0.00000  Uiso   1.00
H1100  H     0.47114   0.32490   0.69990   0.00000  Uiso   1.00
H1101  H     0.01427   0.28007   0.68894   0.00000  Uiso   1.00
H1102  H     0.05469   0.03039   0.72421   0.00000  Uiso   1.00
H1103  H     0.05307   0.33212   0.78597   0.00000  Uiso   1.00
C1104  C     0.46212   0.30584   0.90058   0.00000  Uiso   1.00
C1105  C     0.49445   0.01969   0.93091   0.00000  Uiso   1.00
H1106  H     0.02232   0.00841   0.95790   0.00000  Uiso   1.00
H1107  H     0.00856   0.03826   0.89638   0.00000  Uiso   1.00
H1108  H     0.47638   0.04916   0.96146   0.00000  Uiso   1.00
H1109  H     0.43663   0.32123   0.87469   0.00000  Uiso   1.00
H1110  H     0.44455   0.29190   0.93654   0.00000  Uiso   1.00
O1111  O     0.22045   0.31304   0.75790   0.00000  Uiso   1.00
H1112  H     0.20807   0.00191   0.73199   0.00000  Uiso   1.00
O1113  O     0.28212   0.02014   0.90750   0.00000  Uiso   1.00
H1114  H     0.29497   0.33103   0.93278   0.00000  Uiso   1.00
O1115  O     0.22596   0.10440   0.97867   0.00000  Uiso   1.00
H1116  H     0.20932   0.08596   0.67183   0.00000  Uiso   1.00
O1117  O     0.28050   0.22572   0.69061   0.00000  Uiso   1.00
H1118  H     0.29487   0.24539   0.99668   0.00000  Uiso   1.00
C1119  C     0.74764   0.06679   0.81801   0.00000  Uiso   1.00
C1120  C     0.75300   0.26655   0.84856   0.00000  Uiso   1.00
C1121  C     0.51460   0.06800   0.79489   0.00000  Uiso   1.00
C1122  C     0.98243   0.25884   0.86185   0.00000  Uiso   1.00
C1123  C     0.74272   0.01067   0.81048   0.00000  Uiso   1.00
C1124  C     0.75869   0.32266   0.85575   0.00000  Uiso   1.00
C1125  C     0.66443   0.16312   0.83393   0.00000  Uiso   1.00
C1126  C     0.83522   0.16735   0.83204   0.00000  Uiso   1.00
C1127  C     0.90931   0.21011   0.82464   0.00000  Uiso   1.00
C1128  C     0.58891   0.11660   0.83336   0.00000  Uiso   1.00
C1129  C     0.88305   0.16493   0.82817   0.00000  Uiso   1.00
C1130  C     0.61581   0.16351   0.83595   0.00000  Uiso   1.00
C1131  C     0.90214   0.11700   0.82406   0.00000  Uiso   1.00
C1132  C     0.59582   0.21055   0.83606   0.00000  Uiso   1.00
C1133  C     0.94866   0.11613   0.81825   0.00000  Uiso   1.00
C1134  C     0.54918   0.21112   0.84080   0.00000  Uiso   1.00
C1135  C     0.97561   0.16369   0.82845   0.00000  Uiso   1.00
C1136  C     0.52244   0.16333   0.82954   0.00000  Uiso   1.00
C1137  C     0.95566   0.21163   0.83805   0.00000  Uiso   1.00
C1138  C     0.54235   0.11526   0.81858   0.00000  Uiso   1.00
C1139  C     0.96858   0.06917   0.80060   0.00000  Uiso   1.00
C1140  C     0.52878   0.25810   0.85875   0.00000  Uiso   1.00
Cu1141 Cu    0.75500   0.17246   0.89479   0.00000  Uiso   1.00
Cu1142 Cu    0.74499   0.16087   0.77187   0.00000  Uiso   1.00
H1143  H     0.94804   0.03303   0.78929   0.00000  Uiso   1.00
H1144  H     0.54903   0.29408   0.87431   0.00000  Uiso   1.00
N1145  N     0.73744   0.15214   0.67951   0.00000  Uiso   1.00
N1146  N     0.76255   0.18119   0.98716   0.00000  Uiso   1.00
O1147  O     0.75325   0.09538   0.87326   0.00000  Uiso   1.00
O1148  O     0.74674   0.23796   0.79341   0.00000  Uiso   1.00
O1149  O     0.74480   0.08559   0.76945   0.00000  Uiso   1.00
O1150  O     0.75520   0.24774   0.89721   0.00000  Uiso   1.00
O1151  O     0.68935   0.17155   0.88524   0.00000  Uiso   1.00
O1152  O     0.81064   0.16179   0.78143   0.00000  Uiso   1.00
O1153  O     0.68090   0.16176   0.78143   0.00000  Uiso   1.00
O1154  O     0.81910   0.17157   0.88523   0.00000  Uiso   1.00
C1155  C     0.89057   0.24573   0.78629   0.00000  Uiso   1.00
C1156  C     0.88772   0.21904   0.71840   0.00000  Uiso   1.00
H1157  H     0.92128   0.20847   0.70427   0.00000  Uiso   1.00
H1158  H     0.86470   0.18311   0.70796   0.00000  Uiso   1.00
H1159  H     0.87568   0.24626   0.69110   0.00000  Uiso   1.00
H1160  H     0.85736   0.25760   0.80049   0.00000  Uiso   1.00
H1161  H     0.91214   0.28161   0.78958   0.00000  Uiso   1.00
C1162  C     0.60766   0.07000   0.85248   0.00000  Uiso   1.00
C1163  C     0.63857   0.08264   0.91012   0.00000  Uiso   1.00
H1164  H     0.67283   0.08319   0.89588   0.00000  Uiso   1.00
H1165  H     0.63196   0.12009   0.94104   0.00000  Uiso   1.00
H1166  H     0.63494   0.05110   0.93545   0.00000  Uiso   1.00
H1167  H     0.58005   0.04638   0.86588   0.00000  Uiso   1.00
H1168  H     0.62436   0.04651   0.81424   0.00000  Uiso   1.00
C1169  C     0.87233   0.06740   0.82199   0.00000  Uiso   1.00
C1170  C     0.85526   0.04025   0.75671   0.00000  Uiso   1.00
H1171  H     0.83488   0.06621   0.73597   0.00000  Uiso   1.00
H1172  H     0.88330   0.02930   0.72787   0.00000  Uiso   1.00
H1173  H     0.83410   0.00421   0.75707   0.00000  Uiso   1.00
H1174  H     0.88990   0.04021   0.84392   0.00000  Uiso   1.00
H1175  H     0.84341   0.07598   0.84974   0.00000  Uiso   1.00
C1176  C     0.62343   0.25771   0.82456   0.00000  Uiso   1.00
C1177  C     0.61804   0.25844   0.75699   0.00000  Uiso   1.00
H1178  H     0.63238   0.29618   0.74973   0.00000  Uiso   1.00
H1179  H     0.63553   0.22650   0.72958   0.00000  Uiso   1.00
H1180  H     0.58231   0.25307   0.74027   0.00000  Uiso   1.00
H1181  H     0.61496   0.29503   0.85293   0.00000  Uiso   1.00
H1182  H     0.65935   0.25747   0.83764   0.00000  Uiso   1.00
C1183  C     0.53286   0.01856   0.75762   0.00000  Uiso   1.00
C1184  C     0.99813   0.30868   0.72321   0.00000  Uiso   1.00
H1185  H     0.98324   0.28729   0.75504   0.00000  Uiso   1.00
H1186  H     0.97114   0.32490   0.69990   0.00000  Uiso   1.00
H1187  H     0.51427   0.28007   0.68894   0.00000  Uiso   1.00
H1188  H     0.55469   0.03039   0.72421   0.00000  Uiso   1.00
H1189  H     0.55307   0.33212   0.78597   0.00000  Uiso   1.00
C1190  C     0.96212   0.30584   0.90058   0.00000  Uiso   1.00
C1191  C     0.99445   0.01969   0.93091   0.00000  Uiso   1.00
H1192  H     0.52232   0.00841   0.95790   0.00000  Uiso   1.00
H1193  H     0.50856   0.03826   0.89638   0.00000  Uiso   1.00
H1194  H     0.97638   0.04916   0.96146   0.00000  Uiso   1.00
H1195  H     0.93663   0.32123   0.87469   0.00000  Uiso   1.00
H1196  H     0.94455   0.29190   0.93654   0.00000  Uiso   1.00
O1197  O     0.72045   0.31304   0.75790   0.00000  Uiso   1.00
H1198  H     0.70807   0.00191   0.73199   0.00000  Uiso   1.00
O1199  O     0.78212   0.02014   0.90750   0.00000  Uiso   1.00
H1200  H     0.79497   0.33103   0.93278   0.00000  Uiso   1.00
O1201  O     0.72596   0.10440   0.97867   0.00000  Uiso   1.00
H1202  H     0.70932   0.08596   0.67183   0.00000  Uiso   1.00
O1203  O     0.78050   0.22572   0.69061   0.00000  Uiso   1.00
H1204  H     0.79487   0.24539   0.99668   0.00000  Uiso   1.00
C1205  C     0.24764   0.40012   0.81801   0.00000  Uiso   1.00
C1206  C     0.25300   0.59989   0.84856   0.00000  Uiso   1.00
C1207  C     0.01460   0.40133   0.79489   0.00000  Uiso   1.00
C1208  C     0.48243   0.59218   0.86185   0.00000  Uiso   1.00
C1209  C     0.24272   0.34401   0.81048   0.00000  Uiso   1.00
C1210  C     0.25869   0.65599   0.85575   0.00000  Uiso   1.00
C1211  C     0.16443   0.49645   0.83393   0.00000  Uiso   1.00
C1212  C     0.33522   0.50069   0.83204   0.00000  Uiso   1.00
C1213  C     0.40931   0.54344   0.82464   0.00000  Uiso   1.00
C1214  C     0.08891   0.44994   0.83336   0.00000  Uiso   1.00
C1215  C     0.38305   0.49827   0.82817   0.00000  Uiso   1.00
C1216  C     0.11581   0.49684   0.83595   0.00000  Uiso   1.00
C1217  C     0.40214   0.45034   0.82406   0.00000  Uiso   1.00
C1218  C     0.09582   0.54388   0.83606   0.00000  Uiso   1.00
C1219  C     0.44866   0.44947   0.81825   0.00000  Uiso   1.00
C1220  C     0.04918   0.54445   0.84080   0.00000  Uiso   1.00
C1221  C     0.47561   0.49703   0.82845   0.00000  Uiso   1.00
C1222  C     0.02244   0.49667   0.82954   0.00000  Uiso   1.00
C1223  C     0.45566   0.54497   0.83805   0.00000  Uiso   1.00
C1224  C     0.04235   0.44859   0.81858   0.00000  Uiso   1.00
C1225  C     0.46858   0.40250   0.80060   0.00000  Uiso   1.00
C1226  C     0.02878   0.59144   0.85875   0.00000  Uiso   1.00
Cu1227 Cu    0.25500   0.50579   0.89479   0.00000  Uiso   1.00
Cu1228 Cu    0.24499   0.49421   0.77187   0.00000  Uiso   1.00
H1229  H     0.44804   0.36636   0.78929   0.00000  Uiso   1.00
H1230  H     0.04903   0.62741   0.87431   0.00000  Uiso   1.00
N1231  N     0.23744   0.48547   0.67951   0.00000  Uiso   1.00
N1232  N     0.26255   0.51453   0.98716   0.00000  Uiso   1.00
O1233  O     0.25325   0.42871   0.87326   0.00000  Uiso   1.00
O1234  O     0.24674   0.57129   0.79341   0.00000  Uiso   1.00
O1235  O     0.24480   0.41892   0.76945   0.00000  Uiso   1.00
O1236  O     0.25520   0.58108   0.89721   0.00000  Uiso   1.00
O1237  O     0.18935   0.50488   0.88524   0.00000  Uiso   1.00
O1238  O     0.31064   0.49512   0.78143   0.00000  Uiso   1.00
O1239  O     0.18090   0.49510   0.78143   0.00000  Uiso   1.00
O1240  O     0.31910   0.50490   0.88523   0.00000  Uiso   1.00
C1241  C     0.39057   0.57907   0.78629   0.00000  Uiso   1.00
C1242  C     0.38772   0.55237   0.71840   0.00000  Uiso   1.00
H1243  H     0.42128   0.54180   0.70427   0.00000  Uiso   1.00
H1244  H     0.36470   0.51644   0.70796   0.00000  Uiso   1.00
H1245  H     0.37568   0.57959   0.69110   0.00000  Uiso   1.00
H1246  H     0.35736   0.59093   0.80049   0.00000  Uiso   1.00
H1247  H     0.41214   0.61494   0.78958   0.00000  Uiso   1.00
C1248  C     0.10766   0.40334   0.85248   0.00000  Uiso   1.00
C1249  C     0.13857   0.41598   0.91012   0.00000  Uiso   1.00
H1250  H     0.17283   0.41653   0.89588   0.00000  Uiso   1.00
H1251  H     0.13196   0.45343   0.94104   0.00000  Uiso   1.00
H1252  H     0.13494   0.38443   0.93545   0.00000  Uiso   1.00
H1253  H     0.08005   0.37972   0.86588   0.00000  Uiso   1.00
H1254  H     0.12436   0.37984   0.81424   0.00000  Uiso   1.00
C1255  C     0.37233   0.40073   0.82199   0.00000  Uiso   1.00
C1256  C     0.35526   0.37358   0.75671   0.00000  Uiso   1.00
H1257  H     0.33488   0.39954   0.73597   0.00000  Uiso   1.00
H1258  H     0.38330   0.36263   0.72787   0.00000  Uiso   1.00
H1259  H     0.33410   0.33755   0.75707   0.00000  Uiso   1.00
H1260  H     0.38990   0.37354   0.84392   0.00000  Uiso   1.00
H1261  H     0.34341   0.40931   0.84974   0.00000  Uiso   1.00
C1262  C     0.12343   0.59105   0.82456   0.00000  Uiso   1.00
C1263  C     0.11804   0.59177   0.75699   0.00000  Uiso   1.00
H1264  H     0.13238   0.62951   0.74973   0.00000  Uiso   1.00
H1265  H     0.13553   0.55983   0.72958   0.00000  Uiso   1.00
H1266  H     0.08231   0.58640   0.74027   0.00000  Uiso   1.00
H1267  H     0.11496   0.62836   0.85293   0.00000  Uiso   1.00
H1268  H     0.15935   0.59080   0.83764   0.00000  Uiso   1.00
C1269  C     0.03286   0.35189   0.75762   0.00000  Uiso   1.00
C1270  C     0.49813   0.64201   0.72321   0.00000  Uiso   1.00
H1271  H     0.48324   0.62062   0.75504   0.00000  Uiso   1.00
H1272  H     0.47114   0.65823   0.69990   0.00000  Uiso   1.00
H1273  H     0.01427   0.61341   0.68894   0.00000  Uiso   1.00
H1274  H     0.05469   0.36373   0.72421   0.00000  Uiso   1.00
H1275  H     0.05307   0.66546   0.78597   0.00000  Uiso   1.00
C1276  C     0.46212   0.63917   0.90058   0.00000  Uiso   1.00
C1277  C     0.49445   0.35303   0.93091   0.00000  Uiso   1.00
H1278  H     0.02232   0.34175   0.95790   0.00000  Uiso   1.00
H1279  H     0.00856   0.37159   0.89638   0.00000  Uiso   1.00
H1280  H     0.47638   0.38249   0.96146   0.00000  Uiso   1.00
H1281  H     0.43663   0.65457   0.87469   0.00000  Uiso   1.00
H1282  H     0.44455   0.62523   0.93654   0.00000  Uiso   1.00
O1283  O     0.22045   0.64637   0.75790   0.00000  Uiso   1.00
H1284  H     0.20807   0.33524   0.73199   0.00000  Uiso   1.00
O1285  O     0.28212   0.35347   0.90750   0.00000  Uiso   1.00
H1286  H     0.29497   0.66437   0.93278   0.00000  Uiso   1.00
O1287  O     0.22596   0.43773   0.97867   0.00000  Uiso   1.00
H1288  H     0.20932   0.41929   0.67183   0.00000  Uiso   1.00
O1289  O     0.28050   0.55905   0.69061   0.00000  Uiso   1.00
H1290  H     0.29487   0.57873   0.99668   0.00000  Uiso   1.00
C1291  C     0.74764   0.40012   0.81801   0.00000  Uiso   1.00
C1292  C     0.75300   0.59989   0.84856   0.00000  Uiso   1.00
C1293  C     0.51460   0.40133   0.79489   0.00000  Uiso   1.00
C1294  C     0.98243   0.59218   0.86185   0.00000  Uiso   1.00
C1295  C     0.74272   0.34401   0.81048   0.00000  Uiso   1.00
C1296  C     0.75869   0.65599   0.85575   0.00000  Uiso   1.00
C1297  C     0.66443   0.49645   0.83393   0.00000  Uiso   1.00
C1298  C     0.83522   0.50069   0.83204   0.00000  Uiso   1.00
C1299  C     0.90931   0.54344   0.82464   0.00000  Uiso   1.00
C1300  C     0.58891   0.44994   0.83336   0.00000  Uiso   1.00
C1301  C     0.88305   0.49827   0.82817   0.00000  Uiso   1.00
C1302  C     0.61581   0.49684   0.83595   0.00000  Uiso   1.00
C1303  C     0.90214   0.45034   0.82406   0.00000  Uiso   1.00
C1304  C     0.59582   0.54388   0.83606   0.00000  Uiso   1.00
C1305  C     0.94866   0.44947   0.81825   0.00000  Uiso   1.00
C1306  C     0.54918   0.54445   0.84080   0.00000  Uiso   1.00
C1307  C     0.97561   0.49703   0.82845   0.00000  Uiso   1.00
C1308  C     0.52244   0.49667   0.82954   0.00000  Uiso   1.00
C1309  C     0.95566   0.54497   0.83805   0.00000  Uiso   1.00
C1310  C     0.54235   0.44859   0.81858   0.00000  Uiso   1.00
C1311  C     0.96858   0.40250   0.80060   0.00000  Uiso   1.00
C1312  C     0.52878   0.59144   0.85875   0.00000  Uiso   1.00
Cu1313 Cu    0.75500   0.50579   0.89479   0.00000  Uiso   1.00
Cu1314 Cu    0.74499   0.49421   0.77187   0.00000  Uiso   1.00
H1315  H     0.94804   0.36636   0.78929   0.00000  Uiso   1.00
H1316  H     0.54903   0.62741   0.87431   0.00000  Uiso   1.00
N1317  N     0.73744   0.48547   0.67951   0.00000  Uiso   1.00
N1318  N     0.76255   0.51453   0.98716   0.00000  Uiso   1.00
O1319  O     0.75325   0.42871   0.87326   0.00000  Uiso   1.00
O1320  O     0.74674   0.57129   0.79341   0.00000  Uiso   1.00
O1321  O     0.74480   0.41892   0.76945   0.00000  Uiso   1.00
O1322  O     0.75520   0.58108   0.89721   0.00000  Uiso   1.00
O1323  O     0.68935   0.50488   0.88524   0.00000  Uiso   1.00
O1324  O     0.81064   0.49512   0.78143   0.00000  Uiso   1.00
O1325  O     0.68090   0.49510   0.78143   0.00000  Uiso   1.00
O1326  O     0.81910   0.50490   0.88523   0.00000  Uiso   1.00
C1327  C     0.89057   0.57907   0.78629   0.00000  Uiso   1.00
C1328  C     0.88772   0.55237   0.71840   0.00000  Uiso   1.00
H1329  H     0.92128   0.54180   0.70427   0.00000  Uiso   1.00
H1330  H     0.86470   0.51644   0.70796   0.00000  Uiso   1.00
H1331  H     0.87568   0.57959   0.69110   0.00000  Uiso   1.00
H1332  H     0.85736   0.59093   0.80049   0.00000  Uiso   1.00
H1333  H     0.91214   0.61494   0.78958   0.00000  Uiso   1.00
C1334  C     0.60766   0.40334   0.85248   0.00000  Uiso   1.00
C1335  C     0.63857   0.41598   0.91012   0.00000  Uiso   1.00
H1336  H     0.67283   0.41653   0.89588   0.00000  Uiso   1.00
H1337  H     0.63196   0.45343   0.94104   0.00000  Uiso   1.00
H1338  H     0.63494   0.38443   0.93545   0.00000  Uiso   1.00
H1339  H     0.58005   0.37972   0.86588   0.00000  Uiso   1.00
H1340  H     0.62436   0.37984   0.81424   0.00000  Uiso   1.00
C1341  C     0.87233   0.40073   0.82199   0.00000  Uiso   1.00
C1342  C     0.85526   0.37358   0.75671   0.00000  Uiso   1.00
H1343  H     0.83488   0.39954   0.73597   0.00000  Uiso   1.00
H1344  H     0.88330   0.36263   0.72787   0.00000  Uiso   1.00
H1345  H     0.83410   0.33755   0.75707   0.00000  Uiso   1.00
H1346  H     0.88990   0.37354   0.84392   0.00000  Uiso   1.00
H1347  H     0.84341   0.40931   0.84974   0.00000  Uiso   1.00
C1348  C     0.62343   0.59105   0.82456   0.00000  Uiso   1.00
C1349  C     0.61804   0.59177   0.75699   0.00000  Uiso   1.00
H1350  H     0.63238   0.62951   0.74973   0.00000  Uiso   1.00
H1351  H     0.63553   0.55983   0.72958   0.00000  Uiso   1.00
H1352  H     0.58231   0.58640   0.74027   0.00000  Uiso   1.00
H1353  H     0.61496   0.62836   0.85293   0.00000  Uiso   1.00
H1354  H     0.65935   0.59080   0.83764   0.00000  Uiso   1.00
C1355  C     0.53286   0.35189   0.75762   0.00000  Uiso   1.00
C1356  C     0.99813   0.64201   0.72321   0.00000  Uiso   1.00
H1357  H     0.98324   0.62062   0.75504   0.00000  Uiso   1.00
H1358  H     0.97114   0.65823   0.69990   0.00000  Uiso   1.00
H1359  H     0.51427   0.61341   0.68894   0.00000  Uiso   1.00
H1360  H     0.55469   0.36373   0.72421   0.00000  Uiso   1.00
H1361  H     0.55307   0.66546   0.78597   0.00000  Uiso   1.00
C1362  C     0.96212   0.63917   0.90058   0.00000  Uiso   1.00
C1363  C     0.99445   0.35303   0.93091   0.00000  Uiso   1.00
H1364  H     0.52232   0.34175   0.95790   0.00000  Uiso   1.00
H1365  H     0.50856   0.37159   0.89638   0.00000  Uiso   1.00
H1366  H     0.97638   0.38249   0.96146   0.00000  Uiso   1.00
H1367  H     0.93663   0.65457   0.87469   0.00000  Uiso   1.00
H1368  H     0.94455   0.62523   0.93654   0.00000  Uiso   1.00
O1369  O     0.72045   0.64637   0.75790   0.00000  Uiso   1.00
H1370  H     0.70807   0.33524   0.73199   0.00000  Uiso   1.00
O1371  O     0.78212   0.35347   0.90750   0.00000  Uiso   1.00
H1372  H     0.79497   0.66437   0.93278   0.00000  Uiso   1.00
O1373  O     0.72596   0.43773   0.97867   0.00000  Uiso   1.00
H1374  H     0.70932   0.41929   0.67183   0.00000  Uiso   1.00
O1375  O     0.78050   0.55905   0.69061   0.00000  Uiso   1.00
H1376  H     0.79487   0.57873   0.99668   0.00000  Uiso   1.00
C1377  C     0.24764   0.73346   0.81801   0.00000  Uiso   1.00
C1378  C     0.25300   0.93322   0.84856   0.00000  Uiso   1.00
C1379  C     0.01460   0.73466   0.79489   0.00000  Uiso   1.00
C1380  C     0.48243   0.92551   0.86185   0.00000  Uiso   1.00
C1381  C     0.24272   0.67734   0.81048   0.00000  Uiso   1.00
C1382  C     0.25869   0.98932   0.85575   0.00000  Uiso   1.00
C1383  C     0.16443   0.82979   0.83393   0.00000  Uiso   1.00
C1384  C     0.33522   0.83402   0.83204   0.00000  Uiso   1.00
C1385  C     0.40931   0.87678   0.82464   0.00000  Uiso   1.00
C1386  C     0.08891   0.78327   0.83336   0.00000  Uiso   1.00
C1387  C     0.38305   0.83160   0.82817   0.00000  Uiso   1.00
C1388  C     0.11581   0.83017   0.83595   0.00000  Uiso   1.00
C1389  C     0.40214   0.78367   0.82406   0.00000  Uiso   1.00
C1390  C     0.09582   0.87722   0.83606   0.00000  Uiso   1.00
C1391  C     0.44866   0.78280   0.81825   0.00000  Uiso   1.00
C1392  C     0.04918   0.87779   0.84080   0.00000  Uiso   1.00
C1393  C     0.47561   0.83036   0.82845   0.00000  Uiso   1.00
C1394  C     0.02244   0.83000   0.82954   0.00000  Uiso   1.00
C1395  C     0.45566   0.87830   0.83805   0.00000  Uiso   1.00
C1396  C     0.04235   0.78193   0.81858   0.00000  Uiso   1.00
C1397  C     0.46858   0.73584   0.80060   0.00000  Uiso   1.00
C1398  C     0.02878   0.92477   0.85875   0.00000  Uiso   1.00
Cu1399 Cu    0.25500   0.83913   0.89479   0.00000  Uiso   1.00
Cu1400 Cu    0.24499   0.82754   0.77187   0.00000  Uiso   1.00
H1401  H     0.44804   0.69970   0.78929   0.00000  Uiso   1.00
H1402  H     0.04903   0.96075   0.87431   0.00000  Uiso   1.00
N1403  N     0.23744   0.81881   0.67951   0.00000  Uiso   1.00
N1404  N     0.26255   0.84786   0.98716   0.00000  Uiso   1.00
O1405  O     0.25325   0.76204   0.87326   0.00000  Uiso   1.00
O1406  O     0.24674   0.90462   0.79341   0.00000  Uiso   1.00
O1407  O     0.24480   0.75226   0.76945   0.00000  Uiso   1.00
O1408  O     0.25520   0.91441   0.89721   0.00000  Uiso   1.00
O1409  O     0.18935   0.83821   0.88524   0.00000  Uiso   1.00
O1410  O     0.31064   0.82845   0.78143   0.00000  Uiso   1.00
O1411  O     0.18090   0.82843   0.78143   0.00000  Uiso   1.00
O1412  O     0.31910   0.83824   0.88523   0.00000  Uiso   1.00
C1413  C     0.39057   0.91240   0.78629   0.00000  Uiso   1.00
C1414  C     0.38772   0.88570   0.71840   0.00000  Uiso   1.00
H1415  H     0.42128   0.87513   0.70427   0.00000  Uiso   1.00
H1416  H     0.36470   0.84978   0.70796   0.00000  Uiso   1.00
H1417  H     0.37568   0.91293   0.69110   0.00000  Uiso   1.00
H1418  H     0.35736   0.92427   0.80049   0.00000  Uiso   1.00
H1419  H     0.41214   0.94828   0.78958   0.00000  Uiso   1.00
C1420  C     0.10766   0.73667   0.85248   0.00000  Uiso   1.00
C1421  C     0.13857   0.74931   0.91012   0.00000  Uiso   1.00
H1422  H     0.17283   0.74986   0.89588   0.00000  Uiso   1.00
H1423  H     0.13196   0.78676   0.94104   0.00000  Uiso   1.00
H1424  H     0.13494   0.71776   0.93545   0.00000  Uiso   1.00
H1425  H     0.08005   0.71305   0.86588   0.00000  Uiso   1.00
H1426  H     0.12436   0.71317   0.81424   0.00000  Uiso   1.00
C1427  C     0.37233   0.73407   0.82199   0.00000  Uiso   1.00
C1428  C     0.35526   0.70692   0.75671   0.00000  Uiso   1.00
H1429  H     0.33488   0.73288   0.73597   0.00000  Uiso   1.00
H1430  H     0.38330   0.69597   0.72787   0.00000  Uiso   1.00
H1431  H     0.33410   0.67088   0.75707   0.00000  Uiso   1.00
H1432  H     0.38990   0.70687   0.84392   0.00000  Uiso   1.00
H1433  H     0.34341   0.74265   0.84974   0.00000  Uiso   1.00
C1434  C     0.12343   0.92438   0.82456   0.00000  Uiso   1.00
C1435  C     0.11804   0.92511   0.75699   0.00000  Uiso   1.00
H1436  H     0.13238   0.96285   0.74973   0.00000  Uiso   1.00
H1437  H     0.13553   0.89317   0.72958   0.00000  Uiso   1.00
H1438  H     0.08231   0.91974   0.74027   0.00000  Uiso   1.00
H1439  H     0.11496   0.96169   0.85293   0.00000  Uiso   1.00
H1440  H     0.15935   0.92413   0.83764   0.00000  Uiso   1.00
C1441  C     0.03286   0.68522   0.75762   0.00000  Uiso   1.00
C1442  C     0.49813   0.97534   0.72321   0.00000  Uiso   1.00
H1443  H     0.48324   0.95396   0.75504   0.00000  Uiso   1.00
H1444  H     0.47114   0.99156   0.69990   0.00000  Uiso   1.00
H1445  H     0.01427   0.94674   0.68894   0.00000  Uiso   1.00
H1446  H     0.05469   0.69706   0.72421   0.00000  Uiso   1.00
H1447  H     0.05307   0.99879   0.78597   0.00000  Uiso   1.00
C1448  C     0.46212   0.97251   0.90058   0.00000  Uiso   1.00
C1449  C     0.49445   0.68636   0.93091   0.00000  Uiso   1.00
H1450  H     0.02232   0.67508   0.95790   0.00000  Uiso   1.00
H1451  H     0.00856   0.70492   0.89638   0.00000  Uiso   1.00
H1452  H     0.47638   0.71582   0.96146   0.00000  Uiso   1.00
H1453  H     0.43663   0.98790   0.87469   0.00000  Uiso   1.00
H1454  H     0.44455   0.95856   0.93654   0.00000  Uiso   1.00
O1455  O     0.22045   0.97971   0.75790   0.00000  Uiso   1.00
H1456  H     0.20807   0.66857   0.73199   0.00000  Uiso   1.00
O1457  O     0.28212   0.68681   0.90750   0.00000  Uiso   1.00
H1458  H     0.29497   0.99770   0.93278   0.00000  Uiso   1.00
O1459  O     0.22596   0.77107   0.97867   0.00000  Uiso   1.00
H1460  H     0.20932   0.75263   0.67183   0.00000  Uiso   1.00
O1461  O     0.28050   0.89239   0.69061   0.00000  Uiso   1.00
H1462  H     0.29487   0.91206   0.99668   0.00000  Uiso   1.00
C1463  C     0.74764   0.73346   0.81801   0.00000  Uiso   1.00
C1464  C     0.75300   0.93322   0.84856   0.00000  Uiso   1.00
C1465  C     0.51460   0.73466   0.79489   0.00000  Uiso   1.00
C1466  C     0.98243   0.92551   0.86185   0.00000  Uiso   1.00
C1467  C     0.74272   0.67734   0.81048   0.00000  Uiso   1.00
C1468  C     0.75869   0.98932   0.85575   0.00000  Uiso   1.00
C1469  C     0.66443   0.82979   0.83393   0.00000  Uiso   1.00
C1470  C     0.83522   0.83402   0.83204   0.00000  Uiso   1.00
C1471  C     0.90931   0.87678   0.82464   0.00000  Uiso   1.00
C1472  C     0.58891   0.78327   0.83336   0.00000  Uiso   1.00
C1473  C     0.88305   0.83160   0.82817   0.00000  Uiso   1.00
C1474  C     0.61581   0.83017   0.83595   0.00000  Uiso   1.00
C1475  C     0.90214   0.78367   0.82406   0.00000  Uiso   1.00
C1476  C     0.59582   0.87722   0.83606   0.00000  Uiso   1.00
C1477  C     0.94866   0.78280   0.81825   0.00000  Uiso   1.00
C1478  C     0.54918   0.87779   0.84080   0.00000  Uiso   1.00
C1479  C     0.97561   0.83036   0.82845   0.00000  Uiso   1.00
C1480  C     0.52244   0.83000   0.82954   0.00000  Uiso   1.00
C1481  C     0.95566   0.87830   0.83805   0.00000  Uiso   1.00
C1482  C     0.54235   0.78193   0.81858   0.00000  Uiso   1.00
C1483  C     0.96858   0.73584   0.80060   0.00000  Uiso   1.00
C1484  C     0.52878   0.92477   0.85875   0.00000  Uiso   1.00
Cu1485 Cu    0.75500   0.83913   0.89479   0.00000  Uiso   1.00
Cu1486 Cu    0.74499   0.82754   0.77187   0.00000  Uiso   1.00
H1487  H     0.94804   0.69970   0.78929   0.00000  Uiso   1.00
H1488  H     0.54903   0.96075   0.87431   0.00000  Uiso   1.00
N1489  N     0.73744   0.81881   0.67951   0.00000  Uiso   1.00
N1490  N     0.76255   0.84786   0.98716   0.00000  Uiso   1.00
O1491  O     0.75325   0.76204   0.87326   0.00000  Uiso   1.00
O1492  O     0.74674   0.90462   0.79341   0.00000  Uiso   1.00
O1493  O     0.74480   0.75226   0.76945   0.00000  Uiso   1.00
O1494  O     0.75520   0.91441   0.89721   0.00000  Uiso   1.00
O1495  O     0.68935   0.83821   0.88524   0.00000  Uiso   1.00
O1496  O     0.81064   0.82845   0.78143   0.00000  Uiso   1.00
O1497  O     0.68090   0.82843   0.78143   0.00000  Uiso   1.00
O1498  O     0.81910   0.83824   0.88523   0.00000  Uiso   1.00
C1499  C     0.89057   0.91240   0.78629   0.00000  Uiso   1.00
C1500  C     0.88772   0.88570   0.71840   0.00000  Uiso   1.00
H1501  H     0.92128   0.87513   0.70427   0.00000  Uiso   1.00
H1502  H     0.86470   0.84978   0.70796   0.00000  Uiso   1.00
H1503  H     0.87568   0.91293   0.69110   0.00000  Uiso   1.00
H1504  H     0.85736   0.92427   0.80049   0.00000  Uiso   1.00
H1505  H     0.91214   0.94828   0.78958   0.00000  Uiso   1.00
C1506  C     0.60766   0.73667   0.85248   0.00000  Uiso   1.00
C1507  C     0.63857   0.74931   0.91012   0.00000  Uiso   1.00
H1508  H     0.67283   0.74986   0.89588   0.00000  Uiso   1.00
H1509  H     0.63196   0.78676   0.94104   0.00000  Uiso   1.00
H1510  H     0.63494   0.71776   0.93545   0.00000  Uiso   1.00
H1511  H     0.58005   0.71305   0.86588   0.00000  Uiso   1.00
H1512  H     0.62436   0.71317   0.81424   0.00000  Uiso   1.00
C1513  C     0.87233   0.73407   0.82199   0.00000  Uiso   1.00
C1514  C     0.85526   0.70692   0.75671   0.00000  Uiso   1.00
H1515  H     0.83488   0.73288   0.73597   0.00000  Uiso   1.00
H1516  H     0.88330   0.69597   0.72787   0.00000  Uiso   1.00
H1517  H     0.83410   0.67088   0.75707   0.00000  Uiso   1.00
H1518  H     0.88990   0.70687   0.84392   0.00000  Uiso   1.00
H1519  H     0.84341   0.74265   0.84974   0.00000  Uiso   1.00
C1520  C     0.62343   0.92438   0.82456   0.00000  Uiso   1.00
C1521  C     0.61804   0.92511   0.75699   0.00000  Uiso   1.00
H1522  H     0.63238   0.96285   0.74973   0.00000  Uiso   1.00
H1523  H     0.63553   0.89317   0.72958   0.00000  Uiso   1.00
H1524  H     0.58231   0.91974   0.74027   0.00000  Uiso   1.00
H1525  H     0.61496   0.96169   0.85293   0.00000  Uiso   1.00
H1526  H     0.65935   0.92413   0.83764   0.00000  Uiso   1.00
C1527  C     0.53286   0.68522   0.75762   0.00000  Uiso   1.00
C1528  C     0.99813   0.97534   0.72321   0.00000  Uiso   1.00
H1529  H     0.98324   0.95396   0.75504   0.00000  Uiso   1.00
H1530  H     0.97114   0.99156   0.69990   0.00000  Uiso   1.00
H1531  H     0.51427   0.94674   0.68894   0.00000  Uiso   1.00
H1532  H     0.55469   0.69706   0.72421   0.00000  Uiso   1.00
H1533  H     0.55307   0.99879   0.78597   0.00000  Uiso   1.00
C1534  C     0.96212   0.97251   0.90058   0.00000  Uiso   1.00
C1535  C     0.99445   0.68636   0.93091   0.00000  Uiso   1.00
H1536  H     0.52232   0.67508   0.95790   0.00000  Uiso   1.00
H1537  H     0.50856   0.70492   0.89638   0.00000  Uiso   1.00
H1538  H     0.97638   0.71582   0.96146   0.00000  Uiso   1.00
H1539  H     0.93663   0.98790   0.87469   0.00000  Uiso   1.00
H1540  H     0.94455   0.95856   0.93654   0.00000  Uiso   1.00
O1541  O     0.72045   0.97971   0.75790   0.00000  Uiso   1.00
H1542  H     0.70807   0.66857   0.73199   0.00000  Uiso   1.00
O1543  O     0.78212   0.68681   0.90750   0.00000  Uiso   1.00
H1544  H     0.79497   0.99770   0.93278   0.00000  Uiso   1.00
O1545  O     0.72596   0.77107   0.97867   0.00000  Uiso   1.00
H1546  H     0.70932   0.75263   0.67183   0.00000  Uiso   1.00
O1547  O     0.78050   0.89239   0.69061   0.00000  Uiso   1.00
H1548  H     0.79487   0.91206   0.99668   0.00000  Uiso   1.00
loop_
_geom_bond_atom_site_label_1
_geom_bond_atom_site_label_2
_geom_bond_distance
_geom_bond_site_symmetry_2
_ccdc_geom_bond_type
C1     C5      1.447   .     S
C1     O31     1.300   .     A
C1     O29     1.300   .     A
C2     C6      1.449   .     S
C2     O32     1.302   .     A
C2     O30     1.299   .     A
C3     C65     1.538   .     S
C3     C20     1.432   .     A
C3     C107    1.401   1_455 S
C4     C19     1.416   .     A
C4     C72     1.533   .     S
C4     C108    1.403   .     S
C5     C350    1.352   1_545 S
C5     O423    1.388   1_545 S
C6     C177    1.352   .     S
C6     O253    1.388   .     S
C7     O33     1.311   .     A
C7     C12     1.468   .     S
C7     O35     1.304   .     A
C8     O36     1.305   .     A
C8     O34     1.299   .     A
C8     C11     1.453   .     S
C9     C19     1.408   .     A
C9     C37     1.526   .     S
C9     C11     1.405   .     A
C10    C20     1.419   .     A
C10    C44     1.522   .     S
C10    C12     1.420   .     A
C11    C13     1.409   .     A
C12    C14     1.414   .     A
C13    C51     1.526   .     S
C13    C15     1.416   .     A
C14    C58     1.528   .     S
C14    C16     1.416   .     A
C15    C17     1.414   .     A
C15    C21     1.399   .     A
C16    C22     1.407   .     A
C16    C18     1.414   .     A
C17    C19     1.414   .     A
C17    C104    1.410   .     S
C18    C20     1.416   .     A
C18    C103    1.410   1_455 S
C21    H25     1.073   .     S
C21    C89     1.401   .     S
C22    H26     1.070   .     S
C22    C90     1.403   1_455 S
Cu23   O29     1.977   .     S
Cu23   O33     1.975   .     S
Cu23   Cu24    2.718   .     S
Cu23   N28     2.043   .     S
Cu23   O36     1.956   .     S
Cu23   O32     1.973   .     S
Cu24   N27     2.043   .     S
Cu24   O35     1.956   .     S
Cu24   O34     1.975   .     S
Cu24   O31     1.973   .     S
Cu24   O30     1.977   .     S
N27    N1060   1.290   1_554 S
N27    O1115   1.333   1_554 S
N28    N543    1.290   .     S
N28    O601    1.337   .     S
C37    H42     1.111   .     S
C37    H43     1.097   .     S
C37    C38     1.531   .     S
C38    H41     1.110   .     S
C38    H40     1.108   .     S
C38    H39     1.111   .     S
C44    H49     1.102   .     S
C44    C45     1.515   .     S
C44    H50     1.110   .     S
C45    H46     1.098   .     S
C45    H47     1.111   .     S
C45    H48     1.112   .     S
C51    H56     1.104   .     S
C51    H57     1.108   .     S
C51    C52     1.530   .     S
C52    H55     1.110   .     S
C52    H54     1.109   .     S
C52    H53     1.109   .     S
C58    H64     1.106   .     S
C58    C59     1.529   .     S
C58    H63     1.101   .     S
C59    H60     1.108   .     S
C59    H61     1.110   .     S
C59    H62     1.109   .     S
C65    H70     1.110   .     S
C65    C496    1.532   1_445 S
C65    H415    1.095   1_545 S
C66    H68     1.104   .     S
C66    H67     1.104   .     S
C66    C323    1.532   .     S
C66    H155    1.110   .     S
H69    C152    1.110   1_455 S
H71    C237    1.095   .     S
C72    H77     1.092   .     S
C72    H78     1.109   .     S
C72    C245    1.532   .     S
C73    H76     1.111   .     S
C73    C416    1.532   1_545 S
C73    H160    1.104   .     S
C73    H161    1.099   .     S
H74    C159    1.104   1_455 S
H75    C159    1.099   1_455 S
O79    C177    1.388   .     S
O79    H252    0.990   .     S
H80    O423    0.990   1_545 S
O81    C350    1.388   1_545 S
O81    H426    0.991   1_545 S
H82    O253    0.991   .     S
O83    N543    1.333   .     S
O83    H600    0.988   .     S
H84    O1115   0.988   1_554 S
O85    N1060   1.337   1_554 S
O85    H1118   0.989   1_554 S
H86    O601    0.989   .     S
C87    C91     1.447   .     S
C87    O117    1.300   .     A
C87    O115    1.300   .     A
C88    C92     1.449   .     S
C88    O118    1.302   .     A
C88    O116    1.299   .     A
C89    C151    1.538   .     S
C89    C106    1.432   .     A
C90    C105    1.416   .     A
C90    C158    1.533   .     S
C90    C22     1.403   1_655 S
C91    C436    1.352   1_545 S
C91    O509    1.388   1_545 S
C92    C263    1.352   .     S
C92    O339    1.388   .     S
C93    O119    1.311   .     A
C93    C98     1.468   .     S
C93    O121    1.304   .     A
C94    O122    1.305   .     A
C94    O120    1.299   .     A
C94    C97     1.453   .     S
C95    C105    1.408   .     A
C95    C123    1.526   .     S
C95    C97     1.405   .     A
C96    C106    1.419   .     A
C96    C130    1.522   .     S
C96    C98     1.420   .     A
C97    C99     1.409   .     A
C98    C100    1.414   .     A
C99    C137    1.526   .     S
C99    C101    1.416   .     A
C100   C144    1.528   .     S
C100   C102    1.416   .     A
C101   C103    1.414   .     A
C101   C107    1.399   .     A
C102   C108    1.407   .     A
C102   C104    1.414   .     A
C103   C105    1.414   .     A
C103   C18     1.410   1_655 S
C104   C106    1.416   .     A
C107   H111    1.073   .     S
C107   C3      1.401   1_655 S
C108   H112    1.070   .     S
Cu109  O115    1.977   .     S
Cu109  O119    1.975   .     S
Cu109  Cu110   2.718   .     S
Cu109  N114    2.043   .     S
Cu109  O122    1.956   .     S
Cu109  O118    1.973   .     S
Cu110  N113    2.043   .     S
Cu110  O121    1.956   .     S
Cu110  O120    1.975   .     S
Cu110  O117    1.973   .     S
Cu110  O116    1.977   .     S
N113   N1146   1.290   1_554 S
N113   O1201   1.333   1_554 S
N114   N629    1.290   .     S
N114   O687    1.337   .     S
C123   H128    1.111   .     S
C123   H129    1.097   .     S
C123   C124    1.531   .     S
C124   H127    1.110   .     S
C124   H126    1.108   .     S
C124   H125    1.111   .     S
C130   H135    1.102   .     S
C130   C131    1.515   .     S
C130   H136    1.110   .     S
C131   H132    1.098   .     S
C131   H133    1.111   .     S
C131   H134    1.112   .     S
C137   H142    1.104   .     S
C137   H143    1.108   .     S
C137   C138    1.530   .     S
C138   H141    1.110   .     S
C138   H140    1.109   .     S
C138   H139    1.109   .     S
C144   H150    1.106   .     S
C144   C145    1.529   .     S
C144   H149    1.101   .     S
C145   H146    1.108   .     S
C145   H147    1.110   .     S
C145   H148    1.109   .     S
C151   H156    1.110   .     S
C151   C410    1.532   1_545 S
C151   H501    1.095   1_545 S
C152   H154    1.104   .     S
C152   H153    1.104   .     S
C152   C237    1.532   1_655 S
C152   H69     1.110   1_655 S
H157   C323    1.095   .     S
C158   H163    1.092   .     S
C158   H164    1.109   .     S
C158   C331    1.532   .     S
C159   H162    1.111   .     S
C159   C502    1.532   1_545 S
C159   H74     1.104   1_655 S
C159   H75     1.099   1_655 S
O165   C263    1.388   .     S
O165   H338    0.990   .     S
H166   O509    0.990   1_545 S
O167   C436    1.388   1_545 S
O167   H512    0.991   1_545 S
H168   O339    0.991   .     S
O169   N629    1.333   .     S
O169   H686    0.988   .     S
H170   O1201   0.988   1_554 S
O171   N1146   1.337   1_554 S
O171   H1204   0.989   1_554 S
H172   O687    0.989   .     S
C173   C177    1.447   .     S
C173   O203    1.300   .     A
C173   O201    1.300   .     A
C174   C178    1.449   .     S
C174   O204    1.302   .     A
C174   O202    1.299   .     A
C175   C237    1.538   .     S
C175   C192    1.432   .     A
C175   C279    1.401   1_455 S
C176   C191    1.416   .     A
C176   C244    1.533   .     S
C176   C280    1.403   .     S
C178   C349    1.352   .     S
C178   O425    1.388   .     S
C179   O205    1.311   .     A
C179   C184    1.468   .     S
C179   O207    1.304   .     A
C180   O208    1.305   .     A
C180   O206    1.299   .     A
C180   C183    1.453   .     S
C181   C191    1.408   .     A
C181   C209    1.526   .     S
C181   C183    1.405   .     A
C182   C192    1.419   .     A
C182   C216    1.522   .     S
C182   C184    1.420   .     A
C183   C185    1.409   .     A
C184   C186    1.414   .     A
C185   C223    1.526   .     S
C185   C187    1.416   .     A
C186   C230    1.528   .     S
C186   C188    1.416   .     A
C187   C189    1.414   .     A
C187   C193    1.399   .     A
C188   C194    1.407   .     A
C188   C190    1.414   .     A
C189   C191    1.414   .     A
C189   C276    1.410   .     S
C190   C192    1.416   .     A
C190   C275    1.410   1_455 S
C193   H197    1.073   .     S
C193   C261    1.401   .     S
C194   H198    1.070   .     S
C194   C262    1.403   1_455 S
Cu195  O201    1.977   .     S
Cu195  O205    1.975   .     S
Cu195  Cu196   2.718   .     S
Cu195  N200    2.043   .     S
Cu195  O208    1.956   .     S
Cu195  O204    1.973   .     S
Cu196  N199    2.043   .     S
Cu196  O207    1.956   .     S
Cu196  O206    1.975   .     S
Cu196  O203    1.973   .     S
Cu196  O202    1.977   .     S
N199   N1232   1.290   1_554 S
N199   O1287   1.333   1_554 S
N200   N715    1.290   .     S
N200   O773    1.337   .     S
C209   H214    1.111   .     S
C209   H215    1.097   .     S
C209   C210    1.531   .     S
C210   H213    1.110   .     S
C210   H212    1.108   .     S
C210   H211    1.111   .     S
C216   H221    1.102   .     S
C216   C217    1.515   .     S
C216   H222    1.110   .     S
C217   H218    1.098   .     S
C217   H219    1.111   .     S
C217   H220    1.112   .     S
C223   H228    1.104   .     S
C223   H229    1.108   .     S
C223   C224    1.530   .     S
C224   H227    1.110   .     S
C224   H226    1.109   .     S
C224   H225    1.109   .     S
C230   H236    1.106   .     S
C230   C231    1.529   .     S
C230   H235    1.101   .     S
C231   H232    1.108   .     S
C231   H233    1.110   .     S
C231   H234    1.109   .     S
C237   H242    1.110   .     S
C237   C152    1.532   1_455 S
C238   H240    1.104   .     S
C238   H239    1.104   .     S
C238   C495    1.532   .     S
C238   H327    1.110   .     S
H241   C324    1.110   1_455 S
H243   C409    1.095   .     S
C244   H249    1.092   .     S
C244   H250    1.109   .     S
C244   C417    1.532   .     S
C245   H248    1.111   .     S
C245   H332    1.104   .     S
C245   H333    1.099   .     S
H246   C331    1.104   1_455 S
H247   C331    1.099   1_455 S
O251   C349    1.388   .     S
O251   H424    0.990   .     S
H254   O425    0.991   .     S
O255   N715    1.333   .     S
O255   H772    0.988   .     S
H256   O1287   0.988   1_554 S
O257   N1232   1.337   1_554 S
O257   H1290   0.989   1_554 S
H258   O773    0.989   .     S
C259   C263    1.447   .     S
C259   O289    1.300   .     A
C259   O287    1.300   .     A
C260   C264    1.449   .     S
C260   O290    1.302   .     A
C260   O288    1.299   .     A
C261   C323    1.538   .     S
C261   C278    1.432   .     A
C262   C277    1.416   .     A
C262   C330    1.533   .     S
C262   C194    1.403   1_655 S
C264   C435    1.352   .     S
C264   O511    1.388   .     S
C265   O291    1.311   .     A
C265   C270    1.468   .     S
C265   O293    1.304   .     A
C266   O294    1.305   .     A
C266   O292    1.299   .     A
C266   C269    1.453   .     S
C267   C277    1.408   .     A
C267   C295    1.526   .     S
C267   C269    1.405   .     A
C268   C278    1.419   .     A
C268   C302    1.522   .     S
C268   C270    1.420   .     A
C269   C271    1.409   .     A
C270   C272    1.414   .     A
C271   C309    1.526   .     S
C271   C273    1.416   .     A
C272   C316    1.528   .     S
C272   C274    1.416   .     A
C273   C275    1.414   .     A
C273   C279    1.399   .     A
C274   C280    1.407   .     A
C274   C276    1.414   .     A
C275   C277    1.414   .     A
C275   C190    1.410   1_655 S
C276   C278    1.416   .     A
C279   H283    1.073   .     S
C279   C175    1.401   1_655 S
C280   H284    1.070   .     S
Cu281  O287    1.977   .     S
Cu281  O291    1.975   .     S
Cu281  Cu282   2.718   .     S
Cu281  N286    2.043   .     S
Cu281  O294    1.956   .     S
Cu281  O290    1.973   .     S
Cu282  N285    2.043   .     S
Cu282  O293    1.956   .     S
Cu282  O292    1.975   .     S
Cu282  O289    1.973   .     S
Cu282  O288    1.977   .     S
N285   N1318   1.290   1_554 S
N285   O1373   1.333   1_554 S
N286   N801    1.290   .     S
N286   O859    1.337   .     S
C295   H300    1.111   .     S
C295   H301    1.097   .     S
C295   C296    1.531   .     S
C296   H299    1.110   .     S
C296   H298    1.108   .     S
C296   H297    1.111   .     S
C302   H307    1.102   .     S
C302   C303    1.515   .     S
C302   H308    1.110   .     S
C303   H304    1.098   .     S
C303   H305    1.111   .     S
C303   H306    1.112   .     S
C309   H314    1.104   .     S
C309   H315    1.108   .     S
C309   C310    1.530   .     S
C310   H313    1.110   .     S
C310   H312    1.109   .     S
C310   H311    1.109   .     S
C316   H322    1.106   .     S
C316   C317    1.529   .     S
C316   H321    1.101   .     S
C317   H318    1.108   .     S
C317   H319    1.110   .     S
C317   H320    1.109   .     S
C323   H328    1.110   .     S
C324   H326    1.104   .     S
C324   H325    1.104   .     S
C324   C409    1.532   1_655 S
C324   H241    1.110   1_655 S
H329   C495    1.095   .     S
C330   H335    1.092   .     S
C330   H336    1.109   .     S
C330   C503    1.532   .     S
C331   H334    1.111   .     S
C331   H246    1.104   1_655 S
C331   H247    1.099   1_655 S
O337   C435    1.388   .     S
O337   H510    0.990   .     S
H340   O511    0.991   .     S
O341   N801    1.333   .     S
O341   H858    0.988   .     S
H342   O1373   0.988   1_554 S
O343   N1318   1.337   1_554 S
O343   H1376   0.989   1_554 S
H344   O859    0.989   .     S
C345   C349    1.447   .     S
C345   O375    1.300   .     A
C345   O373    1.300   .     A
C346   C350    1.449   .     S
C346   O376    1.302   .     A
C346   O374    1.299   .     A
C347   C409    1.538   .     S
C347   C364    1.432   .     A
C347   C451    1.401   1_455 S
C348   C363    1.416   .     A
C348   C416    1.533   .     S
C348   C452    1.403   .     S
C350   C5      1.352   1_565 S
C350   O81     1.388   1_565 S
C351   O377    1.311   .     A
C351   C356    1.468   .     S
C351   O379    1.304   .     A
C352   O380    1.305   .     A
C352   O378    1.299   .     A
C352   C355    1.453   .     S
C353   C363    1.408   .     A
C353   C381    1.526   .     S
C353   C355    1.405   .     A
C354   C364    1.419   .     A
C354   C388    1.522   .     S
C354   C356    1.420   .     A
C355   C357    1.409   .     A
C356   C358    1.414   .     A
C357   C395    1.526   .     S
C357   C359    1.416   .     A
C358   C402    1.528   .     S
C358   C360    1.416   .     A
C359   C361    1.414   .     A
C359   C365    1.399   .     A
C360   C366    1.407   .     A
C360   C362    1.414   .     A
C361   C363    1.414   .     A
C361   C448    1.410   .     S
C362   C364    1.416   .     A
C362   C447    1.410   1_455 S
C365   H369    1.073   .     S
C365   C433    1.401   .     S
C366   H370    1.070   .     S
C366   C434    1.403   1_455 S
Cu367  O373    1.977   .     S
Cu367  O377    1.975   .     S
Cu367  Cu368   2.718   .     S
Cu367  N372    2.043   .     S
Cu367  O380    1.956   .     S
Cu367  O376    1.973   .     S
Cu368  N371    2.043   .     S
Cu368  O379    1.956   .     S
Cu368  O378    1.975   .     S
Cu368  O375    1.973   .     S
Cu368  O374    1.977   .     S
N371   N1404   1.290   1_554 S
N371   O1459   1.333   1_554 S
N372   N887    1.290   .     S
N372   O945    1.337   .     S
C381   H386    1.111   .     S
C381   H387    1.097   .     S
C381   C382    1.531   .     S
C382   H385    1.110   .     S
C382   H384    1.108   .     S
C382   H383    1.111   .     S
C388   H393    1.102   .     S
C388   C389    1.515   .     S
C388   H394    1.110   .     S
C389   H390    1.098   .     S
C389   H391    1.111   .     S
C389   H392    1.112   .     S
C395   H400    1.104   .     S
C395   H401    1.108   .     S
C395   C396    1.530   .     S
C396   H399    1.110   .     S
C396   H398    1.109   .     S
C396   H397    1.109   .     S
C402   H408    1.106   .     S
C402   C403    1.529   .     S
C402   H407    1.101   .     S
C403   H404    1.108   .     S
C403   H405    1.110   .     S
C403   H406    1.109   .     S
C409   H414    1.110   .     S
C409   C324    1.532   1_455 S
C410   H412    1.104   .     S
C410   H411    1.104   .     S
C410   C151    1.532   1_565 S
C410   H499    1.110   .     S
H413   C496    1.110   1_455 S
H415   C65     1.095   1_565 S
C416   H421    1.092   .     S
C416   H422    1.109   .     S
C416   C73     1.532   1_565 S
C417   H420    1.111   .     S
C417   H504    1.104   .     S
C417   H505    1.099   .     S
H418   C503    1.104   1_455 S
H419   C503    1.099   1_455 S
O423   C5      1.388   1_565 S
O423   H80     0.990   1_565 S
H426   O81     0.991   1_565 S
O427   N887    1.333   .     S
O427   H944    0.988   .     S
H428   O1459   0.988   1_554 S
O429   N1404   1.337   1_554 S
O429   H1462   0.989   1_554 S
H430   O945    0.989   .     S
C431   C435    1.447   .     S
C431   O461    1.300   .     A
C431   O459    1.300   .     A
C432   C436    1.449   .     S
C432   O462    1.302   .     A
C432   O460    1.299   .     A
C433   C495    1.538   .     S
C433   C450    1.432   .     A
C434   C449    1.416   .     A
C434   C502    1.533   .     S
C434   C366    1.403   1_655 S
C436   C91     1.352   1_565 S
C436   O167    1.388   1_565 S
C437   O463    1.311   .     A
C437   C442    1.468   .     S
C437   O465    1.304   .     A
C438   O466    1.305   .     A
C438   O464    1.299   .     A
C438   C441    1.453   .     S
C439   C449    1.408   .     A
C439   C467    1.526   .     S
C439   C441    1.405   .     A
C440   C450    1.419   .     A
C440   C474    1.522   .     S
C440   C442    1.420   .     A
C441   C443    1.409   .     A
C442   C444    1.414   .     A
C443   C481    1.526   .     S
C443   C445    1.416   .     A
C444   C488    1.528   .     S
C444   C446    1.416   .     A
C445   C447    1.414   .     A
C445   C451    1.399   .     A
C446   C452    1.407   .     A
C446   C448    1.414   .     A
C447   C449    1.414   .     A
C447   C362    1.410   1_655 S
C448   C450    1.416   .     A
C451   H455    1.073   .     S
C451   C347    1.401   1_655 S
C452   H456    1.070   .     S
Cu453  O459    1.977   .     S
Cu453  O463    1.975   .     S
Cu453  Cu454   2.718   .     S
Cu453  N458    2.043   .     S
Cu453  O466    1.956   .     S
Cu453  O462    1.973   .     S
Cu454  N457    2.043   .     S
Cu454  O465    1.956   .     S
Cu454  O464    1.975   .     S
Cu454  O461    1.973   .     S
Cu454  O460    1.977   .     S
N457   N1490   1.290   1_554 S
N457   O1545   1.333   1_554 S
N458   N973    1.290   .     S
N458   O1031   1.337   .     S
C467   H472    1.111   .     S
C467   H473    1.097   .     S
C467   C468    1.531   .     S
C468   H471    1.110   .     S
C468   H470    1.108   .     S
C468   H469    1.111   .     S
C474   H479    1.102   .     S
C474   C475    1.515   .     S
C474   H480    1.110   .     S
C475   H476    1.098   .     S
C475   H477    1.111   .     S
C475   H478    1.112   .     S
C481   H486    1.104   .     S
C481   H487    1.108   .     S
C481   C482    1.530   .     S
C482   H485    1.110   .     S
C482   H484    1.109   .     S
C482   H483    1.109   .     S
C488   H494    1.106   .     S
C488   C489    1.529   .     S
C488   H493    1.101   .     S
C489   H490    1.108   .     S
C489   H491    1.110   .     S
C489   H492    1.109   .     S
C495   H500    1.110   .     S
C496   H498    1.104   .     S
C496   H497    1.104   .     S
C496   C65     1.532   1_665 S
C496   H413    1.110   1_655 S
H501   C151    1.095   1_565 S
C502   H507    1.092   .     S
C502   H508    1.109   .     S
C502   C159    1.532   1_565 S
C503   H506    1.111   .     S
C503   H418    1.104   1_655 S
C503   H419    1.099   1_655 S
O509   C91     1.388   1_565 S
O509   H166    0.990   1_565 S
H512   O167    0.991   1_565 S
O513   N973    1.333   .     S
O513   H1030   0.988   .     S
H514   O1545   0.988   1_554 S
O515   N1490   1.337   1_554 S
O515   H1548   0.989   1_554 S
H516   O1031   0.989   .     S
C517   C521    1.447   .     S
C517   O547    1.300   .     A
C517   O545    1.300   .     A
C518   C522    1.449   .     S
C518   O548    1.302   .     A
C518   O546    1.299   .     A
C519   C581    1.538   .     S
C519   C536    1.432   .     A
C519   C623    1.401   1_455 S
C520   C535    1.416   .     A
C520   C588    1.533   .     S
C520   C624    1.403   .     S
C521   C866    1.352   1_545 S
C521   O939    1.388   1_545 S
C522   C693    1.352   .     S
C522   O769    1.388   .     S
C523   O549    1.311   .     A
C523   C528    1.468   .     S
C523   O551    1.304   .     A
C524   O552    1.305   .     A
C524   O550    1.299   .     A
C524   C527    1.453   .     S
C525   C535    1.408   .     A
C525   C553    1.526   .     S
C525   C527    1.405   .     A
C526   C536    1.419   .     A
C526   C560    1.522   .     S
C526   C528    1.420   .     A
C527   C529    1.409   .     A
C528   C530    1.414   .     A
C529   C567    1.526   .     S
C529   C531    1.416   .     A
C530   C574    1.528   .     S
C530   C532    1.416   .     A
C531   C533    1.414   .     A
C531   C537    1.399   .     A
C532   C538    1.407   .     A
C532   C534    1.414   .     A
C533   C535    1.414   .     A
C533   C620    1.410   .     S
C534   C536    1.416   .     A
C534   C619    1.410   1_455 S
C537   H541    1.073   .     S
C537   C605    1.401   .     S
C538   H542    1.070   .     S
C538   C606    1.403   1_455 S
Cu539  O545    1.977   .     S
Cu539  O549    1.975   .     S
Cu539  Cu540   2.718   .     S
Cu539  N544    2.043   .     S
Cu539  O552    1.956   .     S
Cu539  O548    1.973   .     S
Cu540  N543    2.043   .     S
Cu540  O551    1.956   .     S
Cu540  O550    1.975   .     S
Cu540  O547    1.973   .     S
Cu540  O546    1.977   .     S
N544   N1059   1.290   .     S
N544   O1117   1.337   .     S
C553   H558    1.111   .     S
C553   H559    1.097   .     S
C553   C554    1.531   .     S
C554   H557    1.110   .     S
C554   H556    1.108   .     S
C554   H555    1.111   .     S
C560   H565    1.102   .     S
C560   C561    1.515   .     S
C560   H566    1.110   .     S
C561   H562    1.098   .     S
C561   H563    1.111   .     S
C561   H564    1.112   .     S
C567   H572    1.104   .     S
C567   H573    1.108   .     S
C567   C568    1.530   .     S
C568   H571    1.110   .     S
C568   H570    1.109   .     S
C568   H569    1.109   .     S
C574   H580    1.106   .     S
C574   C575    1.529   .     S
C574   H579    1.101   .     S
C575   H576    1.108   .     S
C575   H577    1.110   .     S
C575   H578    1.109   .     S
C581   H586    1.110   .     S
C581   C1012   1.532   1_445 S
C581   H931    1.095   1_545 S
C582   H584    1.104   .     S
C582   H583    1.104   .     S
C582   C839    1.532   .     S
C582   H671    1.110   .     S
H585   C668    1.110   1_455 S
H587   C753    1.095   .     S
C588   H593    1.092   .     S
C588   H594    1.109   .     S
C588   C761    1.532   .     S
C589   H592    1.111   .     S
C589   C932    1.532   1_545 S
C589   H676    1.104   .     S
C589   H677    1.099   .     S
H590   C675    1.104   1_455 S
H591   C675    1.099   1_455 S
O595   C693    1.388   .     S
O595   H768    0.990   .     S
H596   O939    0.990   1_545 S
O597   C866    1.388   1_545 S
O597   H942    0.991   1_545 S
H598   O769    0.991   .     S
O599   N1059   1.333   .     S
O599   H1116   0.988   .     S
H602   O1117   0.989   .     S
C603   C607    1.447   .     S
C603   O633    1.300   .     A
C603   O631    1.300   .     A
C604   C608    1.449   .     S
C604   O634    1.302   .     A
C604   O632    1.299   .     A
C605   C667    1.538   .     S
C605   C622    1.432   .     A
C606   C621    1.416   .     A
C606   C674    1.533   .     S
C606   C538    1.403   1_655 S
C607   C952    1.352   1_545 S
C607   O1025   1.388   1_545 S
C608   C779    1.352   .     S
C608   O855    1.388   .     S
C609   O635    1.311   .     A
C609   C614    1.468   .     S
C609   O637    1.304   .     A
C610   O638    1.305   .     A
C610   O636    1.299   .     A
C610   C613    1.453   .     S
C611   C621    1.408   .     A
C611   C639    1.526   .     S
C611   C613    1.405   .     A
C612   C622    1.419   .     A
C612   C646    1.522   .     S
C612   C614    1.420   .     A
C613   C615    1.409   .     A
C614   C616    1.414   .     A
C615   C653    1.526   .     S
C615   C617    1.416   .     A
C616   C660    1.528   .     S
C616   C618    1.416   .     A
C617   C619    1.414   .     A
C617   C623    1.399   .     A
C618   C624    1.407   .     A
C618   C620    1.414   .     A
C619   C621    1.414   .     A
C619   C534    1.410   1_655 S
C620   C622    1.416   .     A
C623   H627    1.073   .     S
C623   C519    1.401   1_655 S
C624   H628    1.070   .     S
Cu625  O631    1.977   .     S
Cu625  O635    1.975   .     S
Cu625  Cu626   2.718   .     S
Cu625  N630    2.043   .     S
Cu625  O638    1.956   .     S
Cu625  O634    1.973   .     S
Cu626  N629    2.043   .     S
Cu626  O637    1.956   .     S
Cu626  O636    1.975   .     S
Cu626  O633    1.973   .     S
Cu626  O632    1.977   .     S
N630   N1145   1.290   .     S
N630   O1203   1.337   .     S
C639   H644    1.111   .     S
C639   H645    1.097   .     S
C639   C640    1.531   .     S
C640   H643    1.110   .     S
C640   H642    1.108   .     S
C640   H641    1.111   .     S
C646   H651    1.102   .     S
C646   C647    1.515   .     S
C646   H652    1.110   .     S
C647   H648    1.098   .     S
C647   H649    1.111   .     S
C647   H650    1.112   .     S
C653   H658    1.104   .     S
C653   H659    1.108   .     S
C653   C654    1.530   .     S
C654   H657    1.110   .     S
C654   H656    1.109   .     S
C654   H655    1.109   .     S
C660   H666    1.106   .     S
C660   C661    1.529   .     S
C660   H665    1.101   .     S
C661   H662    1.108   .     S
C661   H663    1.110   .     S
C661   H664    1.109   .     S
C667   H672    1.110   .     S
C667   C926    1.532   1_545 S
C667   H1017   1.095   1_545 S
C668   H670    1.104   .     S
C668   H669    1.104   .     S
C668   C753    1.532   1_655 S
C668   H585    1.110   1_655 S
H673   C839    1.095   .     S
C674   H679    1.092   .     S
C674   H680    1.109   .     S
C674   C847    1.532   .     S
C675   H678    1.111   .     S
C675   C1018   1.532   1_545 S
C675   H590    1.104   1_655 S
C675   H591    1.099   1_655 S
O681   C779    1.388   .     S
O681   H854    0.990   .     S
H682   O1025   0.990   1_545 S
O683   C952    1.388   1_545 S
O683   H1028   0.991   1_545 S
H684   O855    0.991   .     S
O685   N1145   1.333   .     S
O685   H1202   0.988   .     S
H688   O1203   0.989   .     S
C689   C693    1.447   .     S
C689   O719    1.300   .     A
C689   O717    1.300   .     A
C690   C694    1.449   .     S
C690   O720    1.302   .     A
C690   O718    1.299   .     A
C691   C753    1.538   .     S
C691   C708    1.432   .     A
C691   C795    1.401   1_455 S
C692   C707    1.416   .     A
C692   C760    1.533   .     S
C692   C796    1.403   .     S
C694   C865    1.352   .     S
C694   O941    1.388   .     S
C695   O721    1.311   .     A
C695   C700    1.468   .     S
C695   O723    1.304   .     A
C696   O724    1.305   .     A
C696   O722    1.299   .     A
C696   C699    1.453   .     S
C697   C707    1.408   .     A
C697   C725    1.526   .     S
C697   C699    1.405   .     A
C698   C708    1.419   .     A
C698   C732    1.522   .     S
C698   C700    1.420   .     A
C699   C701    1.409   .     A
C700   C702    1.414   .     A
C701   C739    1.526   .     S
C701   C703    1.416   .     A
C702   C746    1.528   .     S
C702   C704    1.416   .     A
C703   C705    1.414   .     A
C703   C709    1.399   .     A
C704   C710    1.407   .     A
C704   C706    1.414   .     A
C705   C707    1.414   .     A
C705   C792    1.410   .     S
C706   C708    1.416   .     A
C706   C791    1.410   1_455 S
C709   H713    1.073   .     S
C709   C777    1.401   .     S
C710   H714    1.070   .     S
C710   C778    1.403   1_455 S
Cu711  O717    1.977   .     S
Cu711  O721    1.975   .     S
Cu711  Cu712   2.718   .     S
Cu711  N716    2.043   .     S
Cu711  O724    1.956   .     S
Cu711  O720    1.973   .     S
Cu712  N715    2.043   .     S
Cu712  O723    1.956   .     S
Cu712  O722    1.975   .     S
Cu712  O719    1.973   .     S
Cu712  O718    1.977   .     S
N716   N1231   1.290   .     S
N716   O1289   1.337   .     S
C725   H730    1.111   .     S
C725   H731    1.097   .     S
C725   C726    1.531   .     S
C726   H729    1.110   .     S
C726   H728    1.108   .     S
C726   H727    1.111   .     S
C732   H737    1.102   .     S
C732   C733    1.515   .     S
C732   H738    1.110   .     S
C733   H734    1.098   .     S
C733   H735    1.111   .     S
C733   H736    1.112   .     S
C739   H744    1.104   .     S
C739   H745    1.108   .     S
C739   C740    1.530   .     S
C740   H743    1.110   .     S
C740   H742    1.109   .     S
C740   H741    1.109   .     S
C746   H752    1.106   .     S
C746   C747    1.529   .     S
C746   H751    1.101   .     S
C747   H748    1.108   .     S
C747   H749    1.110   .     S
C747   H750    1.109   .     S
C753   H758    1.110   .     S
C753   C668    1.532   1_455 S
C754   H756    1.104   .     S
C754   H755    1.104   .     S
C754   C1011   1.532   .     S
C754   H843    1.110   .     S
H757   C840    1.110   1_455 S
H759   C925    1.095   .     S
C760   H765    1.092   .     S
C760   H766    1.109   .     S
C760   C933    1.532   .     S
C761   H764    1.111   .     S
C761   H848    1.104   .     S
C761   H849    1.099   .     S
H762   C847    1.104   1_455 S
H763   C847    1.099   1_455 S
O767   C865    1.388   .     S
O767   H940    0.990   .     S
H770   O941    0.991   .     S
O771   N1231   1.333   .     S
O771   H1288   0.988   .     S
H774   O1289   0.989   .     S
C775   C779    1.447   .     S
C775   O805    1.300   .     A
C775   O803    1.300   .     A
C776   C780    1.449   .     S
C776   O806    1.302   .     A
C776   O804    1.299   .     A
C777   C839    1.538   .     S
C777   C794    1.432   .     A
C778   C793    1.416   .     A
C778   C846    1.533   .     S
C778   C710    1.403   1_655 S
C780   C951    1.352   .     S
C780   O1027   1.388   .     S
C781   O807    1.311   .     A
C781   C786    1.468   .     S
C781   O809    1.304   .     A
C782   O810    1.305   .     A
C782   O808    1.299   .     A
C782   C785    1.453   .     S
C783   C793    1.408   .     A
C783   C811    1.526   .     S
C783   C785    1.405   .     A
C784   C794    1.419   .     A
C784   C818    1.522   .     S
C784   C786    1.420   .     A
C785   C787    1.409   .     A
C786   C788    1.414   .     A
C787   C825    1.526   .     S
C787   C789    1.416   .     A
C788   C832    1.528   .     S
C788   C790    1.416   .     A
C789   C791    1.414   .     A
C789   C795    1.399   .     A
C790   C796    1.407   .     A
C790   C792    1.414   .     A
C791   C793    1.414   .     A
C791   C706    1.410   1_655 S
C792   C794    1.416   .     A
C795   H799    1.073   .     S
C795   C691    1.401   1_655 S
C796   H800    1.070   .     S
Cu797  O803    1.977   .     S
Cu797  O807    1.975   .     S
Cu797  Cu798   2.718   .     S
Cu797  N802    2.043   .     S
Cu797  O810    1.956   .     S
Cu797  O806    1.973   .     S
Cu798  N801    2.043   .     S
Cu798  O809    1.956   .     S
Cu798  O808    1.975   .     S
Cu798  O805    1.973   .     S
Cu798  O804    1.977   .     S
N802   N1317   1.290   .     S
N802   O1375   1.337   .     S
C811   H816    1.111   .     S
C811   H817    1.097   .     S
C811   C812    1.531   .     S
C812   H815    1.110   .     S
C812   H814    1.108   .     S
C812   H813    1.111   .     S
C818   H823    1.102   .     S
C818   C819    1.515   .     S
C818   H824    1.110   .     S
C819   H820    1.098   .     S
C819   H821    1.111   .     S
C819   H822    1.112   .     S
C825   H830    1.104   .     S
C825   H831    1.108   .     S
C825   C826    1.530   .     S
C826   H829    1.110   .     S
C826   H828    1.109   .     S
C826   H827    1.109   .     S
C832   H838    1.106   .     S
C832   C833    1.529   .     S
C832   H837    1.101   .     S
C833   H834    1.108   .     S
C833   H835    1.110   .     S
C833   H836    1.109   .     S
C839   H844    1.110   .     S
C840   H842    1.104   .     S
C840   H841    1.104   .     S
C840   C925    1.532   1_655 S
C840   H757    1.110   1_655 S
H845   C1011   1.095   .     S
C846   H851    1.092   .     S
C846   H852    1.109   .     S
C846   C1019   1.532   .     S
C847   H850    1.111   .     S
C847   H762    1.104   1_655 S
C847   H763    1.099   1_655 S
O853   C951    1.388   .     S
O853   H1026   0.990   .     S
H856   O1027   0.991   .     S
O857   N1317   1.333   .     S
O857   H1374   0.988   .     S
H860   O1375   0.989   .     S
C861   C865    1.447   .     S
C861   O891    1.300   .     A
C861   O889    1.300   .     A
C862   C866    1.449   .     S
C862   O892    1.302   .     A
C862   O890    1.299   .     A
C863   C925    1.538   .     S
C863   C880    1.432   .     A
C863   C967    1.401   1_455 S
C864   C879    1.416   .     A
C864   C932    1.533   .     S
C864   C968    1.403   .     S
C866   C521    1.352   1_565 S
C866   O597    1.388   1_565 S
C867   O893    1.311   .     A
C867   C872    1.468   .     S
C867   O895    1.304   .     A
C868   O896    1.305   .     A
C868   O894    1.299   .     A
C868   C871    1.453   .     S
C869   C879    1.408   .     A
C869   C897    1.526   .     S
C869   C871    1.405   .     A
C870   C880    1.419   .     A
C870   C904    1.522   .     S
C870   C872    1.420   .     A
C871   C873    1.409   .     A
C872   C874    1.414   .     A
C873   C911    1.526   .     S
C873   C875    1.416   .     A
C874   C918    1.528   .     S
C874   C876    1.416   .     A
C875   C877    1.414   .     A
C875   C881    1.399   .     A
C876   C882    1.407   .     A
C876   C878    1.414   .     A
C877   C879    1.414   .     A
C877   C964    1.410   .     S
C878   C880    1.416   .     A
C878   C963    1.410   1_455 S
C881   H885    1.073   .     S
C881   C949    1.401   .     S
C882   H886    1.070   .     S
C882   C950    1.403   1_455 S
Cu883  O889    1.977   .     S
Cu883  O893    1.975   .     S
Cu883  Cu884   2.718   .     S
Cu883  N888    2.043   .     S
Cu883  O896    1.956   .     S
Cu883  O892    1.973   .     S
Cu884  N887    2.043   .     S
Cu884  O895    1.956   .     S
Cu884  O894    1.975   .     S
Cu884  O891    1.973   .     S
Cu884  O890    1.977   .     S
N888   N1403   1.290   .     S
N888   O1461   1.337   .     S
C897   H902    1.111   .     S
C897   H903    1.097   .     S
C897   C898    1.531   .     S
C898   H901    1.110   .     S
C898   H900    1.108   .     S
C898   H899    1.111   .     S
C904   H909    1.102   .     S
C904   C905    1.515   .     S
C904   H910    1.110   .     S
C905   H906    1.098   .     S
C905   H907    1.111   .     S
C905   H908    1.112   .     S
C911   H916    1.104   .     S
C911   H917    1.108   .     S
C911   C912    1.530   .     S
C912   H915    1.110   .     S
C912   H914    1.109   .     S
C912   H913    1.109   .     S
C918   H924    1.106   .     S
C918   C919    1.529   .     S
C918   H923    1.101   .     S
C919   H920    1.108   .     S
C919   H921    1.110   .     S
C919   H922    1.109   .     S
C925   H930    1.110   .     S
C925   C840    1.532   1_455 S
C926   H928    1.104   .     S
C926   H927    1.104   .     S
C926   C667    1.532   1_565 S
C926   H1015   1.110   .     S
H929   C1012   1.110   1_455 S
H931   C581    1.095   1_565 S
C932   H937    1.092   .     S
C932   H938    1.109   .     S
C932   C589    1.532   1_565 S
C933   H936    1.111   .     S
C933   H1020   1.104   .     S
C933   H1021   1.099   .     S
H934   C1019   1.104   1_455 S
H935   C1019   1.099   1_455 S
O939   C521    1.388   1_565 S
O939   H596    0.990   1_565 S
H942   O597    0.991   1_565 S
O943   N1403   1.333   .     S
O943   H1460   0.988   .     S
H946   O1461   0.989   .     S
C947   C951    1.447   .     S
C947   O977    1.300   .     A
C947   O975    1.300   .     A
C948   C952    1.449   .     S
C948   O978    1.302   .     A
C948   O976    1.299   .     A
C949   C1011   1.538   .     S
C949   C966    1.432   .     A
C950   C965    1.416   .     A
C950   C1018   1.533   .     S
C950   C882    1.403   1_655 S
C952   C607    1.352   1_565 S
C952   O683    1.388   1_565 S
C953   O979    1.311   .     A
C953   C958    1.468   .     S
C953   O981    1.304   .     A
C954   O982    1.305   .     A
C954   O980    1.299   .     A
C954   C957    1.453   .     S
C955   C965    1.408   .     A
C955   C983    1.526   .     S
C955   C957    1.405   .     A
C956   C966    1.419   .     A
C956   C990    1.522   .     S
C956   C958    1.420   .     A
C957   C959    1.409   .     A
C958   C960    1.414   .     A
C959   C997    1.526   .     S
C959   C961    1.416   .     A
C960   C1004   1.528   .     S
C960   C962    1.416   .     A
C961   C963    1.414   .     A
C961   C967    1.399   .     A
C962   C968    1.407   .     A
C962   C964    1.414   .     A
C963   C965    1.414   .     A
C963   C878    1.410   1_655 S
C964   C966    1.416   .     A
C967   H971    1.073   .     S
C967   C863    1.401   1_655 S
C968   H972    1.070   .     S
Cu969  O975    1.977   .     S
Cu969  O979    1.975   .     S
Cu969  Cu970   2.718   .     S
Cu969  N974    2.043   .     S
Cu969  O982    1.956   .     S
Cu969  O978    1.973   .     S
Cu970  N973    2.043   .     S
Cu970  O981    1.956   .     S
Cu970  O980    1.975   .     S
Cu970  O977    1.973   .     S
Cu970  O976    1.977   .     S
N974   N1489   1.290   .     S
N974   O1547   1.337   .     S
C983   H988    1.111   .     S
C983   H989    1.097   .     S
C983   C984    1.531   .     S
C984   H987    1.110   .     S
C984   H986    1.108   .     S
C984   H985    1.111   .     S
C990   H995    1.102   .     S
C990   C991    1.515   .     S
C990   H996    1.110   .     S
C991   H992    1.098   .     S
C991   H993    1.111   .     S
C991   H994    1.112   .     S
C997   H1002   1.104   .     S
C997   H1003   1.108   .     S
C997   C998    1.530   .     S
C998   H1001   1.110   .     S
C998   H1000   1.109   .     S
C998   H999    1.109   .     S
C1004  H1010   1.106   .     S
C1004  C1005   1.529   .     S
C1004  H1009   1.101   .     S
C1005  H1006   1.108   .     S
C1005  H1007   1.110   .     S
C1005  H1008   1.109   .     S
C1011  H1016   1.110   .     S
C1012  H1014   1.104   .     S
C1012  H1013   1.104   .     S
C1012  C581    1.532   1_665 S
C1012  H929    1.110   1_655 S
H1017  C667    1.095   1_565 S
C1018  H1023   1.092   .     S
C1018  H1024   1.109   .     S
C1018  C675    1.532   1_565 S
C1019  H1022   1.111   .     S
C1019  H934    1.104   1_655 S
C1019  H935    1.099   1_655 S
O1025  C607    1.388   1_565 S
O1025  H682    0.990   1_565 S
H1028  O683    0.991   1_565 S
O1029  N1489   1.333   .     S
O1029  H1546   0.988   .     S
H1032  O1547   0.989   .     S
C1033  C1037   1.447   .     S
C1033  O1063   1.300   .     A
C1033  O1061   1.300   .     A
C1034  C1038   1.449   .     S
C1034  O1064   1.302   .     A
C1034  O1062   1.299   .     A
C1035  C1097   1.538   .     S
C1035  C1052   1.432   .     A
C1035  C1139   1.401   1_455 S
C1036  C1051   1.416   .     A
C1036  C1104   1.533   .     S
C1036  C1140   1.403   .     S
C1037  C1382   1.352   1_545 S
C1037  O1455   1.388   1_545 S
C1038  C1209   1.352   .     S
C1038  O1285   1.388   .     S
C1039  O1065   1.311   .     A
C1039  C1044   1.468   .     S
C1039  O1067   1.304   .     A
C1040  O1068   1.305   .     A
C1040  O1066   1.299   .     A
C1040  C1043   1.453   .     S
C1041  C1051   1.408   .     A
C1041  C1069   1.526   .     S
C1041  C1043   1.405   .     A
C1042  C1052   1.419   .     A
C1042  C1076   1.522   .     S
C1042  C1044   1.420   .     A
C1043  C1045   1.409   .     A
C1044  C1046   1.414   .     A
C1045  C1083   1.526   .     S
C1045  C1047   1.416   .     A
C1046  C1090   1.528   .     S
C1046  C1048   1.416   .     A
C1047  C1049   1.414   .     A
C1047  C1053   1.399   .     A
C1048  C1054   1.407   .     A
C1048  C1050   1.414   .     A
C1049  C1051   1.414   .     A
C1049  C1136   1.410   .     S
C1050  C1052   1.416   .     A
C1050  C1135   1.410   1_455 S
C1053  H1057   1.073   .     S
C1053  C1121   1.401   .     S
C1054  H1058   1.070   .     S
C1054  C1122   1.403   1_455 S
Cu1055 O1061   1.977   .     S
Cu1055 O1065   1.975   .     S
Cu1055 Cu1056  2.718   .     S
Cu1055 N1060   2.043   .     S
Cu1055 O1068   1.956   .     S
Cu1055 O1064   1.973   .     S
Cu1056 N1059   2.043   .     S
Cu1056 O1067   1.956   .     S
Cu1056 O1066   1.975   .     S
Cu1056 O1063   1.973   .     S
Cu1056 O1062   1.977   .     S
N1060  N27     1.290   1_556 S
N1060  O85     1.337   1_556 S
C1069  H1074   1.111   .     S
C1069  H1075   1.097   .     S
C1069  C1070   1.531   .     S
C1070  H1073   1.110   .     S
C1070  H1072   1.108   .     S
C1070  H1071   1.111   .     S
C1076  H1081   1.102   .     S
C1076  C1077   1.515   .     S
C1076  H1082   1.110   .     S
C1077  H1078   1.098   .     S
C1077  H1079   1.111   .     S
C1077  H1080   1.112   .     S
C1083  H1088   1.104   .     S
C1083  H1089   1.108   .     S
C1083  C1084   1.530   .     S
C1084  H1087   1.110   .     S
C1084  H1086   1.109   .     S
C1084  H1085   1.109   .     S
C1090  H1096   1.106   .     S
C1090  C1091   1.529   .     S
C1090  H1095   1.101   .     S
C1091  H1092   1.108   .     S
C1091  H1093   1.110   .     S
C1091  H1094   1.109   .     S
C1097  H1102   1.110   .     S
C1097  C1528   1.532   1_445 S
C1097  H1447   1.095   1_545 S
C1098  H1100   1.104   .     S
C1098  H1099   1.104   .     S
C1098  C1355   1.532   .     S
C1098  H1187   1.110   .     S
H1101  C1184   1.110   1_455 S
H1103  C1269   1.095   .     S
C1104  H1109   1.092   .     S
C1104  H1110   1.109   .     S
C1104  C1277   1.532   .     S
C1105  H1108   1.111   .     S
C1105  C1448   1.532   1_545 S
C1105  H1192   1.104   .     S
C1105  H1193   1.099   .     S
H1106  C1191   1.104   1_455 S
H1107  C1191   1.099   1_455 S
O1111  C1209   1.388   .     S
O1111  H1284   0.990   .     S
H1112  O1455   0.990   1_545 S
O1113  C1382   1.388   1_545 S
O1113  H1458   0.991   1_545 S
H1114  O1285   0.991   .     S
O1115  N27     1.333   1_556 S
O1115  H84     0.988   1_556 S
H1118  O85     0.989   1_556 S
C1119  C1123   1.447   .     S
C1119  O1149   1.300   .     A
C1119  O1147   1.300   .     A
C1120  C1124   1.449   .     S
C1120  O1150   1.302   .     A
C1120  O1148   1.299   .     A
C1121  C1183   1.538   .     S
C1121  C1138   1.432   .     A
C1122  C1137   1.416   .     A
C1122  C1190   1.533   .     S
C1122  C1054   1.403   1_655 S
C1123  C1468   1.352   1_545 S
C1123  O1541   1.388   1_545 S
C1124  C1295   1.352   .     S
C1124  O1371   1.388   .     S
C1125  O1151   1.311   .     A
C1125  C1130   1.468   .     S
C1125  O1153   1.304   .     A
C1126  O1154   1.305   .     A
C1126  O1152   1.299   .     A
C1126  C1129   1.453   .     S
C1127  C1137   1.408   .     A
C1127  C1155   1.526   .     S
C1127  C1129   1.405   .     A
C1128  C1138   1.419   .     A
C1128  C1162   1.522   .     S
C1128  C1130   1.420   .     A
C1129  C1131   1.409   .     A
C1130  C1132   1.414   .     A
C1131  C1169   1.526   .     S
C1131  C1133   1.416   .     A
C1132  C1176   1.528   .     S
C1132  C1134   1.416   .     A
C1133  C1135   1.414   .     A
C1133  C1139   1.399   .     A
C1134  C1140   1.407   .     A
C1134  C1136   1.414   .     A
C1135  C1137   1.414   .     A
C1135  C1050   1.410   1_655 S
C1136  C1138   1.416   .     A
C1139  H1143   1.073   .     S
C1139  C1035   1.401   1_655 S
C1140  H1144   1.070   .     S
Cu1141 O1147   1.977   .     S
Cu1141 O1151   1.975   .     S
Cu1141 Cu1142  2.718   .     S
Cu1141 N1146   2.043   .     S
Cu1141 O1154   1.956   .     S
Cu1141 O1150   1.973   .     S
Cu1142 N1145   2.043   .     S
Cu1142 O1153   1.956   .     S
Cu1142 O1152   1.975   .     S
Cu1142 O1149   1.973   .     S
Cu1142 O1148   1.977   .     S
N1146  N113    1.290   1_556 S
N1146  O171    1.337   1_556 S
C1155  H1160   1.111   .     S
C1155  H1161   1.097   .     S
C1155  C1156   1.531   .     S
C1156  H1159   1.110   .     S
C1156  H1158   1.108   .     S
C1156  H1157   1.111   .     S
C1162  H1167   1.102   .     S
C1162  C1163   1.515   .     S
C1162  H1168   1.110   .     S
C1163  H1164   1.098   .     S
C1163  H1165   1.111   .     S
C1163  H1166   1.112   .     S
C1169  H1174   1.104   .     S
C1169  H1175   1.108   .     S
C1169  C1170   1.530   .     S
C1170  H1173   1.110   .     S
C1170  H1172   1.109   .     S
C1170  H1171   1.109   .     S
C1176  H1182   1.106   .     S
C1176  C1177   1.529   .     S
C1176  H1181   1.101   .     S
C1177  H1178   1.108   .     S
C1177  H1179   1.110   .     S
C1177  H1180   1.109   .     S
C1183  H1188   1.110   .     S
C1183  C1442   1.532   1_545 S
C1183  H1533   1.095   1_545 S
C1184  H1186   1.104   .     S
C1184  H1185   1.104   .     S
C1184  C1269   1.532   1_655 S
C1184  H1101   1.110   1_655 S
H1189  C1355   1.095   .     S
C1190  H1195   1.092   .     S
C1190  H1196   1.109   .     S
C1190  C1363   1.532   .     S
C1191  H1194   1.111   .     S
C1191  C1534   1.532   1_545 S
C1191  H1106   1.104   1_655 S
C1191  H1107   1.099   1_655 S
O1197  C1295   1.388   .     S
O1197  H1370   0.990   .     S
H1198  O1541   0.990   1_545 S
O1199  C1468   1.388   1_545 S
O1199  H1544   0.991   1_545 S
H1200  O1371   0.991   .     S
O1201  N113    1.333   1_556 S
O1201  H170    0.988   1_556 S
H1204  O171    0.989   1_556 S
C1205  C1209   1.447   .     S
C1205  O1235   1.300   .     A
C1205  O1233   1.300   .     A
C1206  C1210   1.449   .     S
C1206  O1236   1.302   .     A
C1206  O1234   1.299   .     A
C1207  C1269   1.538   .     S
C1207  C1224   1.432   .     A
C1207  C1311   1.401   1_455 S
C1208  C1223   1.416   .     A
C1208  C1276   1.533   .     S
C1208  C1312   1.403   .     S
C1210  C1381   1.352   .     S
C1210  O1457   1.388   .     S
C1211  O1237   1.311   .     A
C1211  C1216   1.468   .     S
C1211  O1239   1.304   .     A
C1212  O1240   1.305   .     A
C1212  O1238   1.299   .     A
C1212  C1215   1.453   .     S
C1213  C1223   1.408   .     A
C1213  C1241   1.526   .     S
C1213  C1215   1.405   .     A
C1214  C1224   1.419   .     A
C1214  C1248   1.522   .     S
C1214  C1216   1.420   .     A
C1215  C1217   1.409   .     A
C1216  C1218   1.414   .     A
C1217  C1255   1.526   .     S
C1217  C1219   1.416   .     A
C1218  C1262   1.528   .     S
C1218  C1220   1.416   .     A
C1219  C1221   1.414   .     A
C1219  C1225   1.399   .     A
C1220  C1226   1.407   .     A
C1220  C1222   1.414   .     A
C1221  C1223   1.414   .     A
C1221  C1308   1.410   .     S
C1222  C1224   1.416   .     A
C1222  C1307   1.410   1_455 S
C1225  H1229   1.073   .     S
C1225  C1293   1.401   .     S
C1226  H1230   1.070   .     S
C1226  C1294   1.403   1_455 S
Cu1227 O1233   1.977   .     S
Cu1227 O1237   1.975   .     S
Cu1227 Cu1228  2.718   .     S
Cu1227 N1232   2.043   .     S
Cu1227 O1240   1.956   .     S
Cu1227 O1236   1.973   .     S
Cu1228 N1231   2.043   .     S
Cu1228 O1239   1.956   .     S
Cu1228 O1238   1.975   .     S
Cu1228 O1235   1.973   .     S
Cu1228 O1234   1.977   .     S
N1232  N199    1.290   1_556 S
N1232  O257    1.337   1_556 S
C1241  H1246   1.111   .     S
C1241  H1247   1.097   .     S
C1241  C1242   1.531   .     S
C1242  H1245   1.110   .     S
C1242  H1244   1.108   .     S
C1242  H1243   1.111   .     S
C1248  H1253   1.102   .     S
C1248  C1249   1.515   .     S
C1248  H1254   1.110   .     S
C1249  H1250   1.098   .     S
C1249  H1251   1.111   .     S
C1249  H1252   1.112   .     S
C1255  H1260   1.104   .     S
C1255  H1261   1.108   .     S
C1255  C1256   1.530   .     S
C1256  H1259   1.110   .     S
C1256  H1258   1.109   .     S
C1256  H1257   1.109   .     S
C1262  H1268   1.106   .     S
C1262  C1263   1.529   .     S
C1262  H1267   1.101   .     S
C1263  H1264   1.108   .     S
C1263  H1265   1.110   .     S
C1263  H1266   1.109   .     S
C1269  H1274   1.110   .     S
C1269  C1184   1.532   1_455 S
C1270  H1272   1.104   .     S
C1270  H1271   1.104   .     S
C1270  C1527   1.532   .     S
C1270  H1359   1.110   .     S
H1273  C1356   1.110   1_455 S
H1275  C1441   1.095   .     S
C1276  H1281   1.092   .     S
C1276  H1282   1.109   .     S
C1276  C1449   1.532   .     S
C1277  H1280   1.111   .     S
C1277  H1364   1.104   .     S
C1277  H1365   1.099   .     S
H1278  C1363   1.104   1_455 S
H1279  C1363   1.099   1_455 S
O1283  C1381   1.388   .     S
O1283  H1456   0.990   .     S
H1286  O1457   0.991   .     S
O1287  N199    1.333   1_556 S
O1287  H256    0.988   1_556 S
H1290  O257    0.989   1_556 S
C1291  C1295   1.447   .     S
C1291  O1321   1.300   .     A
C1291  O1319   1.300   .     A
C1292  C1296   1.449   .     S
C1292  O1322   1.302   .     A
C1292  O1320   1.299   .     A
C1293  C1355   1.538   .     S
C1293  C1310   1.432   .     A
C1294  C1309   1.416   .     A
C1294  C1362   1.533   .     S
C1294  C1226   1.403   1_655 S
C1296  C1467   1.352   .     S
C1296  O1543   1.388   .     S
C1297  O1323   1.311   .     A
C1297  C1302   1.468   .     S
C1297  O1325   1.304   .     A
C1298  O1326   1.305   .     A
C1298  O1324   1.299   .     A
C1298  C1301   1.453   .     S
C1299  C1309   1.408   .     A
C1299  C1327   1.526   .     S
C1299  C1301   1.405   .     A
C1300  C1310   1.419   .     A
C1300  C1334   1.522   .     S
C1300  C1302   1.420   .     A
C1301  C1303   1.409   .     A
C1302  C1304   1.414   .     A
C1303  C1341   1.526   .     S
C1303  C1305   1.416   .     A
C1304  C1348   1.528   .     S
C1304  C1306   1.416   .     A
C1305  C1307   1.414   .     A
C1305  C1311   1.399   .     A
C1306  C1312   1.407   .     A
C1306  C1308   1.414   .     A
C1307  C1309   1.414   .     A
C1307  C1222   1.410   1_655 S
C1308  C1310   1.416   .     A
C1311  H1315   1.073   .     S
C1311  C1207   1.401   1_655 S
C1312  H1316   1.070   .     S
Cu1313 O1319   1.977   .     S
Cu1313 O1323   1.975   .     S
Cu1313 Cu1314  2.718   .     S
Cu1313 N1318   2.043   .     S
Cu1313 O1326   1.956   .     S
Cu1313 O1322   1.973   .     S
Cu1314 N1317   2.043   .     S
Cu1314 O1325   1.956   .     S
Cu1314 O1324   1.975   .     S
Cu1314 O1321   1.973   .     S
Cu1314 O1320   1.977   .     S
N1318  N285    1.290   1_556 S
N1318  O343    1.337   1_556 S
C1327  H1332   1.111   .     S
C1327  H1333   1.097   .     S
C1327  C1328   1.531   .     S
C1328  H1331   1.110   .     S
C1328  H1330   1.108   .     S
C1328  H1329   1.111   .     S
C1334  H1339   1.102   .     S
C1334  C1335   1.515   .     S
C1334  H1340   1.110   .     S
C1335  H1336   1.098   .     S
C1335  H1337   1.111   .     S
C1335  H1338   1.112   .     S
C1341  H1346   1.104   .     S
C1341  H1347   1.108   .     S
C1341  C1342   1.530   .     S
C1342  H1345   1.110   .     S
C1342  H1344   1.109   .     S
C1342  H1343   1.109   .     S
C1348  H1354   1.106   .     S
C1348  C1349   1.529   .     S
C1348  H1353   1.101   .     S
C1349  H1350   1.108   .     S
C1349  H1351   1.110   .     S
C1349  H1352   1.109   .     S
C1355  H1360   1.110   .     S
C1356  H1358   1.104   .     S
C1356  H1357   1.104   .     S
C1356  C1441   1.532   1_655 S
C1356  H1273   1.110   1_655 S
H1361  C1527   1.095   .     S
C1362  H1367   1.092   .     S
C1362  H1368   1.109   .     S
C1362  C1535   1.532   .     S
C1363  H1366   1.111   .     S
C1363  H1278   1.104   1_655 S
C1363  H1279   1.099   1_655 S
O1369  C1467   1.388   .     S
O1369  H1542   0.990   .     S
H1372  O1543   0.991   .     S
O1373  N285    1.333   1_556 S
O1373  H342    0.988   1_556 S
H1376  O343    0.989   1_556 S
C1377  C1381   1.447   .     S
C1377  O1407   1.300   .     A
C1377  O1405   1.300   .     A
C1378  C1382   1.449   .     S
C1378  O1408   1.302   .     A
C1378  O1406   1.299   .     A
C1379  C1441   1.538   .     S
C1379  C1396   1.432   .     A
C1379  C1483   1.401   1_455 S
C1380  C1395   1.416   .     A
C1380  C1448   1.533   .     S
C1380  C1484   1.403   .     S
C1382  C1037   1.352   1_565 S
C1382  O1113   1.388   1_565 S
C1383  O1409   1.311   .     A
C1383  C1388   1.468   .     S
C1383  O1411   1.304   .     A
C1384  O1412   1.305   .     A
C1384  O1410   1.299   .     A
C1384  C1387   1.453   .     S
C1385  C1395   1.408   .     A
C1385  C1413   1.526   .     S
C1385  C1387   1.405   .     A
C1386  C1396   1.419   .     A
C1386  C1420   1.522   .     S
C1386  C1388   1.420   .     A
C1387  C1389   1.409   .     A
C1388  C1390   1.414   .     A
C1389  C1427   1.526   .     S
C1389  C1391   1.416   .     A
C1390  C1434   1.528   .     S
C1390  C1392   1.416   .     A
C1391  C1393   1.414   .     A
C1391  C1397   1.399   .     A
C1392  C1398   1.407   .     A
C1392  C1394   1.414   .     A
C1393  C1395   1.414   .     A
C1393  C1480   1.410   .     S
C1394  C1396   1.416   .     A
C1394  C1479   1.410   1_455 S
C1397  H1401   1.073   .     S
C1397  C1465   1.401   .     S
C1398  H1402   1.070   .     S
C1398  C1466   1.403   1_455 S
Cu1399 O1405   1.977   .     S
Cu1399 O1409   1.975   .     S
Cu1399 Cu1400  2.718   .     S
Cu1399 N1404   2.043   .     S
Cu1399 O1412   1.956   .     S
Cu1399 O1408   1.973   .     S
Cu1400 N1403   2.043   .     S
Cu1400 O1411   1.956   .     S
Cu1400 O1410   1.975   .     S
Cu1400 O1407   1.973   .     S
Cu1400 O1406   1.977   .     S
N1404  N371    1.290   1_556 S
N1404  O429    1.337   1_556 S
C1413  H1418   1.111   .     S
C1413  H1419   1.097   .     S
C1413  C1414   1.531   .     S
C1414  H1417   1.110   .     S
C1414  H1416   1.108   .     S
C1414  H1415   1.111   .     S
C1420  H1425   1.102   .     S
C1420  C1421   1.515   .     S
C1420  H1426   1.110   .     S
C1421  H1422   1.098   .     S
C1421  H1423   1.111   .     S
C1421  H1424   1.112   .     S
C1427  H1432   1.104   .     S
C1427  H1433   1.108   .     S
C1427  C1428   1.530   .     S
C1428  H1431   1.110   .     S
C1428  H1430   1.109   .     S
C1428  H1429   1.109   .     S
C1434  H1440   1.106   .     S
C1434  C1435   1.529   .     S
C1434  H1439   1.101   .     S
C1435  H1436   1.108   .     S
C1435  H1437   1.110   .     S
C1435  H1438   1.109   .     S
C1441  H1446   1.110   .     S
C1441  C1356   1.532   1_455 S
C1442  H1444   1.104   .     S
C1442  H1443   1.104   .     S
C1442  C1183   1.532   1_565 S
C1442  H1531   1.110   .     S
H1445  C1528   1.110   1_455 S
H1447  C1097   1.095   1_565 S
C1448  H1453   1.092   .     S
C1448  H1454   1.109   .     S
C1448  C1105   1.532   1_565 S
C1449  H1452   1.111   .     S
C1449  H1536   1.104   .     S
C1449  H1537   1.099   .     S
H1450  C1535   1.104   1_455 S
H1451  C1535   1.099   1_455 S
O1455  C1037   1.388   1_565 S
O1455  H1112   0.990   1_565 S
H1458  O1113   0.991   1_565 S
O1459  N371    1.333   1_556 S
O1459  H428    0.988   1_556 S
H1462  O429    0.989   1_556 S
C1463  C1467   1.447   .     S
C1463  O1493   1.300   .     A
C1463  O1491   1.300   .     A
C1464  C1468   1.449   .     S
C1464  O1494   1.302   .     A
C1464  O1492   1.299   .     A
C1465  C1527   1.538   .     S
C1465  C1482   1.432   .     A
C1466  C1481   1.416   .     A
C1466  C1534   1.533   .     S
C1466  C1398   1.403   1_655 S
C1468  C1123   1.352   1_565 S
C1468  O1199   1.388   1_565 S
C1469  O1495   1.311   .     A
C1469  C1474   1.468   .     S
C1469  O1497   1.304   .     A
C1470  O1498   1.305   .     A
C1470  O1496   1.299   .     A
C1470  C1473   1.453   .     S
C1471  C1481   1.408   .     A
C1471  C1499   1.526   .     S
C1471  C1473   1.405   .     A
C1472  C1482   1.419   .     A
C1472  C1506   1.522   .     S
C1472  C1474   1.420   .     A
C1473  C1475   1.409   .     A
C1474  C1476   1.414   .     A
C1475  C1513   1.526   .     S
C1475  C1477   1.416   .     A
C1476  C1520   1.528   .     S
C1476  C1478   1.416   .     A
C1477  C1479   1.414   .     A
C1477  C1483   1.399   .     A
C1478  C1484   1.407   .     A
C1478  C1480   1.414   .     A
C1479  C1481   1.414   .     A
C1479  C1394   1.410   1_655 S
C1480  C1482   1.416   .     A
C1483  H1487   1.073   .     S
C1483  C1379   1.401   1_655 S
C1484  H1488   1.070   .     S
Cu1485 O1491   1.977   .     S
Cu1485 O1495   1.975   .     S
Cu1485 Cu1486  2.718   .     S
Cu1485 N1490   2.043   .     S
Cu1485 O1498   1.956   .     S
Cu1485 O1494   1.973   .     S
Cu1486 N1489   2.043   .     S
Cu1486 O1497   1.956   .     S
Cu1486 O1496   1.975   .     S
Cu1486 O1493   1.973   .     S
Cu1486 O1492   1.977   .     S
N1490  N457    1.290   1_556 S
N1490  O515    1.337   1_556 S
C1499  H1504   1.111   .     S
C1499  H1505   1.097   .     S
C1499  C1500   1.531   .     S
C1500  H1503   1.110   .     S
C1500  H1502   1.108   .     S
C1500  H1501   1.111   .     S
C1506  H1511   1.102   .     S
C1506  C1507   1.515   .     S
C1506  H1512   1.110   .     S
C1507  H1508   1.098   .     S
C1507  H1509   1.111   .     S
C1507  H1510   1.112   .     S
C1513  H1518   1.104   .     S
C1513  H1519   1.108   .     S
C1513  C1514   1.530   .     S
C1514  H1517   1.110   .     S
C1514  H1516   1.109   .     S
C1514  H1515   1.109   .     S
C1520  H1526   1.106   .     S
C1520  C1521   1.529   .     S
C1520  H1525   1.101   .     S
C1521  H1522   1.108   .     S
C1521  H1523   1.110   .     S
C1521  H1524   1.109   .     S
C1527  H1532   1.110   .     S
C1528  H1530   1.104   .     S
C1528  H1529   1.104   .     S
C1528  C1097   1.532   1_665 S
C1528  H1445   1.110   1_655 S
H1533  C1183   1.095   1_565 S
C1534  H1539   1.092   .     S
C1534  H1540   1.109   .     S
C1534  C1191   1.532   1_565 S
C1535  H1538   1.111   .     S
C1535  H1450   1.104   1_655 S
C1535  H1451   1.099   1_655 S
O1541  C1123   1.388   1_565 S
O1541  H1198   0.990   1_565 S
H1544  O1199   0.991   1_565 S
O1545  N457    1.333   1_556 S
O1545  H514    0.988   1_556 S
H1548  O515    0.989   1_556 S
