data_str_m2_o1_o10_pcu_sym.170
_audit_creation_date              2020-01-03
_audit_creation_method            'Materials Studio'
_symmetry_space_group_name_H-M    'P1'
_symmetry_Int_Tables_number       1
_symmetry_cell_setting            triclinic
loop_
_symmetry_equiv_pos_as_xyz
  x,y,z
_cell_length_a                    26.1830
_cell_length_b                    32.3856
_cell_length_c                    28.7486
_cell_angle_alpha                 89.7231
_cell_angle_beta                  97.6392
_cell_angle_gamma                 91.4125
loop_
_atom_site_label
_atom_site_type_symbol
_atom_site_fract_x
_atom_site_fract_y
_atom_site_fract_z
_atom_site_U_iso_or_equiv
_atom_site_adp_type
_atom_site_occupancy
C1     C     0.16799   0.08753   0.16688   0.00000  Uiso   1.00
C2     C     0.16534   0.24580   0.16645   0.00000  Uiso   1.00
C3     C     0.06802   0.16659   0.15467   0.00000  Uiso   1.00
C4     C     0.26532   0.16674   0.17866   0.00000  Uiso   1.00
C5     C     0.01275   0.16649   0.14808   0.00000  Uiso   1.00
C6     C     0.32058   0.16685   0.18526   0.00000  Uiso   1.00
C7     C     0.13790   0.02195   0.13082   0.00000  Uiso   1.00
C8     C     0.19543   0.31139   0.20251   0.00000  Uiso   1.00
C9     C     0.13422   0.31252   0.13055   0.00000  Uiso   1.00
C10    C     0.19911   0.02081   0.20278   0.00000  Uiso   1.00
C11    C     0.16418   0.29043   0.16645   0.00000  Uiso   1.00
C12    C     0.16915   0.04290   0.16689   0.00000  Uiso   1.00
C13    C     0.13387   0.14077   0.02170   0.00000  Uiso   1.00
C14    C     0.19946   0.19256   0.31163   0.00000  Uiso   1.00
C15    C     0.13395   0.14067   0.30506   0.00000  Uiso   1.00
C16    C     0.19938   0.19266   0.02827   0.00000  Uiso   1.00
Cu17   Cu    0.16667   0.16667   0.21355   0.00000  Uiso   1.00
Cu18   Cu    0.16667   0.16666   0.11978   0.00000  Uiso   1.00
H19    H     0.32631   0.16606   0.11235   0.00000  Uiso   1.00
H20    H     0.00703   0.16727   0.22099   0.00000  Uiso   1.00
H21    H     0.11448   0.03896   0.10363   0.00000  Uiso   1.00
H22    H     0.21885   0.29437   0.22971   0.00000  Uiso   1.00
N23    N     0.16668   0.16668   0.28403   0.00000  Uiso   1.00
N24    N     0.16665   0.16666   0.04931   0.00000  Uiso   1.00
O25    O     0.16666   0.10655   0.20625   0.00000  Uiso   1.00
O26    O     0.16667   0.22678   0.12709   0.00000  Uiso   1.00
O27    O     0.16666   0.10654   0.12706   0.00000  Uiso   1.00
O28    O     0.16667   0.22679   0.20628   0.00000  Uiso   1.00
O29    O     0.09161   0.16667   0.19712   0.00000  Uiso   1.00
O30    O     0.24172   0.16666   0.13621   0.00000  Uiso   1.00
O31    O     0.09161   0.16666   0.11793   0.00000  Uiso   1.00
O32    O     0.24172   0.16667   0.21540   0.00000  Uiso   1.00
O33    O     0.10003   0.29399   0.09569   0.00000  Uiso   1.00
H34    H     0.08935   0.26648   0.10662   0.00000  Uiso   1.00
O35    O     0.23330   0.03934   0.23765   0.00000  Uiso   1.00
H36    H     0.24398   0.06685   0.22671   0.00000  Uiso   1.00
O37    O     0.10162   0.11525   0.04392   0.00000  Uiso   1.00
H38    H     0.07804   0.09906   0.02093   0.00000  Uiso   1.00
O39    O     0.23171   0.21808   0.28941   0.00000  Uiso   1.00
H40    H     0.25530   0.23428   0.31240   0.00000  Uiso   1.00
Cl41   Cl    0.09203   0.10628   0.27010   0.00000  Uiso   1.00
Cl42   Cl    0.24130   0.22705   0.06323   0.00000  Uiso   1.00
C43    C     0.50133   0.08753   0.16688   0.00000  Uiso   1.00
C44    C     0.49867   0.24580   0.16645   0.00000  Uiso   1.00
C45    C     0.40135   0.16659   0.15467   0.00000  Uiso   1.00
C46    C     0.59865   0.16674   0.17866   0.00000  Uiso   1.00
C47    C     0.34609   0.16649   0.14808   0.00000  Uiso   1.00
C48    C     0.65391   0.16685   0.18526   0.00000  Uiso   1.00
C49    C     0.47123   0.02195   0.13082   0.00000  Uiso   1.00
C50    C     0.52877   0.31139   0.20251   0.00000  Uiso   1.00
C51    C     0.46756   0.31252   0.13055   0.00000  Uiso   1.00
C52    C     0.53244   0.02081   0.20278   0.00000  Uiso   1.00
C53    C     0.49752   0.29043   0.16645   0.00000  Uiso   1.00
C54    C     0.50248   0.04290   0.16689   0.00000  Uiso   1.00
C55    C     0.46721   0.14077   0.02170   0.00000  Uiso   1.00
C56    C     0.53279   0.19256   0.31163   0.00000  Uiso   1.00
C57    C     0.46729   0.14067   0.30506   0.00000  Uiso   1.00
C58    C     0.53271   0.19266   0.02827   0.00000  Uiso   1.00
Cu59   Cu    0.50000   0.16667   0.21355   0.00000  Uiso   1.00
Cu60   Cu    0.50000   0.16666   0.11978   0.00000  Uiso   1.00
H61    H     0.65964   0.16606   0.11235   0.00000  Uiso   1.00
H62    H     0.34036   0.16727   0.22099   0.00000  Uiso   1.00
H63    H     0.44781   0.03896   0.10363   0.00000  Uiso   1.00
H64    H     0.55219   0.29437   0.22971   0.00000  Uiso   1.00
N65    N     0.50001   0.16668   0.28403   0.00000  Uiso   1.00
N66    N     0.49999   0.16666   0.04931   0.00000  Uiso   1.00
O67    O     0.50000   0.10655   0.20625   0.00000  Uiso   1.00
O68    O     0.50000   0.22678   0.12709   0.00000  Uiso   1.00
O69    O     0.50000   0.10654   0.12706   0.00000  Uiso   1.00
O70    O     0.50000   0.22679   0.20628   0.00000  Uiso   1.00
O71    O     0.42495   0.16667   0.19712   0.00000  Uiso   1.00
O72    O     0.57505   0.16666   0.13621   0.00000  Uiso   1.00
O73    O     0.42494   0.16666   0.11793   0.00000  Uiso   1.00
O74    O     0.57506   0.16667   0.21540   0.00000  Uiso   1.00
O75    O     0.43337   0.29399   0.09569   0.00000  Uiso   1.00
H76    H     0.42269   0.26648   0.10662   0.00000  Uiso   1.00
O77    O     0.56663   0.03934   0.23765   0.00000  Uiso   1.00
H78    H     0.57731   0.06685   0.22671   0.00000  Uiso   1.00
O79    O     0.43495   0.11525   0.04392   0.00000  Uiso   1.00
H80    H     0.41137   0.09906   0.02093   0.00000  Uiso   1.00
O81    O     0.56505   0.21808   0.28941   0.00000  Uiso   1.00
H82    H     0.58863   0.23428   0.31240   0.00000  Uiso   1.00
Cl83   Cl    0.42536   0.10628   0.27010   0.00000  Uiso   1.00
Cl84   Cl    0.57464   0.22705   0.06323   0.00000  Uiso   1.00
C85    C     0.83466   0.08753   0.16688   0.00000  Uiso   1.00
C86    C     0.83201   0.24580   0.16645   0.00000  Uiso   1.00
C87    C     0.73468   0.16659   0.15467   0.00000  Uiso   1.00
C88    C     0.93198   0.16674   0.17866   0.00000  Uiso   1.00
C89    C     0.67942   0.16649   0.14808   0.00000  Uiso   1.00
C90    C     0.98725   0.16685   0.18526   0.00000  Uiso   1.00
C91    C     0.80457   0.02195   0.13082   0.00000  Uiso   1.00
C92    C     0.86210   0.31139   0.20251   0.00000  Uiso   1.00
C93    C     0.80089   0.31252   0.13055   0.00000  Uiso   1.00
C94    C     0.86578   0.02081   0.20278   0.00000  Uiso   1.00
C95    C     0.83085   0.29043   0.16645   0.00000  Uiso   1.00
C96    C     0.83582   0.04290   0.16689   0.00000  Uiso   1.00
C97    C     0.80054   0.14077   0.02170   0.00000  Uiso   1.00
C98    C     0.86613   0.19256   0.31163   0.00000  Uiso   1.00
C99    C     0.80062   0.14067   0.30506   0.00000  Uiso   1.00
C100   C     0.86605   0.19266   0.02827   0.00000  Uiso   1.00
Cu101  Cu    0.83333   0.16667   0.21355   0.00000  Uiso   1.00
Cu102  Cu    0.83333   0.16666   0.11978   0.00000  Uiso   1.00
H103   H     0.99297   0.16606   0.11235   0.00000  Uiso   1.00
H104   H     0.67369   0.16727   0.22099   0.00000  Uiso   1.00
H105   H     0.78115   0.03896   0.10363   0.00000  Uiso   1.00
H106   H     0.88552   0.29437   0.22971   0.00000  Uiso   1.00
N107   N     0.83335   0.16668   0.28403   0.00000  Uiso   1.00
N108   N     0.83332   0.16666   0.04931   0.00000  Uiso   1.00
O109   O     0.83333   0.10655   0.20625   0.00000  Uiso   1.00
O110   O     0.83334   0.22678   0.12709   0.00000  Uiso   1.00
O111   O     0.83333   0.10654   0.12706   0.00000  Uiso   1.00
O112   O     0.83334   0.22679   0.20628   0.00000  Uiso   1.00
O113   O     0.75828   0.16667   0.19712   0.00000  Uiso   1.00
O114   O     0.90839   0.16666   0.13621   0.00000  Uiso   1.00
O115   O     0.75828   0.16666   0.11793   0.00000  Uiso   1.00
O116   O     0.90839   0.16667   0.21540   0.00000  Uiso   1.00
O117   O     0.76670   0.29399   0.09569   0.00000  Uiso   1.00
H118   H     0.75602   0.26648   0.10662   0.00000  Uiso   1.00
O119   O     0.89997   0.03934   0.23765   0.00000  Uiso   1.00
H120   H     0.91065   0.06685   0.22671   0.00000  Uiso   1.00
O121   O     0.76829   0.11525   0.04392   0.00000  Uiso   1.00
H122   H     0.74470   0.09906   0.02093   0.00000  Uiso   1.00
O123   O     0.89838   0.21808   0.28941   0.00000  Uiso   1.00
H124   H     0.92196   0.23428   0.31240   0.00000  Uiso   1.00
Cl125  Cl    0.75870   0.10628   0.27010   0.00000  Uiso   1.00
Cl126  Cl    0.90797   0.22705   0.06323   0.00000  Uiso   1.00
C127   C     0.16799   0.42086   0.16688   0.00000  Uiso   1.00
C128   C     0.16534   0.57914   0.16645   0.00000  Uiso   1.00
C129   C     0.06802   0.49993   0.15467   0.00000  Uiso   1.00
C130   C     0.26532   0.50007   0.17866   0.00000  Uiso   1.00
C131   C     0.01275   0.49982   0.14808   0.00000  Uiso   1.00
C132   C     0.32058   0.50018   0.18526   0.00000  Uiso   1.00
C133   C     0.13790   0.35528   0.13082   0.00000  Uiso   1.00
C134   C     0.19543   0.64472   0.20251   0.00000  Uiso   1.00
C135   C     0.13422   0.64586   0.13055   0.00000  Uiso   1.00
C136   C     0.19911   0.35414   0.20278   0.00000  Uiso   1.00
C137   C     0.16418   0.62376   0.16645   0.00000  Uiso   1.00
C138   C     0.16915   0.37624   0.16689   0.00000  Uiso   1.00
C139   C     0.13387   0.47411   0.02170   0.00000  Uiso   1.00
C140   C     0.19946   0.52589   0.31163   0.00000  Uiso   1.00
C141   C     0.13395   0.47401   0.30506   0.00000  Uiso   1.00
C142   C     0.19938   0.52599   0.02827   0.00000  Uiso   1.00
Cu143  Cu    0.16667   0.50001   0.21355   0.00000  Uiso   1.00
Cu144  Cu    0.16667   0.49999   0.11978   0.00000  Uiso   1.00
H145   H     0.32631   0.49940   0.11235   0.00000  Uiso   1.00
H146   H     0.00703   0.50060   0.22099   0.00000  Uiso   1.00
H147   H     0.11448   0.37230   0.10363   0.00000  Uiso   1.00
H148   H     0.21885   0.62770   0.22971   0.00000  Uiso   1.00
N149   N     0.16668   0.50001   0.28403   0.00000  Uiso   1.00
N150   N     0.16665   0.49999   0.04931   0.00000  Uiso   1.00
O151   O     0.16666   0.43989   0.20625   0.00000  Uiso   1.00
O152   O     0.16667   0.56011   0.12709   0.00000  Uiso   1.00
O153   O     0.16666   0.43988   0.12706   0.00000  Uiso   1.00
O154   O     0.16667   0.56012   0.20628   0.00000  Uiso   1.00
O155   O     0.09161   0.50000   0.19712   0.00000  Uiso   1.00
O156   O     0.24172   0.50000   0.13621   0.00000  Uiso   1.00
O157   O     0.09161   0.49999   0.11793   0.00000  Uiso   1.00
O158   O     0.24172   0.50001   0.21540   0.00000  Uiso   1.00
O159   O     0.10003   0.62732   0.09569   0.00000  Uiso   1.00
H160   H     0.08935   0.59982   0.10662   0.00000  Uiso   1.00
O161   O     0.23330   0.37268   0.23765   0.00000  Uiso   1.00
H162   H     0.24398   0.40018   0.22671   0.00000  Uiso   1.00
O163   O     0.10162   0.44859   0.04392   0.00000  Uiso   1.00
H164   H     0.07804   0.43239   0.02093   0.00000  Uiso   1.00
O165   O     0.23171   0.55141   0.28941   0.00000  Uiso   1.00
H166   H     0.25530   0.56761   0.31240   0.00000  Uiso   1.00
Cl167  Cl    0.09203   0.43961   0.27010   0.00000  Uiso   1.00
Cl168  Cl    0.24130   0.56039   0.06323   0.00000  Uiso   1.00
C169   C     0.50133   0.42086   0.16688   0.00000  Uiso   1.00
C170   C     0.49867   0.57914   0.16645   0.00000  Uiso   1.00
C171   C     0.40135   0.49993   0.15467   0.00000  Uiso   1.00
C172   C     0.59865   0.50007   0.17866   0.00000  Uiso   1.00
C173   C     0.34609   0.49982   0.14808   0.00000  Uiso   1.00
C174   C     0.65391   0.50018   0.18526   0.00000  Uiso   1.00
C175   C     0.47123   0.35528   0.13082   0.00000  Uiso   1.00
C176   C     0.52877   0.64472   0.20251   0.00000  Uiso   1.00
C177   C     0.46756   0.64586   0.13055   0.00000  Uiso   1.00
C178   C     0.53244   0.35414   0.20278   0.00000  Uiso   1.00
C179   C     0.49752   0.62376   0.16645   0.00000  Uiso   1.00
C180   C     0.50248   0.37624   0.16689   0.00000  Uiso   1.00
C181   C     0.46721   0.47411   0.02170   0.00000  Uiso   1.00
C182   C     0.53279   0.52589   0.31163   0.00000  Uiso   1.00
C183   C     0.46729   0.47401   0.30506   0.00000  Uiso   1.00
C184   C     0.53271   0.52599   0.02827   0.00000  Uiso   1.00
Cu185  Cu    0.50000   0.50001   0.21355   0.00000  Uiso   1.00
Cu186  Cu    0.50000   0.49999   0.11978   0.00000  Uiso   1.00
H187   H     0.65964   0.49940   0.11235   0.00000  Uiso   1.00
H188   H     0.34036   0.50060   0.22099   0.00000  Uiso   1.00
H189   H     0.44781   0.37230   0.10363   0.00000  Uiso   1.00
H190   H     0.55219   0.62770   0.22971   0.00000  Uiso   1.00
N191   N     0.50001   0.50001   0.28403   0.00000  Uiso   1.00
N192   N     0.49999   0.49999   0.04931   0.00000  Uiso   1.00
O193   O     0.50000   0.43989   0.20625   0.00000  Uiso   1.00
O194   O     0.50000   0.56011   0.12709   0.00000  Uiso   1.00
O195   O     0.50000   0.43988   0.12706   0.00000  Uiso   1.00
O196   O     0.50000   0.56012   0.20628   0.00000  Uiso   1.00
O197   O     0.42495   0.50000   0.19712   0.00000  Uiso   1.00
O198   O     0.57505   0.50000   0.13621   0.00000  Uiso   1.00
O199   O     0.42494   0.49999   0.11793   0.00000  Uiso   1.00
O200   O     0.57506   0.50001   0.21540   0.00000  Uiso   1.00
O201   O     0.43337   0.62732   0.09569   0.00000  Uiso   1.00
H202   H     0.42269   0.59982   0.10662   0.00000  Uiso   1.00
O203   O     0.56663   0.37268   0.23765   0.00000  Uiso   1.00
H204   H     0.57731   0.40018   0.22671   0.00000  Uiso   1.00
O205   O     0.43495   0.44859   0.04392   0.00000  Uiso   1.00
H206   H     0.41137   0.43239   0.02093   0.00000  Uiso   1.00
O207   O     0.56505   0.55141   0.28941   0.00000  Uiso   1.00
H208   H     0.58863   0.56761   0.31240   0.00000  Uiso   1.00
Cl209  Cl    0.42536   0.43961   0.27010   0.00000  Uiso   1.00
Cl210  Cl    0.57464   0.56039   0.06323   0.00000  Uiso   1.00
C211   C     0.83466   0.42086   0.16688   0.00000  Uiso   1.00
C212   C     0.83201   0.57914   0.16645   0.00000  Uiso   1.00
C213   C     0.73468   0.49993   0.15467   0.00000  Uiso   1.00
C214   C     0.93198   0.50007   0.17866   0.00000  Uiso   1.00
C215   C     0.67942   0.49982   0.14808   0.00000  Uiso   1.00
C216   C     0.98725   0.50018   0.18526   0.00000  Uiso   1.00
C217   C     0.80457   0.35528   0.13082   0.00000  Uiso   1.00
C218   C     0.86210   0.64472   0.20251   0.00000  Uiso   1.00
C219   C     0.80089   0.64586   0.13055   0.00000  Uiso   1.00
C220   C     0.86578   0.35414   0.20278   0.00000  Uiso   1.00
C221   C     0.83085   0.62376   0.16645   0.00000  Uiso   1.00
C222   C     0.83582   0.37624   0.16689   0.00000  Uiso   1.00
C223   C     0.80054   0.47411   0.02170   0.00000  Uiso   1.00
C224   C     0.86613   0.52589   0.31163   0.00000  Uiso   1.00
C225   C     0.80062   0.47401   0.30506   0.00000  Uiso   1.00
C226   C     0.86605   0.52599   0.02827   0.00000  Uiso   1.00
Cu227  Cu    0.83333   0.50001   0.21355   0.00000  Uiso   1.00
Cu228  Cu    0.83333   0.49999   0.11978   0.00000  Uiso   1.00
H229   H     0.99297   0.49940   0.11235   0.00000  Uiso   1.00
H230   H     0.67369   0.50060   0.22099   0.00000  Uiso   1.00
H231   H     0.78115   0.37230   0.10363   0.00000  Uiso   1.00
H232   H     0.88552   0.62770   0.22971   0.00000  Uiso   1.00
N233   N     0.83335   0.50001   0.28403   0.00000  Uiso   1.00
N234   N     0.83332   0.49999   0.04931   0.00000  Uiso   1.00
O235   O     0.83333   0.43989   0.20625   0.00000  Uiso   1.00
O236   O     0.83334   0.56011   0.12709   0.00000  Uiso   1.00
O237   O     0.83333   0.43988   0.12706   0.00000  Uiso   1.00
O238   O     0.83334   0.56012   0.20628   0.00000  Uiso   1.00
O239   O     0.75828   0.50000   0.19712   0.00000  Uiso   1.00
O240   O     0.90839   0.50000   0.13621   0.00000  Uiso   1.00
O241   O     0.75828   0.49999   0.11793   0.00000  Uiso   1.00
O242   O     0.90839   0.50001   0.21540   0.00000  Uiso   1.00
O243   O     0.76670   0.62732   0.09569   0.00000  Uiso   1.00
H244   H     0.75602   0.59982   0.10662   0.00000  Uiso   1.00
O245   O     0.89997   0.37268   0.23765   0.00000  Uiso   1.00
H246   H     0.91065   0.40018   0.22671   0.00000  Uiso   1.00
O247   O     0.76829   0.44859   0.04392   0.00000  Uiso   1.00
H248   H     0.74470   0.43239   0.02093   0.00000  Uiso   1.00
O249   O     0.89838   0.55141   0.28941   0.00000  Uiso   1.00
H250   H     0.92196   0.56761   0.31240   0.00000  Uiso   1.00
Cl251  Cl    0.75870   0.43961   0.27010   0.00000  Uiso   1.00
Cl252  Cl    0.90797   0.56039   0.06323   0.00000  Uiso   1.00
C253   C     0.16799   0.75420   0.16688   0.00000  Uiso   1.00
C254   C     0.16534   0.91247   0.16645   0.00000  Uiso   1.00
C255   C     0.06802   0.83326   0.15467   0.00000  Uiso   1.00
C256   C     0.26532   0.83341   0.17866   0.00000  Uiso   1.00
C257   C     0.01275   0.83315   0.14808   0.00000  Uiso   1.00
C258   C     0.32058   0.83351   0.18526   0.00000  Uiso   1.00
C259   C     0.13790   0.68861   0.13082   0.00000  Uiso   1.00
C260   C     0.19543   0.97805   0.20251   0.00000  Uiso   1.00
C261   C     0.13422   0.97919   0.13055   0.00000  Uiso   1.00
C262   C     0.19911   0.68748   0.20278   0.00000  Uiso   1.00
C263   C     0.16418   0.95710   0.16645   0.00000  Uiso   1.00
C264   C     0.16915   0.70957   0.16689   0.00000  Uiso   1.00
C265   C     0.13387   0.80744   0.02170   0.00000  Uiso   1.00
C266   C     0.19946   0.85923   0.31163   0.00000  Uiso   1.00
C267   C     0.13395   0.80734   0.30506   0.00000  Uiso   1.00
C268   C     0.19938   0.85933   0.02827   0.00000  Uiso   1.00
Cu269  Cu    0.16667   0.83334   0.21355   0.00000  Uiso   1.00
Cu270  Cu    0.16667   0.83333   0.11978   0.00000  Uiso   1.00
H271   H     0.32631   0.83273   0.11235   0.00000  Uiso   1.00
H272   H     0.00703   0.83394   0.22099   0.00000  Uiso   1.00
H273   H     0.11448   0.70563   0.10363   0.00000  Uiso   1.00
H274   H     0.21885   0.96104   0.22971   0.00000  Uiso   1.00
N275   N     0.16668   0.83334   0.28403   0.00000  Uiso   1.00
N276   N     0.16665   0.83332   0.04931   0.00000  Uiso   1.00
O277   O     0.16666   0.77322   0.20625   0.00000  Uiso   1.00
O278   O     0.16667   0.89345   0.12709   0.00000  Uiso   1.00
O279   O     0.16666   0.77321   0.12706   0.00000  Uiso   1.00
O280   O     0.16667   0.89346   0.20628   0.00000  Uiso   1.00
O281   O     0.09161   0.83334   0.19712   0.00000  Uiso   1.00
O282   O     0.24172   0.83333   0.13621   0.00000  Uiso   1.00
O283   O     0.09161   0.83333   0.11793   0.00000  Uiso   1.00
O284   O     0.24172   0.83334   0.21540   0.00000  Uiso   1.00
O285   O     0.10003   0.96066   0.09569   0.00000  Uiso   1.00
H286   H     0.08935   0.93315   0.10662   0.00000  Uiso   1.00
O287   O     0.23330   0.70601   0.23765   0.00000  Uiso   1.00
H288   H     0.24398   0.73352   0.22671   0.00000  Uiso   1.00
O289   O     0.10162   0.78192   0.04392   0.00000  Uiso   1.00
H290   H     0.07804   0.76572   0.02093   0.00000  Uiso   1.00
O291   O     0.23171   0.88475   0.28941   0.00000  Uiso   1.00
H292   H     0.25530   0.90094   0.31240   0.00000  Uiso   1.00
Cl293  Cl    0.09203   0.77295   0.27010   0.00000  Uiso   1.00
Cl294  Cl    0.24130   0.89372   0.06323   0.00000  Uiso   1.00
C295   C     0.50133   0.75420   0.16688   0.00000  Uiso   1.00
C296   C     0.49867   0.91247   0.16645   0.00000  Uiso   1.00
C297   C     0.40135   0.83326   0.15467   0.00000  Uiso   1.00
C298   C     0.59865   0.83341   0.17866   0.00000  Uiso   1.00
C299   C     0.34609   0.83315   0.14808   0.00000  Uiso   1.00
C300   C     0.65391   0.83351   0.18526   0.00000  Uiso   1.00
C301   C     0.47123   0.68861   0.13082   0.00000  Uiso   1.00
C302   C     0.52877   0.97805   0.20251   0.00000  Uiso   1.00
C303   C     0.46756   0.97919   0.13055   0.00000  Uiso   1.00
C304   C     0.53244   0.68748   0.20278   0.00000  Uiso   1.00
C305   C     0.49752   0.95710   0.16645   0.00000  Uiso   1.00
C306   C     0.50248   0.70957   0.16689   0.00000  Uiso   1.00
C307   C     0.46721   0.80744   0.02170   0.00000  Uiso   1.00
C308   C     0.53279   0.85923   0.31163   0.00000  Uiso   1.00
C309   C     0.46729   0.80734   0.30506   0.00000  Uiso   1.00
C310   C     0.53271   0.85933   0.02827   0.00000  Uiso   1.00
Cu311  Cu    0.50000   0.83334   0.21355   0.00000  Uiso   1.00
Cu312  Cu    0.50000   0.83333   0.11978   0.00000  Uiso   1.00
H313   H     0.65964   0.83273   0.11235   0.00000  Uiso   1.00
H314   H     0.34036   0.83394   0.22099   0.00000  Uiso   1.00
H315   H     0.44781   0.70563   0.10363   0.00000  Uiso   1.00
H316   H     0.55219   0.96104   0.22971   0.00000  Uiso   1.00
N317   N     0.50001   0.83334   0.28403   0.00000  Uiso   1.00
N318   N     0.49999   0.83332   0.04931   0.00000  Uiso   1.00
O319   O     0.50000   0.77322   0.20625   0.00000  Uiso   1.00
O320   O     0.50000   0.89345   0.12709   0.00000  Uiso   1.00
O321   O     0.50000   0.77321   0.12706   0.00000  Uiso   1.00
O322   O     0.50000   0.89346   0.20628   0.00000  Uiso   1.00
O323   O     0.42495   0.83334   0.19712   0.00000  Uiso   1.00
O324   O     0.57505   0.83333   0.13621   0.00000  Uiso   1.00
O325   O     0.42494   0.83333   0.11793   0.00000  Uiso   1.00
O326   O     0.57506   0.83334   0.21540   0.00000  Uiso   1.00
O327   O     0.43337   0.96066   0.09569   0.00000  Uiso   1.00
H328   H     0.42269   0.93315   0.10662   0.00000  Uiso   1.00
O329   O     0.56663   0.70601   0.23765   0.00000  Uiso   1.00
H330   H     0.57731   0.73352   0.22671   0.00000  Uiso   1.00
O331   O     0.43495   0.78192   0.04392   0.00000  Uiso   1.00
H332   H     0.41137   0.76572   0.02093   0.00000  Uiso   1.00
O333   O     0.56505   0.88475   0.28941   0.00000  Uiso   1.00
H334   H     0.58863   0.90094   0.31240   0.00000  Uiso   1.00
Cl335  Cl    0.42536   0.77295   0.27010   0.00000  Uiso   1.00
Cl336  Cl    0.57464   0.89372   0.06323   0.00000  Uiso   1.00
C337   C     0.83466   0.75420   0.16688   0.00000  Uiso   1.00
C338   C     0.83201   0.91247   0.16645   0.00000  Uiso   1.00
C339   C     0.73468   0.83326   0.15467   0.00000  Uiso   1.00
C340   C     0.93198   0.83341   0.17866   0.00000  Uiso   1.00
C341   C     0.67942   0.83315   0.14808   0.00000  Uiso   1.00
C342   C     0.98725   0.83351   0.18526   0.00000  Uiso   1.00
C343   C     0.80457   0.68861   0.13082   0.00000  Uiso   1.00
C344   C     0.86210   0.97805   0.20251   0.00000  Uiso   1.00
C345   C     0.80089   0.97919   0.13055   0.00000  Uiso   1.00
C346   C     0.86578   0.68748   0.20278   0.00000  Uiso   1.00
C347   C     0.83085   0.95710   0.16645   0.00000  Uiso   1.00
C348   C     0.83582   0.70957   0.16689   0.00000  Uiso   1.00
C349   C     0.80054   0.80744   0.02170   0.00000  Uiso   1.00
C350   C     0.86613   0.85923   0.31163   0.00000  Uiso   1.00
C351   C     0.80062   0.80734   0.30506   0.00000  Uiso   1.00
C352   C     0.86605   0.85933   0.02827   0.00000  Uiso   1.00
Cu353  Cu    0.83333   0.83334   0.21355   0.00000  Uiso   1.00
Cu354  Cu    0.83333   0.83333   0.11978   0.00000  Uiso   1.00
H355   H     0.99297   0.83273   0.11235   0.00000  Uiso   1.00
H356   H     0.67369   0.83394   0.22099   0.00000  Uiso   1.00
H357   H     0.78115   0.70563   0.10363   0.00000  Uiso   1.00
H358   H     0.88552   0.96104   0.22971   0.00000  Uiso   1.00
N359   N     0.83335   0.83334   0.28403   0.00000  Uiso   1.00
N360   N     0.83332   0.83332   0.04931   0.00000  Uiso   1.00
O361   O     0.83333   0.77322   0.20625   0.00000  Uiso   1.00
O362   O     0.83334   0.89345   0.12709   0.00000  Uiso   1.00
O363   O     0.83333   0.77321   0.12706   0.00000  Uiso   1.00
O364   O     0.83334   0.89346   0.20628   0.00000  Uiso   1.00
O365   O     0.75828   0.83334   0.19712   0.00000  Uiso   1.00
O366   O     0.90839   0.83333   0.13621   0.00000  Uiso   1.00
O367   O     0.75828   0.83333   0.11793   0.00000  Uiso   1.00
O368   O     0.90839   0.83334   0.21540   0.00000  Uiso   1.00
O369   O     0.76670   0.96066   0.09569   0.00000  Uiso   1.00
H370   H     0.75602   0.93315   0.10662   0.00000  Uiso   1.00
O371   O     0.89997   0.70601   0.23765   0.00000  Uiso   1.00
H372   H     0.91065   0.73352   0.22671   0.00000  Uiso   1.00
O373   O     0.76829   0.78192   0.04392   0.00000  Uiso   1.00
H374   H     0.74470   0.76572   0.02093   0.00000  Uiso   1.00
O375   O     0.89838   0.88475   0.28941   0.00000  Uiso   1.00
H376   H     0.92196   0.90094   0.31240   0.00000  Uiso   1.00
Cl377  Cl    0.75870   0.77295   0.27010   0.00000  Uiso   1.00
Cl378  Cl    0.90797   0.89372   0.06323   0.00000  Uiso   1.00
C379   C     0.16799   0.08753   0.50021   0.00000  Uiso   1.00
C380   C     0.16534   0.24580   0.49979   0.00000  Uiso   1.00
C381   C     0.06802   0.16659   0.48800   0.00000  Uiso   1.00
C382   C     0.26532   0.16674   0.51200   0.00000  Uiso   1.00
C383   C     0.01275   0.16649   0.48141   0.00000  Uiso   1.00
C384   C     0.32058   0.16685   0.51859   0.00000  Uiso   1.00
C385   C     0.13790   0.02195   0.46415   0.00000  Uiso   1.00
C386   C     0.19543   0.31139   0.53585   0.00000  Uiso   1.00
C387   C     0.13422   0.31252   0.46389   0.00000  Uiso   1.00
C388   C     0.19911   0.02081   0.53611   0.00000  Uiso   1.00
C389   C     0.16418   0.29043   0.49978   0.00000  Uiso   1.00
C390   C     0.16915   0.04290   0.50022   0.00000  Uiso   1.00
C391   C     0.13387   0.14077   0.35503   0.00000  Uiso   1.00
C392   C     0.19946   0.19256   0.64497   0.00000  Uiso   1.00
C393   C     0.13395   0.14067   0.63839   0.00000  Uiso   1.00
C394   C     0.19938   0.19266   0.36161   0.00000  Uiso   1.00
Cu395  Cu    0.16667   0.16667   0.54689   0.00000  Uiso   1.00
Cu396  Cu    0.16667   0.16666   0.45311   0.00000  Uiso   1.00
H397   H     0.32631   0.16606   0.44568   0.00000  Uiso   1.00
H398   H     0.00703   0.16727   0.55432   0.00000  Uiso   1.00
H399   H     0.11448   0.03896   0.43696   0.00000  Uiso   1.00
H400   H     0.21885   0.29437   0.56304   0.00000  Uiso   1.00
N401   N     0.16668   0.16668   0.61736   0.00000  Uiso   1.00
N402   N     0.16665   0.16666   0.38264   0.00000  Uiso   1.00
O403   O     0.16666   0.10655   0.53958   0.00000  Uiso   1.00
O404   O     0.16667   0.22678   0.46042   0.00000  Uiso   1.00
O405   O     0.16666   0.10654   0.46039   0.00000  Uiso   1.00
O406   O     0.16667   0.22679   0.53961   0.00000  Uiso   1.00
O407   O     0.09161   0.16667   0.53046   0.00000  Uiso   1.00
O408   O     0.24172   0.16666   0.46954   0.00000  Uiso   1.00
O409   O     0.09161   0.16666   0.45127   0.00000  Uiso   1.00
O410   O     0.24172   0.16667   0.54873   0.00000  Uiso   1.00
O411   O     0.10003   0.29399   0.42902   0.00000  Uiso   1.00
H412   H     0.08935   0.26648   0.43996   0.00000  Uiso   1.00
O413   O     0.23330   0.03934   0.57098   0.00000  Uiso   1.00
H414   H     0.24398   0.06685   0.56004   0.00000  Uiso   1.00
O415   O     0.10162   0.11525   0.37725   0.00000  Uiso   1.00
H416   H     0.07804   0.09906   0.35426   0.00000  Uiso   1.00
O417   O     0.23171   0.21808   0.62275   0.00000  Uiso   1.00
H418   H     0.25530   0.23428   0.64574   0.00000  Uiso   1.00
Cl419  Cl    0.09203   0.10628   0.60343   0.00000  Uiso   1.00
Cl420  Cl    0.24130   0.22705   0.39657   0.00000  Uiso   1.00
C421   C     0.50133   0.08753   0.50021   0.00000  Uiso   1.00
C422   C     0.49867   0.24580   0.49979   0.00000  Uiso   1.00
C423   C     0.40135   0.16659   0.48800   0.00000  Uiso   1.00
C424   C     0.59865   0.16674   0.51200   0.00000  Uiso   1.00
C425   C     0.34609   0.16649   0.48141   0.00000  Uiso   1.00
C426   C     0.65391   0.16685   0.51859   0.00000  Uiso   1.00
C427   C     0.47123   0.02195   0.46415   0.00000  Uiso   1.00
C428   C     0.52877   0.31139   0.53585   0.00000  Uiso   1.00
C429   C     0.46756   0.31252   0.46389   0.00000  Uiso   1.00
C430   C     0.53244   0.02081   0.53611   0.00000  Uiso   1.00
C431   C     0.49752   0.29043   0.49978   0.00000  Uiso   1.00
C432   C     0.50248   0.04290   0.50022   0.00000  Uiso   1.00
C433   C     0.46721   0.14077   0.35503   0.00000  Uiso   1.00
C434   C     0.53279   0.19256   0.64497   0.00000  Uiso   1.00
C435   C     0.46729   0.14067   0.63839   0.00000  Uiso   1.00
C436   C     0.53271   0.19266   0.36161   0.00000  Uiso   1.00
Cu437  Cu    0.50000   0.16667   0.54689   0.00000  Uiso   1.00
Cu438  Cu    0.50000   0.16666   0.45311   0.00000  Uiso   1.00
H439   H     0.65964   0.16606   0.44568   0.00000  Uiso   1.00
H440   H     0.34036   0.16727   0.55432   0.00000  Uiso   1.00
H441   H     0.44781   0.03896   0.43696   0.00000  Uiso   1.00
H442   H     0.55219   0.29437   0.56304   0.00000  Uiso   1.00
N443   N     0.50001   0.16668   0.61736   0.00000  Uiso   1.00
N444   N     0.49999   0.16666   0.38264   0.00000  Uiso   1.00
O445   O     0.50000   0.10655   0.53958   0.00000  Uiso   1.00
O446   O     0.50000   0.22678   0.46042   0.00000  Uiso   1.00
O447   O     0.50000   0.10654   0.46039   0.00000  Uiso   1.00
O448   O     0.50000   0.22679   0.53961   0.00000  Uiso   1.00
O449   O     0.42495   0.16667   0.53046   0.00000  Uiso   1.00
O450   O     0.57505   0.16666   0.46954   0.00000  Uiso   1.00
O451   O     0.42494   0.16666   0.45127   0.00000  Uiso   1.00
O452   O     0.57506   0.16667   0.54873   0.00000  Uiso   1.00
O453   O     0.43337   0.29399   0.42902   0.00000  Uiso   1.00
H454   H     0.42269   0.26648   0.43996   0.00000  Uiso   1.00
O455   O     0.56663   0.03934   0.57098   0.00000  Uiso   1.00
H456   H     0.57731   0.06685   0.56004   0.00000  Uiso   1.00
O457   O     0.43495   0.11525   0.37725   0.00000  Uiso   1.00
H458   H     0.41137   0.09906   0.35426   0.00000  Uiso   1.00
O459   O     0.56505   0.21808   0.62275   0.00000  Uiso   1.00
H460   H     0.58863   0.23428   0.64574   0.00000  Uiso   1.00
Cl461  Cl    0.42536   0.10628   0.60343   0.00000  Uiso   1.00
Cl462  Cl    0.57464   0.22705   0.39657   0.00000  Uiso   1.00
C463   C     0.83466   0.08753   0.50021   0.00000  Uiso   1.00
C464   C     0.83201   0.24580   0.49979   0.00000  Uiso   1.00
C465   C     0.73468   0.16659   0.48800   0.00000  Uiso   1.00
C466   C     0.93198   0.16674   0.51200   0.00000  Uiso   1.00
C467   C     0.67942   0.16649   0.48141   0.00000  Uiso   1.00
C468   C     0.98725   0.16685   0.51859   0.00000  Uiso   1.00
C469   C     0.80457   0.02195   0.46415   0.00000  Uiso   1.00
C470   C     0.86210   0.31139   0.53585   0.00000  Uiso   1.00
C471   C     0.80089   0.31252   0.46389   0.00000  Uiso   1.00
C472   C     0.86578   0.02081   0.53611   0.00000  Uiso   1.00
C473   C     0.83085   0.29043   0.49978   0.00000  Uiso   1.00
C474   C     0.83582   0.04290   0.50022   0.00000  Uiso   1.00
C475   C     0.80054   0.14077   0.35503   0.00000  Uiso   1.00
C476   C     0.86613   0.19256   0.64497   0.00000  Uiso   1.00
C477   C     0.80062   0.14067   0.63839   0.00000  Uiso   1.00
C478   C     0.86605   0.19266   0.36161   0.00000  Uiso   1.00
Cu479  Cu    0.83333   0.16667   0.54689   0.00000  Uiso   1.00
Cu480  Cu    0.83333   0.16666   0.45311   0.00000  Uiso   1.00
H481   H     0.99297   0.16606   0.44568   0.00000  Uiso   1.00
H482   H     0.67369   0.16727   0.55432   0.00000  Uiso   1.00
H483   H     0.78115   0.03896   0.43696   0.00000  Uiso   1.00
H484   H     0.88552   0.29437   0.56304   0.00000  Uiso   1.00
N485   N     0.83335   0.16668   0.61736   0.00000  Uiso   1.00
N486   N     0.83332   0.16666   0.38264   0.00000  Uiso   1.00
O487   O     0.83333   0.10655   0.53958   0.00000  Uiso   1.00
O488   O     0.83334   0.22678   0.46042   0.00000  Uiso   1.00
O489   O     0.83333   0.10654   0.46039   0.00000  Uiso   1.00
O490   O     0.83334   0.22679   0.53961   0.00000  Uiso   1.00
O491   O     0.75828   0.16667   0.53046   0.00000  Uiso   1.00
O492   O     0.90839   0.16666   0.46954   0.00000  Uiso   1.00
O493   O     0.75828   0.16666   0.45127   0.00000  Uiso   1.00
O494   O     0.90839   0.16667   0.54873   0.00000  Uiso   1.00
O495   O     0.76670   0.29399   0.42902   0.00000  Uiso   1.00
H496   H     0.75602   0.26648   0.43996   0.00000  Uiso   1.00
O497   O     0.89997   0.03934   0.57098   0.00000  Uiso   1.00
H498   H     0.91065   0.06685   0.56004   0.00000  Uiso   1.00
O499   O     0.76829   0.11525   0.37725   0.00000  Uiso   1.00
H500   H     0.74470   0.09906   0.35426   0.00000  Uiso   1.00
O501   O     0.89838   0.21808   0.62275   0.00000  Uiso   1.00
H502   H     0.92196   0.23428   0.64574   0.00000  Uiso   1.00
Cl503  Cl    0.75870   0.10628   0.60343   0.00000  Uiso   1.00
Cl504  Cl    0.90797   0.22705   0.39657   0.00000  Uiso   1.00
C505   C     0.16799   0.42086   0.50021   0.00000  Uiso   1.00
C506   C     0.16534   0.57914   0.49979   0.00000  Uiso   1.00
C507   C     0.06802   0.49993   0.48800   0.00000  Uiso   1.00
C508   C     0.26532   0.50007   0.51200   0.00000  Uiso   1.00
C509   C     0.01275   0.49982   0.48141   0.00000  Uiso   1.00
C510   C     0.32058   0.50018   0.51859   0.00000  Uiso   1.00
C511   C     0.13790   0.35528   0.46415   0.00000  Uiso   1.00
C512   C     0.19543   0.64472   0.53585   0.00000  Uiso   1.00
C513   C     0.13422   0.64586   0.46389   0.00000  Uiso   1.00
C514   C     0.19911   0.35414   0.53611   0.00000  Uiso   1.00
C515   C     0.16418   0.62376   0.49978   0.00000  Uiso   1.00
C516   C     0.16915   0.37624   0.50022   0.00000  Uiso   1.00
C517   C     0.13387   0.47411   0.35503   0.00000  Uiso   1.00
C518   C     0.19946   0.52589   0.64497   0.00000  Uiso   1.00
C519   C     0.13395   0.47401   0.63839   0.00000  Uiso   1.00
C520   C     0.19938   0.52599   0.36161   0.00000  Uiso   1.00
Cu521  Cu    0.16667   0.50001   0.54689   0.00000  Uiso   1.00
Cu522  Cu    0.16667   0.49999   0.45311   0.00000  Uiso   1.00
H523   H     0.32631   0.49940   0.44568   0.00000  Uiso   1.00
H524   H     0.00703   0.50060   0.55432   0.00000  Uiso   1.00
H525   H     0.11448   0.37230   0.43696   0.00000  Uiso   1.00
H526   H     0.21885   0.62770   0.56304   0.00000  Uiso   1.00
N527   N     0.16668   0.50001   0.61736   0.00000  Uiso   1.00
N528   N     0.16665   0.49999   0.38264   0.00000  Uiso   1.00
O529   O     0.16666   0.43989   0.53958   0.00000  Uiso   1.00
O530   O     0.16667   0.56011   0.46042   0.00000  Uiso   1.00
O531   O     0.16666   0.43988   0.46039   0.00000  Uiso   1.00
O532   O     0.16667   0.56012   0.53961   0.00000  Uiso   1.00
O533   O     0.09161   0.50000   0.53046   0.00000  Uiso   1.00
O534   O     0.24172   0.50000   0.46954   0.00000  Uiso   1.00
O535   O     0.09161   0.49999   0.45127   0.00000  Uiso   1.00
O536   O     0.24172   0.50001   0.54873   0.00000  Uiso   1.00
O537   O     0.10003   0.62732   0.42902   0.00000  Uiso   1.00
H538   H     0.08935   0.59982   0.43996   0.00000  Uiso   1.00
O539   O     0.23330   0.37268   0.57098   0.00000  Uiso   1.00
H540   H     0.24398   0.40018   0.56004   0.00000  Uiso   1.00
O541   O     0.10162   0.44859   0.37725   0.00000  Uiso   1.00
H542   H     0.07804   0.43239   0.35426   0.00000  Uiso   1.00
O543   O     0.23171   0.55141   0.62275   0.00000  Uiso   1.00
H544   H     0.25530   0.56761   0.64574   0.00000  Uiso   1.00
Cl545  Cl    0.09203   0.43961   0.60343   0.00000  Uiso   1.00
Cl546  Cl    0.24130   0.56039   0.39657   0.00000  Uiso   1.00
C547   C     0.50133   0.42086   0.50021   0.00000  Uiso   1.00
C548   C     0.49867   0.57914   0.49979   0.00000  Uiso   1.00
C549   C     0.40135   0.49993   0.48800   0.00000  Uiso   1.00
C550   C     0.59865   0.50007   0.51200   0.00000  Uiso   1.00
C551   C     0.34609   0.49982   0.48141   0.00000  Uiso   1.00
C552   C     0.65391   0.50018   0.51859   0.00000  Uiso   1.00
C553   C     0.47123   0.35528   0.46415   0.00000  Uiso   1.00
C554   C     0.52877   0.64472   0.53585   0.00000  Uiso   1.00
C555   C     0.46756   0.64586   0.46389   0.00000  Uiso   1.00
C556   C     0.53244   0.35414   0.53611   0.00000  Uiso   1.00
C557   C     0.49752   0.62376   0.49978   0.00000  Uiso   1.00
C558   C     0.50248   0.37624   0.50022   0.00000  Uiso   1.00
C559   C     0.46721   0.47411   0.35503   0.00000  Uiso   1.00
C560   C     0.53279   0.52589   0.64497   0.00000  Uiso   1.00
C561   C     0.46729   0.47401   0.63839   0.00000  Uiso   1.00
C562   C     0.53271   0.52599   0.36161   0.00000  Uiso   1.00
Cu563  Cu    0.50000   0.50001   0.54689   0.00000  Uiso   1.00
Cu564  Cu    0.50000   0.49999   0.45311   0.00000  Uiso   1.00
H565   H     0.65964   0.49940   0.44568   0.00000  Uiso   1.00
H566   H     0.34036   0.50060   0.55432   0.00000  Uiso   1.00
H567   H     0.44781   0.37230   0.43696   0.00000  Uiso   1.00
H568   H     0.55219   0.62770   0.56304   0.00000  Uiso   1.00
N569   N     0.50001   0.50001   0.61736   0.00000  Uiso   1.00
N570   N     0.49999   0.49999   0.38264   0.00000  Uiso   1.00
O571   O     0.50000   0.43989   0.53958   0.00000  Uiso   1.00
O572   O     0.50000   0.56011   0.46042   0.00000  Uiso   1.00
O573   O     0.50000   0.43988   0.46039   0.00000  Uiso   1.00
O574   O     0.50000   0.56012   0.53961   0.00000  Uiso   1.00
O575   O     0.42495   0.50000   0.53046   0.00000  Uiso   1.00
O576   O     0.57505   0.50000   0.46954   0.00000  Uiso   1.00
O577   O     0.42494   0.49999   0.45127   0.00000  Uiso   1.00
O578   O     0.57506   0.50001   0.54873   0.00000  Uiso   1.00
O579   O     0.43337   0.62732   0.42902   0.00000  Uiso   1.00
H580   H     0.42269   0.59982   0.43996   0.00000  Uiso   1.00
O581   O     0.56663   0.37268   0.57098   0.00000  Uiso   1.00
H582   H     0.57731   0.40018   0.56004   0.00000  Uiso   1.00
O583   O     0.43495   0.44859   0.37725   0.00000  Uiso   1.00
H584   H     0.41137   0.43239   0.35426   0.00000  Uiso   1.00
O585   O     0.56505   0.55141   0.62275   0.00000  Uiso   1.00
H586   H     0.58863   0.56761   0.64574   0.00000  Uiso   1.00
Cl587  Cl    0.42536   0.43961   0.60343   0.00000  Uiso   1.00
Cl588  Cl    0.57464   0.56039   0.39657   0.00000  Uiso   1.00
C589   C     0.83466   0.42086   0.50021   0.00000  Uiso   1.00
C590   C     0.83201   0.57914   0.49979   0.00000  Uiso   1.00
C591   C     0.73468   0.49993   0.48800   0.00000  Uiso   1.00
C592   C     0.93198   0.50007   0.51200   0.00000  Uiso   1.00
C593   C     0.67942   0.49982   0.48141   0.00000  Uiso   1.00
C594   C     0.98725   0.50018   0.51859   0.00000  Uiso   1.00
C595   C     0.80457   0.35528   0.46415   0.00000  Uiso   1.00
C596   C     0.86210   0.64472   0.53585   0.00000  Uiso   1.00
C597   C     0.80089   0.64586   0.46389   0.00000  Uiso   1.00
C598   C     0.86578   0.35414   0.53611   0.00000  Uiso   1.00
C599   C     0.83085   0.62376   0.49978   0.00000  Uiso   1.00
C600   C     0.83582   0.37624   0.50022   0.00000  Uiso   1.00
C601   C     0.80054   0.47411   0.35503   0.00000  Uiso   1.00
C602   C     0.86613   0.52589   0.64497   0.00000  Uiso   1.00
C603   C     0.80062   0.47401   0.63839   0.00000  Uiso   1.00
C604   C     0.86605   0.52599   0.36161   0.00000  Uiso   1.00
Cu605  Cu    0.83333   0.50001   0.54689   0.00000  Uiso   1.00
Cu606  Cu    0.83333   0.49999   0.45311   0.00000  Uiso   1.00
H607   H     0.99297   0.49940   0.44568   0.00000  Uiso   1.00
H608   H     0.67369   0.50060   0.55432   0.00000  Uiso   1.00
H609   H     0.78115   0.37230   0.43696   0.00000  Uiso   1.00
H610   H     0.88552   0.62770   0.56304   0.00000  Uiso   1.00
N611   N     0.83335   0.50001   0.61736   0.00000  Uiso   1.00
N612   N     0.83332   0.49999   0.38264   0.00000  Uiso   1.00
O613   O     0.83333   0.43989   0.53958   0.00000  Uiso   1.00
O614   O     0.83334   0.56011   0.46042   0.00000  Uiso   1.00
O615   O     0.83333   0.43988   0.46039   0.00000  Uiso   1.00
O616   O     0.83334   0.56012   0.53961   0.00000  Uiso   1.00
O617   O     0.75828   0.50000   0.53046   0.00000  Uiso   1.00
O618   O     0.90839   0.50000   0.46954   0.00000  Uiso   1.00
O619   O     0.75828   0.49999   0.45127   0.00000  Uiso   1.00
O620   O     0.90839   0.50001   0.54873   0.00000  Uiso   1.00
O621   O     0.76670   0.62732   0.42902   0.00000  Uiso   1.00
H622   H     0.75602   0.59982   0.43996   0.00000  Uiso   1.00
O623   O     0.89997   0.37268   0.57098   0.00000  Uiso   1.00
H624   H     0.91065   0.40018   0.56004   0.00000  Uiso   1.00
O625   O     0.76829   0.44859   0.37725   0.00000  Uiso   1.00
H626   H     0.74470   0.43239   0.35426   0.00000  Uiso   1.00
O627   O     0.89838   0.55141   0.62275   0.00000  Uiso   1.00
H628   H     0.92196   0.56761   0.64574   0.00000  Uiso   1.00
Cl629  Cl    0.75870   0.43961   0.60343   0.00000  Uiso   1.00
Cl630  Cl    0.90797   0.56039   0.39657   0.00000  Uiso   1.00
C631   C     0.16799   0.75420   0.50021   0.00000  Uiso   1.00
C632   C     0.16534   0.91247   0.49979   0.00000  Uiso   1.00
C633   C     0.06802   0.83326   0.48800   0.00000  Uiso   1.00
C634   C     0.26532   0.83341   0.51200   0.00000  Uiso   1.00
C635   C     0.01275   0.83315   0.48141   0.00000  Uiso   1.00
C636   C     0.32058   0.83351   0.51859   0.00000  Uiso   1.00
C637   C     0.13790   0.68861   0.46415   0.00000  Uiso   1.00
C638   C     0.19543   0.97805   0.53585   0.00000  Uiso   1.00
C639   C     0.13422   0.97919   0.46389   0.00000  Uiso   1.00
C640   C     0.19911   0.68748   0.53611   0.00000  Uiso   1.00
C641   C     0.16418   0.95710   0.49978   0.00000  Uiso   1.00
C642   C     0.16915   0.70957   0.50022   0.00000  Uiso   1.00
C643   C     0.13387   0.80744   0.35503   0.00000  Uiso   1.00
C644   C     0.19946   0.85923   0.64497   0.00000  Uiso   1.00
C645   C     0.13395   0.80734   0.63839   0.00000  Uiso   1.00
C646   C     0.19938   0.85933   0.36161   0.00000  Uiso   1.00
Cu647  Cu    0.16667   0.83334   0.54689   0.00000  Uiso   1.00
Cu648  Cu    0.16667   0.83333   0.45311   0.00000  Uiso   1.00
H649   H     0.32631   0.83273   0.44568   0.00000  Uiso   1.00
H650   H     0.00703   0.83394   0.55432   0.00000  Uiso   1.00
H651   H     0.11448   0.70563   0.43696   0.00000  Uiso   1.00
H652   H     0.21885   0.96104   0.56304   0.00000  Uiso   1.00
N653   N     0.16668   0.83334   0.61736   0.00000  Uiso   1.00
N654   N     0.16665   0.83332   0.38264   0.00000  Uiso   1.00
O655   O     0.16666   0.77322   0.53958   0.00000  Uiso   1.00
O656   O     0.16667   0.89345   0.46042   0.00000  Uiso   1.00
O657   O     0.16666   0.77321   0.46039   0.00000  Uiso   1.00
O658   O     0.16667   0.89346   0.53961   0.00000  Uiso   1.00
O659   O     0.09161   0.83334   0.53046   0.00000  Uiso   1.00
O660   O     0.24172   0.83333   0.46954   0.00000  Uiso   1.00
O661   O     0.09161   0.83333   0.45127   0.00000  Uiso   1.00
O662   O     0.24172   0.83334   0.54873   0.00000  Uiso   1.00
O663   O     0.10003   0.96066   0.42902   0.00000  Uiso   1.00
H664   H     0.08935   0.93315   0.43996   0.00000  Uiso   1.00
O665   O     0.23330   0.70601   0.57098   0.00000  Uiso   1.00
H666   H     0.24398   0.73352   0.56004   0.00000  Uiso   1.00
O667   O     0.10162   0.78192   0.37725   0.00000  Uiso   1.00
H668   H     0.07804   0.76572   0.35426   0.00000  Uiso   1.00
O669   O     0.23171   0.88475   0.62275   0.00000  Uiso   1.00
H670   H     0.25530   0.90094   0.64574   0.00000  Uiso   1.00
Cl671  Cl    0.09203   0.77295   0.60343   0.00000  Uiso   1.00
Cl672  Cl    0.24130   0.89372   0.39657   0.00000  Uiso   1.00
C673   C     0.50133   0.75420   0.50021   0.00000  Uiso   1.00
C674   C     0.49867   0.91247   0.49979   0.00000  Uiso   1.00
C675   C     0.40135   0.83326   0.48800   0.00000  Uiso   1.00
C676   C     0.59865   0.83341   0.51200   0.00000  Uiso   1.00
C677   C     0.34609   0.83315   0.48141   0.00000  Uiso   1.00
C678   C     0.65391   0.83351   0.51859   0.00000  Uiso   1.00
C679   C     0.47123   0.68861   0.46415   0.00000  Uiso   1.00
C680   C     0.52877   0.97805   0.53585   0.00000  Uiso   1.00
C681   C     0.46756   0.97919   0.46389   0.00000  Uiso   1.00
C682   C     0.53244   0.68748   0.53611   0.00000  Uiso   1.00
C683   C     0.49752   0.95710   0.49978   0.00000  Uiso   1.00
C684   C     0.50248   0.70957   0.50022   0.00000  Uiso   1.00
C685   C     0.46721   0.80744   0.35503   0.00000  Uiso   1.00
C686   C     0.53279   0.85923   0.64497   0.00000  Uiso   1.00
C687   C     0.46729   0.80734   0.63839   0.00000  Uiso   1.00
C688   C     0.53271   0.85933   0.36161   0.00000  Uiso   1.00
Cu689  Cu    0.50000   0.83334   0.54689   0.00000  Uiso   1.00
Cu690  Cu    0.50000   0.83333   0.45311   0.00000  Uiso   1.00
H691   H     0.65964   0.83273   0.44568   0.00000  Uiso   1.00
H692   H     0.34036   0.83394   0.55432   0.00000  Uiso   1.00
H693   H     0.44781   0.70563   0.43696   0.00000  Uiso   1.00
H694   H     0.55219   0.96104   0.56304   0.00000  Uiso   1.00
N695   N     0.50001   0.83334   0.61736   0.00000  Uiso   1.00
N696   N     0.49999   0.83332   0.38264   0.00000  Uiso   1.00
O697   O     0.50000   0.77322   0.53958   0.00000  Uiso   1.00
O698   O     0.50000   0.89345   0.46042   0.00000  Uiso   1.00
O699   O     0.50000   0.77321   0.46039   0.00000  Uiso   1.00
O700   O     0.50000   0.89346   0.53961   0.00000  Uiso   1.00
O701   O     0.42495   0.83334   0.53046   0.00000  Uiso   1.00
O702   O     0.57505   0.83333   0.46954   0.00000  Uiso   1.00
O703   O     0.42494   0.83333   0.45127   0.00000  Uiso   1.00
O704   O     0.57506   0.83334   0.54873   0.00000  Uiso   1.00
O705   O     0.43337   0.96066   0.42902   0.00000  Uiso   1.00
H706   H     0.42269   0.93315   0.43996   0.00000  Uiso   1.00
O707   O     0.56663   0.70601   0.57098   0.00000  Uiso   1.00
H708   H     0.57731   0.73352   0.56004   0.00000  Uiso   1.00
O709   O     0.43495   0.78192   0.37725   0.00000  Uiso   1.00
H710   H     0.41137   0.76572   0.35426   0.00000  Uiso   1.00
O711   O     0.56505   0.88475   0.62275   0.00000  Uiso   1.00
H712   H     0.58863   0.90094   0.64574   0.00000  Uiso   1.00
Cl713  Cl    0.42536   0.77295   0.60343   0.00000  Uiso   1.00
Cl714  Cl    0.57464   0.89372   0.39657   0.00000  Uiso   1.00
C715   C     0.83466   0.75420   0.50021   0.00000  Uiso   1.00
C716   C     0.83201   0.91247   0.49979   0.00000  Uiso   1.00
C717   C     0.73468   0.83326   0.48800   0.00000  Uiso   1.00
C718   C     0.93198   0.83341   0.51200   0.00000  Uiso   1.00
C719   C     0.67942   0.83315   0.48141   0.00000  Uiso   1.00
C720   C     0.98725   0.83351   0.51859   0.00000  Uiso   1.00
C721   C     0.80457   0.68861   0.46415   0.00000  Uiso   1.00
C722   C     0.86210   0.97805   0.53585   0.00000  Uiso   1.00
C723   C     0.80089   0.97919   0.46389   0.00000  Uiso   1.00
C724   C     0.86578   0.68748   0.53611   0.00000  Uiso   1.00
C725   C     0.83085   0.95710   0.49978   0.00000  Uiso   1.00
C726   C     0.83582   0.70957   0.50022   0.00000  Uiso   1.00
C727   C     0.80054   0.80744   0.35503   0.00000  Uiso   1.00
C728   C     0.86613   0.85923   0.64497   0.00000  Uiso   1.00
C729   C     0.80062   0.80734   0.63839   0.00000  Uiso   1.00
C730   C     0.86605   0.85933   0.36161   0.00000  Uiso   1.00
Cu731  Cu    0.83333   0.83334   0.54689   0.00000  Uiso   1.00
Cu732  Cu    0.83333   0.83333   0.45311   0.00000  Uiso   1.00
H733   H     0.99297   0.83273   0.44568   0.00000  Uiso   1.00
H734   H     0.67369   0.83394   0.55432   0.00000  Uiso   1.00
H735   H     0.78115   0.70563   0.43696   0.00000  Uiso   1.00
H736   H     0.88552   0.96104   0.56304   0.00000  Uiso   1.00
N737   N     0.83335   0.83334   0.61736   0.00000  Uiso   1.00
N738   N     0.83332   0.83332   0.38264   0.00000  Uiso   1.00
O739   O     0.83333   0.77322   0.53958   0.00000  Uiso   1.00
O740   O     0.83334   0.89345   0.46042   0.00000  Uiso   1.00
O741   O     0.83333   0.77321   0.46039   0.00000  Uiso   1.00
O742   O     0.83334   0.89346   0.53961   0.00000  Uiso   1.00
O743   O     0.75828   0.83334   0.53046   0.00000  Uiso   1.00
O744   O     0.90839   0.83333   0.46954   0.00000  Uiso   1.00
O745   O     0.75828   0.83333   0.45127   0.00000  Uiso   1.00
O746   O     0.90839   0.83334   0.54873   0.00000  Uiso   1.00
O747   O     0.76670   0.96066   0.42902   0.00000  Uiso   1.00
H748   H     0.75602   0.93315   0.43996   0.00000  Uiso   1.00
O749   O     0.89997   0.70601   0.57098   0.00000  Uiso   1.00
H750   H     0.91065   0.73352   0.56004   0.00000  Uiso   1.00
O751   O     0.76829   0.78192   0.37725   0.00000  Uiso   1.00
H752   H     0.74470   0.76572   0.35426   0.00000  Uiso   1.00
O753   O     0.89838   0.88475   0.62275   0.00000  Uiso   1.00
H754   H     0.92196   0.90094   0.64574   0.00000  Uiso   1.00
Cl755  Cl    0.75870   0.77295   0.60343   0.00000  Uiso   1.00
Cl756  Cl    0.90797   0.89372   0.39657   0.00000  Uiso   1.00
C757   C     0.16799   0.08753   0.83355   0.00000  Uiso   1.00
C758   C     0.16534   0.24580   0.83312   0.00000  Uiso   1.00
C759   C     0.06802   0.16659   0.82134   0.00000  Uiso   1.00
C760   C     0.26532   0.16674   0.84533   0.00000  Uiso   1.00
C761   C     0.01275   0.16649   0.81474   0.00000  Uiso   1.00
C762   C     0.32058   0.16685   0.85192   0.00000  Uiso   1.00
C763   C     0.13790   0.02195   0.79749   0.00000  Uiso   1.00
C764   C     0.19543   0.31139   0.86918   0.00000  Uiso   1.00
C765   C     0.13422   0.31252   0.79722   0.00000  Uiso   1.00
C766   C     0.19911   0.02081   0.86945   0.00000  Uiso   1.00
C767   C     0.16418   0.29043   0.83311   0.00000  Uiso   1.00
C768   C     0.16915   0.04290   0.83355   0.00000  Uiso   1.00
C769   C     0.13387   0.14077   0.68837   0.00000  Uiso   1.00
C770   C     0.19946   0.19256   0.97830   0.00000  Uiso   1.00
C771   C     0.13395   0.14067   0.97173   0.00000  Uiso   1.00
C772   C     0.19938   0.19266   0.69494   0.00000  Uiso   1.00
Cu773  Cu    0.16667   0.16667   0.88022   0.00000  Uiso   1.00
Cu774  Cu    0.16667   0.16666   0.78645   0.00000  Uiso   1.00
H775   H     0.32631   0.16606   0.77901   0.00000  Uiso   1.00
H776   H     0.00703   0.16727   0.88765   0.00000  Uiso   1.00
H777   H     0.11448   0.03896   0.77029   0.00000  Uiso   1.00
H778   H     0.21885   0.29437   0.89637   0.00000  Uiso   1.00
N779   N     0.16668   0.16668   0.95069   0.00000  Uiso   1.00
N780   N     0.16665   0.16666   0.71597   0.00000  Uiso   1.00
O781   O     0.16666   0.10655   0.87291   0.00000  Uiso   1.00
O782   O     0.16667   0.22678   0.79375   0.00000  Uiso   1.00
O783   O     0.16666   0.10654   0.79372   0.00000  Uiso   1.00
O784   O     0.16667   0.22679   0.87294   0.00000  Uiso   1.00
O785   O     0.09161   0.16667   0.86379   0.00000  Uiso   1.00
O786   O     0.24172   0.16666   0.80288   0.00000  Uiso   1.00
O787   O     0.09161   0.16666   0.78460   0.00000  Uiso   1.00
O788   O     0.24172   0.16667   0.88207   0.00000  Uiso   1.00
O789   O     0.10003   0.29399   0.76235   0.00000  Uiso   1.00
H790   H     0.08935   0.26648   0.77329   0.00000  Uiso   1.00
O791   O     0.23330   0.03934   0.90431   0.00000  Uiso   1.00
H792   H     0.24398   0.06685   0.89338   0.00000  Uiso   1.00
O793   O     0.10162   0.11525   0.71059   0.00000  Uiso   1.00
H794   H     0.07804   0.09906   0.68760   0.00000  Uiso   1.00
O795   O     0.23171   0.21808   0.95608   0.00000  Uiso   1.00
H796   H     0.25530   0.23428   0.97907   0.00000  Uiso   1.00
Cl797  Cl    0.09203   0.10628   0.93677   0.00000  Uiso   1.00
Cl798  Cl    0.24130   0.22705   0.72990   0.00000  Uiso   1.00
C799   C     0.50133   0.08753   0.83355   0.00000  Uiso   1.00
C800   C     0.49867   0.24580   0.83312   0.00000  Uiso   1.00
C801   C     0.40135   0.16659   0.82134   0.00000  Uiso   1.00
C802   C     0.59865   0.16674   0.84533   0.00000  Uiso   1.00
C803   C     0.34609   0.16649   0.81474   0.00000  Uiso   1.00
C804   C     0.65391   0.16685   0.85192   0.00000  Uiso   1.00
C805   C     0.47123   0.02195   0.79749   0.00000  Uiso   1.00
C806   C     0.52877   0.31139   0.86918   0.00000  Uiso   1.00
C807   C     0.46756   0.31252   0.79722   0.00000  Uiso   1.00
C808   C     0.53244   0.02081   0.86945   0.00000  Uiso   1.00
C809   C     0.49752   0.29043   0.83311   0.00000  Uiso   1.00
C810   C     0.50248   0.04290   0.83355   0.00000  Uiso   1.00
C811   C     0.46721   0.14077   0.68837   0.00000  Uiso   1.00
C812   C     0.53279   0.19256   0.97830   0.00000  Uiso   1.00
C813   C     0.46729   0.14067   0.97173   0.00000  Uiso   1.00
C814   C     0.53271   0.19266   0.69494   0.00000  Uiso   1.00
Cu815  Cu    0.50000   0.16667   0.88022   0.00000  Uiso   1.00
Cu816  Cu    0.50000   0.16666   0.78645   0.00000  Uiso   1.00
H817   H     0.65964   0.16606   0.77901   0.00000  Uiso   1.00
H818   H     0.34036   0.16727   0.88765   0.00000  Uiso   1.00
H819   H     0.44781   0.03896   0.77029   0.00000  Uiso   1.00
H820   H     0.55219   0.29437   0.89637   0.00000  Uiso   1.00
N821   N     0.50001   0.16668   0.95069   0.00000  Uiso   1.00
N822   N     0.49999   0.16666   0.71597   0.00000  Uiso   1.00
O823   O     0.50000   0.10655   0.87291   0.00000  Uiso   1.00
O824   O     0.50000   0.22678   0.79375   0.00000  Uiso   1.00
O825   O     0.50000   0.10654   0.79372   0.00000  Uiso   1.00
O826   O     0.50000   0.22679   0.87294   0.00000  Uiso   1.00
O827   O     0.42495   0.16667   0.86379   0.00000  Uiso   1.00
O828   O     0.57505   0.16666   0.80288   0.00000  Uiso   1.00
O829   O     0.42494   0.16666   0.78460   0.00000  Uiso   1.00
O830   O     0.57506   0.16667   0.88207   0.00000  Uiso   1.00
O831   O     0.43337   0.29399   0.76235   0.00000  Uiso   1.00
H832   H     0.42269   0.26648   0.77329   0.00000  Uiso   1.00
O833   O     0.56663   0.03934   0.90431   0.00000  Uiso   1.00
H834   H     0.57731   0.06685   0.89338   0.00000  Uiso   1.00
O835   O     0.43495   0.11525   0.71059   0.00000  Uiso   1.00
H836   H     0.41137   0.09906   0.68760   0.00000  Uiso   1.00
O837   O     0.56505   0.21808   0.95608   0.00000  Uiso   1.00
H838   H     0.58863   0.23428   0.97907   0.00000  Uiso   1.00
Cl839  Cl    0.42536   0.10628   0.93677   0.00000  Uiso   1.00
Cl840  Cl    0.57464   0.22705   0.72990   0.00000  Uiso   1.00
C841   C     0.83466   0.08753   0.83355   0.00000  Uiso   1.00
C842   C     0.83201   0.24580   0.83312   0.00000  Uiso   1.00
C843   C     0.73468   0.16659   0.82134   0.00000  Uiso   1.00
C844   C     0.93198   0.16674   0.84533   0.00000  Uiso   1.00
C845   C     0.67942   0.16649   0.81474   0.00000  Uiso   1.00
C846   C     0.98725   0.16685   0.85192   0.00000  Uiso   1.00
C847   C     0.80457   0.02195   0.79749   0.00000  Uiso   1.00
C848   C     0.86210   0.31139   0.86918   0.00000  Uiso   1.00
C849   C     0.80089   0.31252   0.79722   0.00000  Uiso   1.00
C850   C     0.86578   0.02081   0.86945   0.00000  Uiso   1.00
C851   C     0.83085   0.29043   0.83311   0.00000  Uiso   1.00
C852   C     0.83582   0.04290   0.83355   0.00000  Uiso   1.00
C853   C     0.80054   0.14077   0.68837   0.00000  Uiso   1.00
C854   C     0.86613   0.19256   0.97830   0.00000  Uiso   1.00
C855   C     0.80062   0.14067   0.97173   0.00000  Uiso   1.00
C856   C     0.86605   0.19266   0.69494   0.00000  Uiso   1.00
Cu857  Cu    0.83333   0.16667   0.88022   0.00000  Uiso   1.00
Cu858  Cu    0.83333   0.16666   0.78645   0.00000  Uiso   1.00
H859   H     0.99297   0.16606   0.77901   0.00000  Uiso   1.00
H860   H     0.67369   0.16727   0.88765   0.00000  Uiso   1.00
H861   H     0.78115   0.03896   0.77029   0.00000  Uiso   1.00
H862   H     0.88552   0.29437   0.89637   0.00000  Uiso   1.00
N863   N     0.83335   0.16668   0.95069   0.00000  Uiso   1.00
N864   N     0.83332   0.16666   0.71597   0.00000  Uiso   1.00
O865   O     0.83333   0.10655   0.87291   0.00000  Uiso   1.00
O866   O     0.83334   0.22678   0.79375   0.00000  Uiso   1.00
O867   O     0.83333   0.10654   0.79372   0.00000  Uiso   1.00
O868   O     0.83334   0.22679   0.87294   0.00000  Uiso   1.00
O869   O     0.75828   0.16667   0.86379   0.00000  Uiso   1.00
O870   O     0.90839   0.16666   0.80288   0.00000  Uiso   1.00
O871   O     0.75828   0.16666   0.78460   0.00000  Uiso   1.00
O872   O     0.90839   0.16667   0.88207   0.00000  Uiso   1.00
O873   O     0.76670   0.29399   0.76235   0.00000  Uiso   1.00
H874   H     0.75602   0.26648   0.77329   0.00000  Uiso   1.00
O875   O     0.89997   0.03934   0.90431   0.00000  Uiso   1.00
H876   H     0.91065   0.06685   0.89338   0.00000  Uiso   1.00
O877   O     0.76829   0.11525   0.71059   0.00000  Uiso   1.00
H878   H     0.74470   0.09906   0.68760   0.00000  Uiso   1.00
O879   O     0.89838   0.21808   0.95608   0.00000  Uiso   1.00
H880   H     0.92196   0.23428   0.97907   0.00000  Uiso   1.00
Cl881  Cl    0.75870   0.10628   0.93677   0.00000  Uiso   1.00
Cl882  Cl    0.90797   0.22705   0.72990   0.00000  Uiso   1.00
C883   C     0.16799   0.42086   0.83355   0.00000  Uiso   1.00
C884   C     0.16534   0.57914   0.83312   0.00000  Uiso   1.00
C885   C     0.06802   0.49993   0.82134   0.00000  Uiso   1.00
C886   C     0.26532   0.50007   0.84533   0.00000  Uiso   1.00
C887   C     0.01275   0.49982   0.81474   0.00000  Uiso   1.00
C888   C     0.32058   0.50018   0.85192   0.00000  Uiso   1.00
C889   C     0.13790   0.35528   0.79749   0.00000  Uiso   1.00
C890   C     0.19543   0.64472   0.86918   0.00000  Uiso   1.00
C891   C     0.13422   0.64586   0.79722   0.00000  Uiso   1.00
C892   C     0.19911   0.35414   0.86945   0.00000  Uiso   1.00
C893   C     0.16418   0.62376   0.83311   0.00000  Uiso   1.00
C894   C     0.16915   0.37624   0.83355   0.00000  Uiso   1.00
C895   C     0.13387   0.47411   0.68837   0.00000  Uiso   1.00
C896   C     0.19946   0.52589   0.97830   0.00000  Uiso   1.00
C897   C     0.13395   0.47401   0.97173   0.00000  Uiso   1.00
C898   C     0.19938   0.52599   0.69494   0.00000  Uiso   1.00
Cu899  Cu    0.16667   0.50001   0.88022   0.00000  Uiso   1.00
Cu900  Cu    0.16667   0.49999   0.78645   0.00000  Uiso   1.00
H901   H     0.32631   0.49940   0.77901   0.00000  Uiso   1.00
H902   H     0.00703   0.50060   0.88765   0.00000  Uiso   1.00
H903   H     0.11448   0.37230   0.77029   0.00000  Uiso   1.00
H904   H     0.21885   0.62770   0.89637   0.00000  Uiso   1.00
N905   N     0.16668   0.50001   0.95069   0.00000  Uiso   1.00
N906   N     0.16665   0.49999   0.71597   0.00000  Uiso   1.00
O907   O     0.16666   0.43989   0.87291   0.00000  Uiso   1.00
O908   O     0.16667   0.56011   0.79375   0.00000  Uiso   1.00
O909   O     0.16666   0.43988   0.79372   0.00000  Uiso   1.00
O910   O     0.16667   0.56012   0.87294   0.00000  Uiso   1.00
O911   O     0.09161   0.50000   0.86379   0.00000  Uiso   1.00
O912   O     0.24172   0.50000   0.80288   0.00000  Uiso   1.00
O913   O     0.09161   0.49999   0.78460   0.00000  Uiso   1.00
O914   O     0.24172   0.50001   0.88207   0.00000  Uiso   1.00
O915   O     0.10003   0.62732   0.76235   0.00000  Uiso   1.00
H916   H     0.08935   0.59982   0.77329   0.00000  Uiso   1.00
O917   O     0.23330   0.37268   0.90431   0.00000  Uiso   1.00
H918   H     0.24398   0.40018   0.89338   0.00000  Uiso   1.00
O919   O     0.10162   0.44859   0.71059   0.00000  Uiso   1.00
H920   H     0.07804   0.43239   0.68760   0.00000  Uiso   1.00
O921   O     0.23171   0.55141   0.95608   0.00000  Uiso   1.00
H922   H     0.25530   0.56761   0.97907   0.00000  Uiso   1.00
Cl923  Cl    0.09203   0.43961   0.93677   0.00000  Uiso   1.00
Cl924  Cl    0.24130   0.56039   0.72990   0.00000  Uiso   1.00
C925   C     0.50133   0.42086   0.83355   0.00000  Uiso   1.00
C926   C     0.49867   0.57914   0.83312   0.00000  Uiso   1.00
C927   C     0.40135   0.49993   0.82134   0.00000  Uiso   1.00
C928   C     0.59865   0.50007   0.84533   0.00000  Uiso   1.00
C929   C     0.34609   0.49982   0.81474   0.00000  Uiso   1.00
C930   C     0.65391   0.50018   0.85192   0.00000  Uiso   1.00
C931   C     0.47123   0.35528   0.79749   0.00000  Uiso   1.00
C932   C     0.52877   0.64472   0.86918   0.00000  Uiso   1.00
C933   C     0.46756   0.64586   0.79722   0.00000  Uiso   1.00
C934   C     0.53244   0.35414   0.86945   0.00000  Uiso   1.00
C935   C     0.49752   0.62376   0.83311   0.00000  Uiso   1.00
C936   C     0.50248   0.37624   0.83355   0.00000  Uiso   1.00
C937   C     0.46721   0.47411   0.68837   0.00000  Uiso   1.00
C938   C     0.53279   0.52589   0.97830   0.00000  Uiso   1.00
C939   C     0.46729   0.47401   0.97173   0.00000  Uiso   1.00
C940   C     0.53271   0.52599   0.69494   0.00000  Uiso   1.00
Cu941  Cu    0.50000   0.50001   0.88022   0.00000  Uiso   1.00
Cu942  Cu    0.50000   0.49999   0.78645   0.00000  Uiso   1.00
H943   H     0.65964   0.49940   0.77901   0.00000  Uiso   1.00
H944   H     0.34036   0.50060   0.88765   0.00000  Uiso   1.00
H945   H     0.44781   0.37230   0.77029   0.00000  Uiso   1.00
H946   H     0.55219   0.62770   0.89637   0.00000  Uiso   1.00
N947   N     0.50001   0.50001   0.95069   0.00000  Uiso   1.00
N948   N     0.49999   0.49999   0.71597   0.00000  Uiso   1.00
O949   O     0.50000   0.43989   0.87291   0.00000  Uiso   1.00
O950   O     0.50000   0.56011   0.79375   0.00000  Uiso   1.00
O951   O     0.50000   0.43988   0.79372   0.00000  Uiso   1.00
O952   O     0.50000   0.56012   0.87294   0.00000  Uiso   1.00
O953   O     0.42495   0.50000   0.86379   0.00000  Uiso   1.00
O954   O     0.57505   0.50000   0.80288   0.00000  Uiso   1.00
O955   O     0.42494   0.49999   0.78460   0.00000  Uiso   1.00
O956   O     0.57506   0.50001   0.88207   0.00000  Uiso   1.00
O957   O     0.43337   0.62732   0.76235   0.00000  Uiso   1.00
H958   H     0.42269   0.59982   0.77329   0.00000  Uiso   1.00
O959   O     0.56663   0.37268   0.90431   0.00000  Uiso   1.00
H960   H     0.57731   0.40018   0.89338   0.00000  Uiso   1.00
O961   O     0.43495   0.44859   0.71059   0.00000  Uiso   1.00
H962   H     0.41137   0.43239   0.68760   0.00000  Uiso   1.00
O963   O     0.56505   0.55141   0.95608   0.00000  Uiso   1.00
H964   H     0.58863   0.56761   0.97907   0.00000  Uiso   1.00
Cl965  Cl    0.42536   0.43961   0.93677   0.00000  Uiso   1.00
Cl966  Cl    0.57464   0.56039   0.72990   0.00000  Uiso   1.00
C967   C     0.83466   0.42086   0.83355   0.00000  Uiso   1.00
C968   C     0.83201   0.57914   0.83312   0.00000  Uiso   1.00
C969   C     0.73468   0.49993   0.82134   0.00000  Uiso   1.00
C970   C     0.93198   0.50007   0.84533   0.00000  Uiso   1.00
C971   C     0.67942   0.49982   0.81474   0.00000  Uiso   1.00
C972   C     0.98725   0.50018   0.85192   0.00000  Uiso   1.00
C973   C     0.80457   0.35528   0.79749   0.00000  Uiso   1.00
C974   C     0.86210   0.64472   0.86918   0.00000  Uiso   1.00
C975   C     0.80089   0.64586   0.79722   0.00000  Uiso   1.00
C976   C     0.86578   0.35414   0.86945   0.00000  Uiso   1.00
C977   C     0.83085   0.62376   0.83311   0.00000  Uiso   1.00
C978   C     0.83582   0.37624   0.83355   0.00000  Uiso   1.00
C979   C     0.80054   0.47411   0.68837   0.00000  Uiso   1.00
C980   C     0.86613   0.52589   0.97830   0.00000  Uiso   1.00
C981   C     0.80062   0.47401   0.97173   0.00000  Uiso   1.00
C982   C     0.86605   0.52599   0.69494   0.00000  Uiso   1.00
Cu983  Cu    0.83333   0.50001   0.88022   0.00000  Uiso   1.00
Cu984  Cu    0.83333   0.49999   0.78645   0.00000  Uiso   1.00
H985   H     0.99297   0.49940   0.77901   0.00000  Uiso   1.00
H986   H     0.67369   0.50060   0.88765   0.00000  Uiso   1.00
H987   H     0.78115   0.37230   0.77029   0.00000  Uiso   1.00
H988   H     0.88552   0.62770   0.89637   0.00000  Uiso   1.00
N989   N     0.83335   0.50001   0.95069   0.00000  Uiso   1.00
N990   N     0.83332   0.49999   0.71597   0.00000  Uiso   1.00
O991   O     0.83333   0.43989   0.87291   0.00000  Uiso   1.00
O992   O     0.83334   0.56011   0.79375   0.00000  Uiso   1.00
O993   O     0.83333   0.43988   0.79372   0.00000  Uiso   1.00
O994   O     0.83334   0.56012   0.87294   0.00000  Uiso   1.00
O995   O     0.75828   0.50000   0.86379   0.00000  Uiso   1.00
O996   O     0.90839   0.50000   0.80288   0.00000  Uiso   1.00
O997   O     0.75828   0.49999   0.78460   0.00000  Uiso   1.00
O998   O     0.90839   0.50001   0.88207   0.00000  Uiso   1.00
O999   O     0.76670   0.62732   0.76235   0.00000  Uiso   1.00
H1000  H     0.75602   0.59982   0.77329   0.00000  Uiso   1.00
O1001  O     0.89997   0.37268   0.90431   0.00000  Uiso   1.00
H1002  H     0.91065   0.40018   0.89338   0.00000  Uiso   1.00
O1003  O     0.76829   0.44859   0.71059   0.00000  Uiso   1.00
H1004  H     0.74470   0.43239   0.68760   0.00000  Uiso   1.00
O1005  O     0.89838   0.55141   0.95608   0.00000  Uiso   1.00
H1006  H     0.92196   0.56761   0.97907   0.00000  Uiso   1.00
Cl1007 Cl    0.75870   0.43961   0.93677   0.00000  Uiso   1.00
Cl1008 Cl    0.90797   0.56039   0.72990   0.00000  Uiso   1.00
C1009  C     0.16799   0.75420   0.83355   0.00000  Uiso   1.00
C1010  C     0.16534   0.91247   0.83312   0.00000  Uiso   1.00
C1011  C     0.06802   0.83326   0.82134   0.00000  Uiso   1.00
C1012  C     0.26532   0.83341   0.84533   0.00000  Uiso   1.00
C1013  C     0.01275   0.83315   0.81474   0.00000  Uiso   1.00
C1014  C     0.32058   0.83351   0.85192   0.00000  Uiso   1.00
C1015  C     0.13790   0.68861   0.79749   0.00000  Uiso   1.00
C1016  C     0.19543   0.97805   0.86918   0.00000  Uiso   1.00
C1017  C     0.13422   0.97919   0.79722   0.00000  Uiso   1.00
C1018  C     0.19911   0.68748   0.86945   0.00000  Uiso   1.00
C1019  C     0.16418   0.95710   0.83311   0.00000  Uiso   1.00
C1020  C     0.16915   0.70957   0.83355   0.00000  Uiso   1.00
C1021  C     0.13387   0.80744   0.68837   0.00000  Uiso   1.00
C1022  C     0.19946   0.85923   0.97830   0.00000  Uiso   1.00
C1023  C     0.13395   0.80734   0.97173   0.00000  Uiso   1.00
C1024  C     0.19938   0.85933   0.69494   0.00000  Uiso   1.00
Cu1025 Cu    0.16667   0.83334   0.88022   0.00000  Uiso   1.00
Cu1026 Cu    0.16667   0.83333   0.78645   0.00000  Uiso   1.00
H1027  H     0.32631   0.83273   0.77901   0.00000  Uiso   1.00
H1028  H     0.00703   0.83394   0.88765   0.00000  Uiso   1.00
H1029  H     0.11448   0.70563   0.77029   0.00000  Uiso   1.00
H1030  H     0.21885   0.96104   0.89637   0.00000  Uiso   1.00
N1031  N     0.16668   0.83334   0.95069   0.00000  Uiso   1.00
N1032  N     0.16665   0.83332   0.71597   0.00000  Uiso   1.00
O1033  O     0.16666   0.77322   0.87291   0.00000  Uiso   1.00
O1034  O     0.16667   0.89345   0.79375   0.00000  Uiso   1.00
O1035  O     0.16666   0.77321   0.79372   0.00000  Uiso   1.00
O1036  O     0.16667   0.89346   0.87294   0.00000  Uiso   1.00
O1037  O     0.09161   0.83334   0.86379   0.00000  Uiso   1.00
O1038  O     0.24172   0.83333   0.80288   0.00000  Uiso   1.00
O1039  O     0.09161   0.83333   0.78460   0.00000  Uiso   1.00
O1040  O     0.24172   0.83334   0.88207   0.00000  Uiso   1.00
O1041  O     0.10003   0.96066   0.76235   0.00000  Uiso   1.00
H1042  H     0.08935   0.93315   0.77329   0.00000  Uiso   1.00
O1043  O     0.23330   0.70601   0.90431   0.00000  Uiso   1.00
H1044  H     0.24398   0.73352   0.89338   0.00000  Uiso   1.00
O1045  O     0.10162   0.78192   0.71059   0.00000  Uiso   1.00
H1046  H     0.07804   0.76572   0.68760   0.00000  Uiso   1.00
O1047  O     0.23171   0.88475   0.95608   0.00000  Uiso   1.00
H1048  H     0.25530   0.90094   0.97907   0.00000  Uiso   1.00
Cl1049 Cl    0.09203   0.77295   0.93677   0.00000  Uiso   1.00
Cl1050 Cl    0.24130   0.89372   0.72990   0.00000  Uiso   1.00
C1051  C     0.50133   0.75420   0.83355   0.00000  Uiso   1.00
C1052  C     0.49867   0.91247   0.83312   0.00000  Uiso   1.00
C1053  C     0.40135   0.83326   0.82134   0.00000  Uiso   1.00
C1054  C     0.59865   0.83341   0.84533   0.00000  Uiso   1.00
C1055  C     0.34609   0.83315   0.81474   0.00000  Uiso   1.00
C1056  C     0.65391   0.83351   0.85192   0.00000  Uiso   1.00
C1057  C     0.47123   0.68861   0.79749   0.00000  Uiso   1.00
C1058  C     0.52877   0.97805   0.86918   0.00000  Uiso   1.00
C1059  C     0.46756   0.97919   0.79722   0.00000  Uiso   1.00
C1060  C     0.53244   0.68748   0.86945   0.00000  Uiso   1.00
C1061  C     0.49752   0.95710   0.83311   0.00000  Uiso   1.00
C1062  C     0.50248   0.70957   0.83355   0.00000  Uiso   1.00
C1063  C     0.46721   0.80744   0.68837   0.00000  Uiso   1.00
C1064  C     0.53279   0.85923   0.97830   0.00000  Uiso   1.00
C1065  C     0.46729   0.80734   0.97173   0.00000  Uiso   1.00
C1066  C     0.53271   0.85933   0.69494   0.00000  Uiso   1.00
Cu1067 Cu    0.50000   0.83334   0.88022   0.00000  Uiso   1.00
Cu1068 Cu    0.50000   0.83333   0.78645   0.00000  Uiso   1.00
H1069  H     0.65964   0.83273   0.77901   0.00000  Uiso   1.00
H1070  H     0.34036   0.83394   0.88765   0.00000  Uiso   1.00
H1071  H     0.44781   0.70563   0.77029   0.00000  Uiso   1.00
H1072  H     0.55219   0.96104   0.89637   0.00000  Uiso   1.00
N1073  N     0.50001   0.83334   0.95069   0.00000  Uiso   1.00
N1074  N     0.49999   0.83332   0.71597   0.00000  Uiso   1.00
O1075  O     0.50000   0.77322   0.87291   0.00000  Uiso   1.00
O1076  O     0.50000   0.89345   0.79375   0.00000  Uiso   1.00
O1077  O     0.50000   0.77321   0.79372   0.00000  Uiso   1.00
O1078  O     0.50000   0.89346   0.87294   0.00000  Uiso   1.00
O1079  O     0.42495   0.83334   0.86379   0.00000  Uiso   1.00
O1080  O     0.57505   0.83333   0.80288   0.00000  Uiso   1.00
O1081  O     0.42494   0.83333   0.78460   0.00000  Uiso   1.00
O1082  O     0.57506   0.83334   0.88207   0.00000  Uiso   1.00
O1083  O     0.43337   0.96066   0.76235   0.00000  Uiso   1.00
H1084  H     0.42269   0.93315   0.77329   0.00000  Uiso   1.00
O1085  O     0.56663   0.70601   0.90431   0.00000  Uiso   1.00
H1086  H     0.57731   0.73352   0.89338   0.00000  Uiso   1.00
O1087  O     0.43495   0.78192   0.71059   0.00000  Uiso   1.00
H1088  H     0.41137   0.76572   0.68760   0.00000  Uiso   1.00
O1089  O     0.56505   0.88475   0.95608   0.00000  Uiso   1.00
H1090  H     0.58863   0.90094   0.97907   0.00000  Uiso   1.00
Cl1091 Cl    0.42536   0.77295   0.93677   0.00000  Uiso   1.00
Cl1092 Cl    0.57464   0.89372   0.72990   0.00000  Uiso   1.00
C1093  C     0.83466   0.75420   0.83355   0.00000  Uiso   1.00
C1094  C     0.83201   0.91247   0.83312   0.00000  Uiso   1.00
C1095  C     0.73468   0.83326   0.82134   0.00000  Uiso   1.00
C1096  C     0.93198   0.83341   0.84533   0.00000  Uiso   1.00
C1097  C     0.67942   0.83315   0.81474   0.00000  Uiso   1.00
C1098  C     0.98725   0.83351   0.85192   0.00000  Uiso   1.00
C1099  C     0.80457   0.68861   0.79749   0.00000  Uiso   1.00
C1100  C     0.86210   0.97805   0.86918   0.00000  Uiso   1.00
C1101  C     0.80089   0.97919   0.79722   0.00000  Uiso   1.00
C1102  C     0.86578   0.68748   0.86945   0.00000  Uiso   1.00
C1103  C     0.83085   0.95710   0.83311   0.00000  Uiso   1.00
C1104  C     0.83582   0.70957   0.83355   0.00000  Uiso   1.00
C1105  C     0.80054   0.80744   0.68837   0.00000  Uiso   1.00
C1106  C     0.86613   0.85923   0.97830   0.00000  Uiso   1.00
C1107  C     0.80062   0.80734   0.97173   0.00000  Uiso   1.00
C1108  C     0.86605   0.85933   0.69494   0.00000  Uiso   1.00
Cu1109 Cu    0.83333   0.83334   0.88022   0.00000  Uiso   1.00
Cu1110 Cu    0.83333   0.83333   0.78645   0.00000  Uiso   1.00
H1111  H     0.99297   0.83273   0.77901   0.00000  Uiso   1.00
H1112  H     0.67369   0.83394   0.88765   0.00000  Uiso   1.00
H1113  H     0.78115   0.70563   0.77029   0.00000  Uiso   1.00
H1114  H     0.88552   0.96104   0.89637   0.00000  Uiso   1.00
N1115  N     0.83335   0.83334   0.95069   0.00000  Uiso   1.00
N1116  N     0.83332   0.83332   0.71597   0.00000  Uiso   1.00
O1117  O     0.83333   0.77322   0.87291   0.00000  Uiso   1.00
O1118  O     0.83334   0.89345   0.79375   0.00000  Uiso   1.00
O1119  O     0.83333   0.77321   0.79372   0.00000  Uiso   1.00
O1120  O     0.83334   0.89346   0.87294   0.00000  Uiso   1.00
O1121  O     0.75828   0.83334   0.86379   0.00000  Uiso   1.00
O1122  O     0.90839   0.83333   0.80288   0.00000  Uiso   1.00
O1123  O     0.75828   0.83333   0.78460   0.00000  Uiso   1.00
O1124  O     0.90839   0.83334   0.88207   0.00000  Uiso   1.00
O1125  O     0.76670   0.96066   0.76235   0.00000  Uiso   1.00
H1126  H     0.75602   0.93315   0.77329   0.00000  Uiso   1.00
O1127  O     0.89997   0.70601   0.90431   0.00000  Uiso   1.00
H1128  H     0.91065   0.73352   0.89338   0.00000  Uiso   1.00
O1129  O     0.76829   0.78192   0.71059   0.00000  Uiso   1.00
H1130  H     0.74470   0.76572   0.68760   0.00000  Uiso   1.00
O1131  O     0.89838   0.88475   0.95608   0.00000  Uiso   1.00
H1132  H     0.92196   0.90094   0.97907   0.00000  Uiso   1.00
Cl1133 Cl    0.75870   0.77295   0.93677   0.00000  Uiso   1.00
Cl1134 Cl    0.90797   0.89372   0.72990   0.00000  Uiso   1.00
loop_
_geom_bond_atom_site_label_1
_geom_bond_atom_site_label_2
_geom_bond_distance
_geom_bond_site_symmetry_2
_ccdc_geom_bond_type
C1     O25     1.296   .     A
C1     C12     1.446   .     S
C1     O27     1.294   .     A
C2     C11     1.446   .     S
C2     O26     1.296   .     A
C2     O28     1.294   .     A
C3     O31     1.292   .     A
C3     O29     1.293   .     A
C3     C5      1.434   .     S
C4     O32     1.292   .     A
C4     C6      1.434   .     S
C4     O30     1.293   .     A
C5     C90     1.334   1_455 S
C5     H103    1.087   1_455 S
C6     C47     1.334   .     S
C6     H62     1.087   .     S
C7     C12     1.400   .     A
C7     H21     1.084   .     S
C7     C261    1.386   1_545 S
C8     C11     1.400   .     A
C8     H22     1.084   .     S
C8     C136    1.386   .     S
C9     O33     1.381   .     S
C9     C11     1.413   .     A
C9     C133    1.386   .     S
C10    O35     1.381   .     S
C10    C12     1.413   .     A
C10    C260    1.386   1_545 S
C13    O37     1.381   .     S
C13    N24     1.363   .     A
C13    C771    1.437   1_554 S
C14    N23     1.363   .     A
C14    O39     1.381   .     S
C14    C394    1.437   .     S
C15    N23     1.381   .     A
C15    Cl41    1.764   .     S
C15    C391    1.437   .     S
C16    N24     1.381   .     A
C16    Cl42    1.764   .     S
C16    C770    1.437   1_554 S
Cu17   O25     1.959   .     S
Cu17   N23     2.026   .     S
Cu17   Cu18    2.696   .     S
Cu17   O29     1.959   .     S
Cu17   O32     1.959   .     S
Cu17   O28     1.957   .     S
Cu18   O26     1.959   .     S
Cu18   N24     2.026   .     S
Cu18   O30     1.959   .     S
Cu18   O31     1.959   .     S
Cu18   O27     1.957   .     S
H19    C47     1.087   .     S
H20    C90     1.087   1_455 S
O33    H34     0.989   .     S
O35    H36     0.989   .     S
O37    H38     0.986   .     S
O39    H40     0.986   .     S
C43    O67     1.296   .     A
C43    C54     1.446   .     S
C43    O69     1.294   .     A
C44    C53     1.446   .     S
C44    O68     1.296   .     A
C44    O70     1.294   .     A
C45    O73     1.292   .     A
C45    O71     1.293   .     A
C45    C47     1.434   .     S
C46    O74     1.292   .     A
C46    C48     1.434   .     S
C46    O72     1.293   .     A
C48    C89     1.334   .     S
C48    H104    1.087   .     S
C49    C54     1.400   .     A
C49    H63     1.084   .     S
C49    C303    1.386   1_545 S
C50    C53     1.400   .     A
C50    H64     1.084   .     S
C50    C178    1.386   .     S
C51    O75     1.381   .     S
C51    C53     1.413   .     A
C51    C175    1.386   .     S
C52    O77     1.381   .     S
C52    C54     1.413   .     A
C52    C302    1.386   1_545 S
C55    O79     1.381   .     S
C55    N66     1.363   .     A
C55    C813    1.437   1_554 S
C56    N65     1.363   .     A
C56    O81     1.381   .     S
C56    C436    1.437   .     S
C57    N65     1.381   .     A
C57    Cl83    1.764   .     S
C57    C433    1.437   .     S
C58    N66     1.381   .     A
C58    Cl84    1.764   .     S
C58    C812    1.437   1_554 S
Cu59   O67     1.959   .     S
Cu59   N65     2.026   .     S
Cu59   Cu60    2.696   .     S
Cu59   O71     1.959   .     S
Cu59   O74     1.959   .     S
Cu59   O70     1.957   .     S
Cu60   O68     1.959   .     S
Cu60   N66     2.026   .     S
Cu60   O72     1.959   .     S
Cu60   O73     1.959   .     S
Cu60   O69     1.957   .     S
H61    C89     1.087   .     S
O75    H76     0.989   .     S
O77    H78     0.989   .     S
O79    H80     0.986   .     S
O81    H82     0.986   .     S
C85    O109    1.296   .     A
C85    C96     1.446   .     S
C85    O111    1.294   .     A
C86    C95     1.446   .     S
C86    O110    1.296   .     A
C86    O112    1.294   .     A
C87    O115    1.292   .     A
C87    O113    1.293   .     A
C87    C89     1.434   .     S
C88    O116    1.292   .     A
C88    C90     1.434   .     S
C88    O114    1.293   .     A
C90    C5      1.334   1_655 S
C90    H20     1.087   1_655 S
C91    C96     1.400   .     A
C91    H105    1.084   .     S
C91    C345    1.386   1_545 S
C92    C95     1.400   .     A
C92    H106    1.084   .     S
C92    C220    1.386   .     S
C93    O117    1.381   .     S
C93    C95     1.413   .     A
C93    C217    1.386   .     S
C94    O119    1.381   .     S
C94    C96     1.413   .     A
C94    C344    1.386   1_545 S
C97    O121    1.381   .     S
C97    N108    1.363   .     A
C97    C855    1.437   1_554 S
C98    N107    1.363   .     A
C98    O123    1.381   .     S
C98    C478    1.437   .     S
C99    N107    1.381   .     A
C99    Cl125   1.764   .     S
C99    C475    1.437   .     S
C100   N108    1.381   .     A
C100   Cl126   1.764   .     S
C100   C854    1.437   1_554 S
Cu101  O109    1.959   .     S
Cu101  N107    2.026   .     S
Cu101  Cu102   2.696   .     S
Cu101  O113    1.959   .     S
Cu101  O116    1.959   .     S
Cu101  O112    1.957   .     S
Cu102  O110    1.959   .     S
Cu102  N108    2.026   .     S
Cu102  O114    1.959   .     S
Cu102  O115    1.959   .     S
Cu102  O111    1.957   .     S
H103   C5      1.087   1_655 S
O117   H118    0.989   .     S
O119   H120    0.989   .     S
O121   H122    0.986   .     S
O123   H124    0.986   .     S
C127   O151    1.296   .     A
C127   C138    1.446   .     S
C127   O153    1.294   .     A
C128   C137    1.446   .     S
C128   O152    1.296   .     A
C128   O154    1.294   .     A
C129   O157    1.292   .     A
C129   O155    1.293   .     A
C129   C131    1.434   .     S
C130   O158    1.292   .     A
C130   C132    1.434   .     S
C130   O156    1.293   .     A
C131   C216    1.334   1_455 S
C131   H229    1.087   1_455 S
C132   C173    1.334   .     S
C132   H188    1.087   .     S
C133   C138    1.400   .     A
C133   H147    1.084   .     S
C134   C137    1.400   .     A
C134   H148    1.084   .     S
C134   C262    1.386   .     S
C135   O159    1.381   .     S
C135   C137    1.413   .     A
C135   C259    1.386   .     S
C136   O161    1.381   .     S
C136   C138    1.413   .     A
C139   O163    1.381   .     S
C139   N150    1.363   .     A
C139   C897    1.437   1_554 S
C140   N149    1.363   .     A
C140   O165    1.381   .     S
C140   C520    1.437   .     S
C141   N149    1.381   .     A
C141   Cl167   1.764   .     S
C141   C517    1.437   .     S
C142   N150    1.381   .     A
C142   Cl168   1.764   .     S
C142   C896    1.437   1_554 S
Cu143  O151    1.959   .     S
Cu143  N149    2.026   .     S
Cu143  Cu144   2.696   .     S
Cu143  O155    1.959   .     S
Cu143  O158    1.959   .     S
Cu143  O154    1.957   .     S
Cu144  O152    1.959   .     S
Cu144  N150    2.026   .     S
Cu144  O156    1.959   .     S
Cu144  O157    1.959   .     S
Cu144  O153    1.957   .     S
H145   C173    1.087   .     S
H146   C216    1.087   1_455 S
O159   H160    0.989   .     S
O161   H162    0.989   .     S
O163   H164    0.986   .     S
O165   H166    0.986   .     S
C169   O193    1.296   .     A
C169   C180    1.446   .     S
C169   O195    1.294   .     A
C170   C179    1.446   .     S
C170   O194    1.296   .     A
C170   O196    1.294   .     A
C171   O199    1.292   .     A
C171   O197    1.293   .     A
C171   C173    1.434   .     S
C172   O200    1.292   .     A
C172   C174    1.434   .     S
C172   O198    1.293   .     A
C174   C215    1.334   .     S
C174   H230    1.087   .     S
C175   C180    1.400   .     A
C175   H189    1.084   .     S
C176   C179    1.400   .     A
C176   H190    1.084   .     S
C176   C304    1.386   .     S
C177   O201    1.381   .     S
C177   C179    1.413   .     A
C177   C301    1.386   .     S
C178   O203    1.381   .     S
C178   C180    1.413   .     A
C181   O205    1.381   .     S
C181   N192    1.363   .     A
C181   C939    1.437   1_554 S
C182   N191    1.363   .     A
C182   O207    1.381   .     S
C182   C562    1.437   .     S
C183   N191    1.381   .     A
C183   Cl209   1.764   .     S
C183   C559    1.437   .     S
C184   N192    1.381   .     A
C184   Cl210   1.764   .     S
C184   C938    1.437   1_554 S
Cu185  O193    1.959   .     S
Cu185  N191    2.026   .     S
Cu185  Cu186   2.696   .     S
Cu185  O197    1.959   .     S
Cu185  O200    1.959   .     S
Cu185  O196    1.957   .     S
Cu186  O194    1.959   .     S
Cu186  N192    2.026   .     S
Cu186  O198    1.959   .     S
Cu186  O199    1.959   .     S
Cu186  O195    1.957   .     S
H187   C215    1.087   .     S
O201   H202    0.989   .     S
O203   H204    0.989   .     S
O205   H206    0.986   .     S
O207   H208    0.986   .     S
C211   O235    1.296   .     A
C211   C222    1.446   .     S
C211   O237    1.294   .     A
C212   C221    1.446   .     S
C212   O236    1.296   .     A
C212   O238    1.294   .     A
C213   O241    1.292   .     A
C213   O239    1.293   .     A
C213   C215    1.434   .     S
C214   O242    1.292   .     A
C214   C216    1.434   .     S
C214   O240    1.293   .     A
C216   C131    1.334   1_655 S
C216   H146    1.087   1_655 S
C217   C222    1.400   .     A
C217   H231    1.084   .     S
C218   C221    1.400   .     A
C218   H232    1.084   .     S
C218   C346    1.386   .     S
C219   O243    1.381   .     S
C219   C221    1.413   .     A
C219   C343    1.386   .     S
C220   O245    1.381   .     S
C220   C222    1.413   .     A
C223   O247    1.381   .     S
C223   N234    1.363   .     A
C223   C981    1.437   1_554 S
C224   N233    1.363   .     A
C224   O249    1.381   .     S
C224   C604    1.437   .     S
C225   N233    1.381   .     A
C225   Cl251   1.764   .     S
C225   C601    1.437   .     S
C226   N234    1.381   .     A
C226   Cl252   1.764   .     S
C226   C980    1.437   1_554 S
Cu227  O235    1.959   .     S
Cu227  N233    2.026   .     S
Cu227  Cu228   2.696   .     S
Cu227  O239    1.959   .     S
Cu227  O242    1.959   .     S
Cu227  O238    1.957   .     S
Cu228  O236    1.959   .     S
Cu228  N234    2.026   .     S
Cu228  O240    1.959   .     S
Cu228  O241    1.959   .     S
Cu228  O237    1.957   .     S
H229   C131    1.087   1_655 S
O243   H244    0.989   .     S
O245   H246    0.989   .     S
O247   H248    0.986   .     S
O249   H250    0.986   .     S
C253   O277    1.296   .     A
C253   C264    1.446   .     S
C253   O279    1.294   .     A
C254   C263    1.446   .     S
C254   O278    1.296   .     A
C254   O280    1.294   .     A
C255   O283    1.292   .     A
C255   O281    1.293   .     A
C255   C257    1.434   .     S
C256   O284    1.292   .     A
C256   C258    1.434   .     S
C256   O282    1.293   .     A
C257   C342    1.334   1_455 S
C257   H355    1.087   1_455 S
C258   C299    1.334   .     S
C258   H314    1.087   .     S
C259   C264    1.400   .     A
C259   H273    1.084   .     S
C260   C263    1.400   .     A
C260   H274    1.084   .     S
C260   C10     1.386   1_565 S
C261   O285    1.381   .     S
C261   C263    1.413   .     A
C261   C7      1.386   1_565 S
C262   O287    1.381   .     S
C262   C264    1.413   .     A
C265   O289    1.381   .     S
C265   N276    1.363   .     A
C265   C1023   1.437   1_554 S
C266   N275    1.363   .     A
C266   O291    1.381   .     S
C266   C646    1.437   .     S
C267   N275    1.381   .     A
C267   Cl293   1.764   .     S
C267   C643    1.437   .     S
C268   N276    1.381   .     A
C268   Cl294   1.764   .     S
C268   C1022   1.437   1_554 S
Cu269  O277    1.959   .     S
Cu269  N275    2.026   .     S
Cu269  Cu270   2.696   .     S
Cu269  O281    1.959   .     S
Cu269  O284    1.959   .     S
Cu269  O280    1.957   .     S
Cu270  O278    1.959   .     S
Cu270  N276    2.026   .     S
Cu270  O282    1.959   .     S
Cu270  O283    1.959   .     S
Cu270  O279    1.957   .     S
H271   C299    1.087   .     S
H272   C342    1.087   1_455 S
O285   H286    0.989   .     S
O287   H288    0.989   .     S
O289   H290    0.986   .     S
O291   H292    0.986   .     S
C295   O319    1.296   .     A
C295   C306    1.446   .     S
C295   O321    1.294   .     A
C296   C305    1.446   .     S
C296   O320    1.296   .     A
C296   O322    1.294   .     A
C297   O325    1.292   .     A
C297   O323    1.293   .     A
C297   C299    1.434   .     S
C298   O326    1.292   .     A
C298   C300    1.434   .     S
C298   O324    1.293   .     A
C300   C341    1.334   .     S
C300   H356    1.087   .     S
C301   C306    1.400   .     A
C301   H315    1.084   .     S
C302   C305    1.400   .     A
C302   H316    1.084   .     S
C302   C52     1.386   1_565 S
C303   O327    1.381   .     S
C303   C305    1.413   .     A
C303   C49     1.386   1_565 S
C304   O329    1.381   .     S
C304   C306    1.413   .     A
C307   O331    1.381   .     S
C307   N318    1.363   .     A
C307   C1065   1.437   1_554 S
C308   N317    1.363   .     A
C308   O333    1.381   .     S
C308   C688    1.437   .     S
C309   N317    1.381   .     A
C309   Cl335   1.764   .     S
C309   C685    1.437   .     S
C310   N318    1.381   .     A
C310   Cl336   1.764   .     S
C310   C1064   1.437   1_554 S
Cu311  O319    1.959   .     S
Cu311  N317    2.026   .     S
Cu311  Cu312   2.696   .     S
Cu311  O323    1.959   .     S
Cu311  O326    1.959   .     S
Cu311  O322    1.957   .     S
Cu312  O320    1.959   .     S
Cu312  N318    2.026   .     S
Cu312  O324    1.959   .     S
Cu312  O325    1.959   .     S
Cu312  O321    1.957   .     S
H313   C341    1.087   .     S
O327   H328    0.989   .     S
O329   H330    0.989   .     S
O331   H332    0.986   .     S
O333   H334    0.986   .     S
C337   O361    1.296   .     A
C337   C348    1.446   .     S
C337   O363    1.294   .     A
C338   C347    1.446   .     S
C338   O362    1.296   .     A
C338   O364    1.294   .     A
C339   O367    1.292   .     A
C339   O365    1.293   .     A
C339   C341    1.434   .     S
C340   O368    1.292   .     A
C340   C342    1.434   .     S
C340   O366    1.293   .     A
C342   C257    1.334   1_655 S
C342   H272    1.087   1_655 S
C343   C348    1.400   .     A
C343   H357    1.084   .     S
C344   C347    1.400   .     A
C344   H358    1.084   .     S
C344   C94     1.386   1_565 S
C345   O369    1.381   .     S
C345   C347    1.413   .     A
C345   C91     1.386   1_565 S
C346   O371    1.381   .     S
C346   C348    1.413   .     A
C349   O373    1.381   .     S
C349   N360    1.363   .     A
C349   C1107   1.437   1_554 S
C350   N359    1.363   .     A
C350   O375    1.381   .     S
C350   C730    1.437   .     S
C351   N359    1.381   .     A
C351   Cl377   1.764   .     S
C351   C727    1.437   .     S
C352   N360    1.381   .     A
C352   Cl378   1.764   .     S
C352   C1106   1.437   1_554 S
Cu353  O361    1.959   .     S
Cu353  N359    2.026   .     S
Cu353  Cu354   2.696   .     S
Cu353  O365    1.959   .     S
Cu353  O368    1.959   .     S
Cu353  O364    1.957   .     S
Cu354  O362    1.959   .     S
Cu354  N360    2.026   .     S
Cu354  O366    1.959   .     S
Cu354  O367    1.959   .     S
Cu354  O363    1.957   .     S
H355   C257    1.087   1_655 S
O369   H370    0.989   .     S
O371   H372    0.989   .     S
O373   H374    0.986   .     S
O375   H376    0.986   .     S
C379   O403    1.296   .     A
C379   C390    1.446   .     S
C379   O405    1.294   .     A
C380   C389    1.446   .     S
C380   O404    1.296   .     A
C380   O406    1.294   .     A
C381   O409    1.292   .     A
C381   O407    1.293   .     A
C381   C383    1.434   .     S
C382   O410    1.292   .     A
C382   C384    1.434   .     S
C382   O408    1.293   .     A
C383   C468    1.334   1_455 S
C383   H481    1.087   1_455 S
C384   C425    1.334   .     S
C384   H440    1.087   .     S
C385   C390    1.400   .     A
C385   H399    1.084   .     S
C385   C639    1.386   1_545 S
C386   C389    1.400   .     A
C386   H400    1.084   .     S
C386   C514    1.386   .     S
C387   O411    1.381   .     S
C387   C389    1.413   .     A
C387   C511    1.386   .     S
C388   O413    1.381   .     S
C388   C390    1.413   .     A
C388   C638    1.386   1_545 S
C391   O415    1.381   .     S
C391   N402    1.363   .     A
C392   N401    1.363   .     A
C392   O417    1.381   .     S
C392   C772    1.437   .     S
C393   N401    1.381   .     A
C393   Cl419   1.764   .     S
C393   C769    1.437   .     S
C394   N402    1.381   .     A
C394   Cl420   1.764   .     S
Cu395  O403    1.959   .     S
Cu395  N401    2.026   .     S
Cu395  Cu396   2.696   .     S
Cu395  O407    1.959   .     S
Cu395  O410    1.959   .     S
Cu395  O406    1.957   .     S
Cu396  O404    1.959   .     S
Cu396  N402    2.026   .     S
Cu396  O408    1.959   .     S
Cu396  O409    1.959   .     S
Cu396  O405    1.957   .     S
H397   C425    1.087   .     S
H398   C468    1.087   1_455 S
O411   H412    0.989   .     S
O413   H414    0.989   .     S
O415   H416    0.986   .     S
O417   H418    0.986   .     S
C421   O445    1.296   .     A
C421   C432    1.446   .     S
C421   O447    1.294   .     A
C422   C431    1.446   .     S
C422   O446    1.296   .     A
C422   O448    1.294   .     A
C423   O451    1.292   .     A
C423   O449    1.293   .     A
C423   C425    1.434   .     S
C424   O452    1.292   .     A
C424   C426    1.434   .     S
C424   O450    1.293   .     A
C426   C467    1.334   .     S
C426   H482    1.087   .     S
C427   C432    1.400   .     A
C427   H441    1.084   .     S
C427   C681    1.386   1_545 S
C428   C431    1.400   .     A
C428   H442    1.084   .     S
C428   C556    1.386   .     S
C429   O453    1.381   .     S
C429   C431    1.413   .     A
C429   C553    1.386   .     S
C430   O455    1.381   .     S
C430   C432    1.413   .     A
C430   C680    1.386   1_545 S
C433   O457    1.381   .     S
C433   N444    1.363   .     A
C434   N443    1.363   .     A
C434   O459    1.381   .     S
C434   C814    1.437   .     S
C435   N443    1.381   .     A
C435   Cl461   1.764   .     S
C435   C811    1.437   .     S
C436   N444    1.381   .     A
C436   Cl462   1.764   .     S
Cu437  O445    1.959   .     S
Cu437  N443    2.026   .     S
Cu437  Cu438   2.696   .     S
Cu437  O449    1.959   .     S
Cu437  O452    1.959   .     S
Cu437  O448    1.957   .     S
Cu438  O446    1.959   .     S
Cu438  N444    2.026   .     S
Cu438  O450    1.959   .     S
Cu438  O451    1.959   .     S
Cu438  O447    1.957   .     S
H439   C467    1.087   .     S
O453   H454    0.989   .     S
O455   H456    0.989   .     S
O457   H458    0.986   .     S
O459   H460    0.986   .     S
C463   O487    1.296   .     A
C463   C474    1.446   .     S
C463   O489    1.294   .     A
C464   C473    1.446   .     S
C464   O488    1.296   .     A
C464   O490    1.294   .     A
C465   O493    1.292   .     A
C465   O491    1.293   .     A
C465   C467    1.434   .     S
C466   O494    1.292   .     A
C466   C468    1.434   .     S
C466   O492    1.293   .     A
C468   C383    1.334   1_655 S
C468   H398    1.087   1_655 S
C469   C474    1.400   .     A
C469   H483    1.084   .     S
C469   C723    1.386   1_545 S
C470   C473    1.400   .     A
C470   H484    1.084   .     S
C470   C598    1.386   .     S
C471   O495    1.381   .     S
C471   C473    1.413   .     A
C471   C595    1.386   .     S
C472   O497    1.381   .     S
C472   C474    1.413   .     A
C472   C722    1.386   1_545 S
C475   O499    1.381   .     S
C475   N486    1.363   .     A
C476   N485    1.363   .     A
C476   O501    1.381   .     S
C476   C856    1.437   .     S
C477   N485    1.381   .     A
C477   Cl503   1.764   .     S
C477   C853    1.437   .     S
C478   N486    1.381   .     A
C478   Cl504   1.764   .     S
Cu479  O487    1.959   .     S
Cu479  N485    2.026   .     S
Cu479  Cu480   2.696   .     S
Cu479  O491    1.959   .     S
Cu479  O494    1.959   .     S
Cu479  O490    1.957   .     S
Cu480  O488    1.959   .     S
Cu480  N486    2.026   .     S
Cu480  O492    1.959   .     S
Cu480  O493    1.959   .     S
Cu480  O489    1.957   .     S
H481   C383    1.087   1_655 S
O495   H496    0.989   .     S
O497   H498    0.989   .     S
O499   H500    0.986   .     S
O501   H502    0.986   .     S
C505   O529    1.296   .     A
C505   C516    1.446   .     S
C505   O531    1.294   .     A
C506   C515    1.446   .     S
C506   O530    1.296   .     A
C506   O532    1.294   .     A
C507   O535    1.292   .     A
C507   O533    1.293   .     A
C507   C509    1.434   .     S
C508   O536    1.292   .     A
C508   C510    1.434   .     S
C508   O534    1.293   .     A
C509   C594    1.334   1_455 S
C509   H607    1.087   1_455 S
C510   C551    1.334   .     S
C510   H566    1.087   .     S
C511   C516    1.400   .     A
C511   H525    1.084   .     S
C512   C515    1.400   .     A
C512   H526    1.084   .     S
C512   C640    1.386   .     S
C513   O537    1.381   .     S
C513   C515    1.413   .     A
C513   C637    1.386   .     S
C514   O539    1.381   .     S
C514   C516    1.413   .     A
C517   O541    1.381   .     S
C517   N528    1.363   .     A
C518   N527    1.363   .     A
C518   O543    1.381   .     S
C518   C898    1.437   .     S
C519   N527    1.381   .     A
C519   Cl545   1.764   .     S
C519   C895    1.437   .     S
C520   N528    1.381   .     A
C520   Cl546   1.764   .     S
Cu521  O529    1.959   .     S
Cu521  N527    2.026   .     S
Cu521  Cu522   2.696   .     S
Cu521  O533    1.959   .     S
Cu521  O536    1.959   .     S
Cu521  O532    1.957   .     S
Cu522  O530    1.959   .     S
Cu522  N528    2.026   .     S
Cu522  O534    1.959   .     S
Cu522  O535    1.959   .     S
Cu522  O531    1.957   .     S
H523   C551    1.087   .     S
H524   C594    1.087   1_455 S
O537   H538    0.989   .     S
O539   H540    0.989   .     S
O541   H542    0.986   .     S
O543   H544    0.986   .     S
C547   O571    1.296   .     A
C547   C558    1.446   .     S
C547   O573    1.294   .     A
C548   C557    1.446   .     S
C548   O572    1.296   .     A
C548   O574    1.294   .     A
C549   O577    1.292   .     A
C549   O575    1.293   .     A
C549   C551    1.434   .     S
C550   O578    1.292   .     A
C550   C552    1.434   .     S
C550   O576    1.293   .     A
C552   C593    1.334   .     S
C552   H608    1.087   .     S
C553   C558    1.400   .     A
C553   H567    1.084   .     S
C554   C557    1.400   .     A
C554   H568    1.084   .     S
C554   C682    1.386   .     S
C555   O579    1.381   .     S
C555   C557    1.413   .     A
C555   C679    1.386   .     S
C556   O581    1.381   .     S
C556   C558    1.413   .     A
C559   O583    1.381   .     S
C559   N570    1.363   .     A
C560   N569    1.363   .     A
C560   O585    1.381   .     S
C560   C940    1.437   .     S
C561   N569    1.381   .     A
C561   Cl587   1.764   .     S
C561   C937    1.437   .     S
C562   N570    1.381   .     A
C562   Cl588   1.764   .     S
Cu563  O571    1.959   .     S
Cu563  N569    2.026   .     S
Cu563  Cu564   2.696   .     S
Cu563  O575    1.959   .     S
Cu563  O578    1.959   .     S
Cu563  O574    1.957   .     S
Cu564  O572    1.959   .     S
Cu564  N570    2.026   .     S
Cu564  O576    1.959   .     S
Cu564  O577    1.959   .     S
Cu564  O573    1.957   .     S
H565   C593    1.087   .     S
O579   H580    0.989   .     S
O581   H582    0.989   .     S
O583   H584    0.986   .     S
O585   H586    0.986   .     S
C589   O613    1.296   .     A
C589   C600    1.446   .     S
C589   O615    1.294   .     A
C590   C599    1.446   .     S
C590   O614    1.296   .     A
C590   O616    1.294   .     A
C591   O619    1.292   .     A
C591   O617    1.293   .     A
C591   C593    1.434   .     S
C592   O620    1.292   .     A
C592   C594    1.434   .     S
C592   O618    1.293   .     A
C594   C509    1.334   1_655 S
C594   H524    1.087   1_655 S
C595   C600    1.400   .     A
C595   H609    1.084   .     S
C596   C599    1.400   .     A
C596   H610    1.084   .     S
C596   C724    1.386   .     S
C597   O621    1.381   .     S
C597   C599    1.413   .     A
C597   C721    1.386   .     S
C598   O623    1.381   .     S
C598   C600    1.413   .     A
C601   O625    1.381   .     S
C601   N612    1.363   .     A
C602   N611    1.363   .     A
C602   O627    1.381   .     S
C602   C982    1.437   .     S
C603   N611    1.381   .     A
C603   Cl629   1.764   .     S
C603   C979    1.437   .     S
C604   N612    1.381   .     A
C604   Cl630   1.764   .     S
Cu605  O613    1.959   .     S
Cu605  N611    2.026   .     S
Cu605  Cu606   2.696   .     S
Cu605  O617    1.959   .     S
Cu605  O620    1.959   .     S
Cu605  O616    1.957   .     S
Cu606  O614    1.959   .     S
Cu606  N612    2.026   .     S
Cu606  O618    1.959   .     S
Cu606  O619    1.959   .     S
Cu606  O615    1.957   .     S
H607   C509    1.087   1_655 S
O621   H622    0.989   .     S
O623   H624    0.989   .     S
O625   H626    0.986   .     S
O627   H628    0.986   .     S
C631   O655    1.296   .     A
C631   C642    1.446   .     S
C631   O657    1.294   .     A
C632   C641    1.446   .     S
C632   O656    1.296   .     A
C632   O658    1.294   .     A
C633   O661    1.292   .     A
C633   O659    1.293   .     A
C633   C635    1.434   .     S
C634   O662    1.292   .     A
C634   C636    1.434   .     S
C634   O660    1.293   .     A
C635   C720    1.334   1_455 S
C635   H733    1.087   1_455 S
C636   C677    1.334   .     S
C636   H692    1.087   .     S
C637   C642    1.400   .     A
C637   H651    1.084   .     S
C638   C641    1.400   .     A
C638   H652    1.084   .     S
C638   C388    1.386   1_565 S
C639   O663    1.381   .     S
C639   C641    1.413   .     A
C639   C385    1.386   1_565 S
C640   O665    1.381   .     S
C640   C642    1.413   .     A
C643   O667    1.381   .     S
C643   N654    1.363   .     A
C644   N653    1.363   .     A
C644   O669    1.381   .     S
C644   C1024   1.437   .     S
C645   N653    1.381   .     A
C645   Cl671   1.764   .     S
C645   C1021   1.437   .     S
C646   N654    1.381   .     A
C646   Cl672   1.764   .     S
Cu647  O655    1.959   .     S
Cu647  N653    2.026   .     S
Cu647  Cu648   2.696   .     S
Cu647  O659    1.959   .     S
Cu647  O662    1.959   .     S
Cu647  O658    1.957   .     S
Cu648  O656    1.959   .     S
Cu648  N654    2.026   .     S
Cu648  O660    1.959   .     S
Cu648  O661    1.959   .     S
Cu648  O657    1.957   .     S
H649   C677    1.087   .     S
H650   C720    1.087   1_455 S
O663   H664    0.989   .     S
O665   H666    0.989   .     S
O667   H668    0.986   .     S
O669   H670    0.986   .     S
C673   O697    1.296   .     A
C673   C684    1.446   .     S
C673   O699    1.294   .     A
C674   C683    1.446   .     S
C674   O698    1.296   .     A
C674   O700    1.294   .     A
C675   O703    1.292   .     A
C675   O701    1.293   .     A
C675   C677    1.434   .     S
C676   O704    1.292   .     A
C676   C678    1.434   .     S
C676   O702    1.293   .     A
C678   C719    1.334   .     S
C678   H734    1.087   .     S
C679   C684    1.400   .     A
C679   H693    1.084   .     S
C680   C683    1.400   .     A
C680   H694    1.084   .     S
C680   C430    1.386   1_565 S
C681   O705    1.381   .     S
C681   C683    1.413   .     A
C681   C427    1.386   1_565 S
C682   O707    1.381   .     S
C682   C684    1.413   .     A
C685   O709    1.381   .     S
C685   N696    1.363   .     A
C686   N695    1.363   .     A
C686   O711    1.381   .     S
C686   C1066   1.437   .     S
C687   N695    1.381   .     A
C687   Cl713   1.764   .     S
C687   C1063   1.437   .     S
C688   N696    1.381   .     A
C688   Cl714   1.764   .     S
Cu689  O697    1.959   .     S
Cu689  N695    2.026   .     S
Cu689  Cu690   2.696   .     S
Cu689  O701    1.959   .     S
Cu689  O704    1.959   .     S
Cu689  O700    1.957   .     S
Cu690  O698    1.959   .     S
Cu690  N696    2.026   .     S
Cu690  O702    1.959   .     S
Cu690  O703    1.959   .     S
Cu690  O699    1.957   .     S
H691   C719    1.087   .     S
O705   H706    0.989   .     S
O707   H708    0.989   .     S
O709   H710    0.986   .     S
O711   H712    0.986   .     S
C715   O739    1.296   .     A
C715   C726    1.446   .     S
C715   O741    1.294   .     A
C716   C725    1.446   .     S
C716   O740    1.296   .     A
C716   O742    1.294   .     A
C717   O745    1.292   .     A
C717   O743    1.293   .     A
C717   C719    1.434   .     S
C718   O746    1.292   .     A
C718   C720    1.434   .     S
C718   O744    1.293   .     A
C720   C635    1.334   1_655 S
C720   H650    1.087   1_655 S
C721   C726    1.400   .     A
C721   H735    1.084   .     S
C722   C725    1.400   .     A
C722   H736    1.084   .     S
C722   C472    1.386   1_565 S
C723   O747    1.381   .     S
C723   C725    1.413   .     A
C723   C469    1.386   1_565 S
C724   O749    1.381   .     S
C724   C726    1.413   .     A
C727   O751    1.381   .     S
C727   N738    1.363   .     A
C728   N737    1.363   .     A
C728   O753    1.381   .     S
C728   C1108   1.437   .     S
C729   N737    1.381   .     A
C729   Cl755   1.764   .     S
C729   C1105   1.437   .     S
C730   N738    1.381   .     A
C730   Cl756   1.764   .     S
Cu731  O739    1.959   .     S
Cu731  N737    2.026   .     S
Cu731  Cu732   2.696   .     S
Cu731  O743    1.959   .     S
Cu731  O746    1.959   .     S
Cu731  O742    1.957   .     S
Cu732  O740    1.959   .     S
Cu732  N738    2.026   .     S
Cu732  O744    1.959   .     S
Cu732  O745    1.959   .     S
Cu732  O741    1.957   .     S
H733   C635    1.087   1_655 S
O747   H748    0.989   .     S
O749   H750    0.989   .     S
O751   H752    0.986   .     S
O753   H754    0.986   .     S
C757   O781    1.296   .     A
C757   C768    1.446   .     S
C757   O783    1.294   .     A
C758   C767    1.446   .     S
C758   O782    1.296   .     A
C758   O784    1.294   .     A
C759   O787    1.292   .     A
C759   O785    1.293   .     A
C759   C761    1.434   .     S
C760   O788    1.292   .     A
C760   C762    1.434   .     S
C760   O786    1.293   .     A
C761   C846    1.334   1_455 S
C761   H859    1.087   1_455 S
C762   C803    1.334   .     S
C762   H818    1.087   .     S
C763   C768    1.400   .     A
C763   H777    1.084   .     S
C763   C1017   1.386   1_545 S
C764   C767    1.400   .     A
C764   H778    1.084   .     S
C764   C892    1.386   .     S
C765   O789    1.381   .     S
C765   C767    1.413   .     A
C765   C889    1.386   .     S
C766   O791    1.381   .     S
C766   C768    1.413   .     A
C766   C1016   1.386   1_545 S
C769   O793    1.381   .     S
C769   N780    1.363   .     A
C770   N779    1.363   .     A
C770   O795    1.381   .     S
C770   C16     1.437   1_556 S
C771   N779    1.381   .     A
C771   Cl797   1.764   .     S
C771   C13     1.437   1_556 S
C772   N780    1.381   .     A
C772   Cl798   1.764   .     S
Cu773  O781    1.959   .     S
Cu773  N779    2.026   .     S
Cu773  Cu774   2.696   .     S
Cu773  O785    1.959   .     S
Cu773  O788    1.959   .     S
Cu773  O784    1.957   .     S
Cu774  O782    1.959   .     S
Cu774  N780    2.026   .     S
Cu774  O786    1.959   .     S
Cu774  O787    1.959   .     S
Cu774  O783    1.957   .     S
H775   C803    1.087   .     S
H776   C846    1.087   1_455 S
O789   H790    0.989   .     S
O791   H792    0.989   .     S
O793   H794    0.986   .     S
O795   H796    0.986   .     S
C799   O823    1.296   .     A
C799   C810    1.446   .     S
C799   O825    1.294   .     A
C800   C809    1.446   .     S
C800   O824    1.296   .     A
C800   O826    1.294   .     A
C801   O829    1.292   .     A
C801   O827    1.293   .     A
C801   C803    1.434   .     S
C802   O830    1.292   .     A
C802   C804    1.434   .     S
C802   O828    1.293   .     A
C804   C845    1.334   .     S
C804   H860    1.087   .     S
C805   C810    1.400   .     A
C805   H819    1.084   .     S
C805   C1059   1.386   1_545 S
C806   C809    1.400   .     A
C806   H820    1.084   .     S
C806   C934    1.386   .     S
C807   O831    1.381   .     S
C807   C809    1.413   .     A
C807   C931    1.386   .     S
C808   O833    1.381   .     S
C808   C810    1.413   .     A
C808   C1058   1.386   1_545 S
C811   O835    1.381   .     S
C811   N822    1.363   .     A
C812   N821    1.363   .     A
C812   O837    1.381   .     S
C812   C58     1.437   1_556 S
C813   N821    1.381   .     A
C813   Cl839   1.764   .     S
C813   C55     1.437   1_556 S
C814   N822    1.381   .     A
C814   Cl840   1.764   .     S
Cu815  O823    1.959   .     S
Cu815  N821    2.026   .     S
Cu815  Cu816   2.696   .     S
Cu815  O827    1.959   .     S
Cu815  O830    1.959   .     S
Cu815  O826    1.957   .     S
Cu816  O824    1.959   .     S
Cu816  N822    2.026   .     S
Cu816  O828    1.959   .     S
Cu816  O829    1.959   .     S
Cu816  O825    1.957   .     S
H817   C845    1.087   .     S
O831   H832    0.989   .     S
O833   H834    0.989   .     S
O835   H836    0.986   .     S
O837   H838    0.986   .     S
C841   O865    1.296   .     A
C841   C852    1.446   .     S
C841   O867    1.294   .     A
C842   C851    1.446   .     S
C842   O866    1.296   .     A
C842   O868    1.294   .     A
C843   O871    1.292   .     A
C843   O869    1.293   .     A
C843   C845    1.434   .     S
C844   O872    1.292   .     A
C844   C846    1.434   .     S
C844   O870    1.293   .     A
C846   C761    1.334   1_655 S
C846   H776    1.087   1_655 S
C847   C852    1.400   .     A
C847   H861    1.084   .     S
C847   C1101   1.386   1_545 S
C848   C851    1.400   .     A
C848   H862    1.084   .     S
C848   C976    1.386   .     S
C849   O873    1.381   .     S
C849   C851    1.413   .     A
C849   C973    1.386   .     S
C850   O875    1.381   .     S
C850   C852    1.413   .     A
C850   C1100   1.386   1_545 S
C853   O877    1.381   .     S
C853   N864    1.363   .     A
C854   N863    1.363   .     A
C854   O879    1.381   .     S
C854   C100    1.437   1_556 S
C855   N863    1.381   .     A
C855   Cl881   1.764   .     S
C855   C97     1.437   1_556 S
C856   N864    1.381   .     A
C856   Cl882   1.764   .     S
Cu857  O865    1.959   .     S
Cu857  N863    2.026   .     S
Cu857  Cu858   2.696   .     S
Cu857  O869    1.959   .     S
Cu857  O872    1.959   .     S
Cu857  O868    1.957   .     S
Cu858  O866    1.959   .     S
Cu858  N864    2.026   .     S
Cu858  O870    1.959   .     S
Cu858  O871    1.959   .     S
Cu858  O867    1.957   .     S
H859   C761    1.087   1_655 S
O873   H874    0.989   .     S
O875   H876    0.989   .     S
O877   H878    0.986   .     S
O879   H880    0.986   .     S
C883   O907    1.296   .     A
C883   C894    1.446   .     S
C883   O909    1.294   .     A
C884   C893    1.446   .     S
C884   O908    1.296   .     A
C884   O910    1.294   .     A
C885   O913    1.292   .     A
C885   O911    1.293   .     A
C885   C887    1.434   .     S
C886   O914    1.292   .     A
C886   C888    1.434   .     S
C886   O912    1.293   .     A
C887   C972    1.334   1_455 S
C887   H985    1.087   1_455 S
C888   C929    1.334   .     S
C888   H944    1.087   .     S
C889   C894    1.400   .     A
C889   H903    1.084   .     S
C890   C893    1.400   .     A
C890   H904    1.084   .     S
C890   C1018   1.386   .     S
C891   O915    1.381   .     S
C891   C893    1.413   .     A
C891   C1015   1.386   .     S
C892   O917    1.381   .     S
C892   C894    1.413   .     A
C895   O919    1.381   .     S
C895   N906    1.363   .     A
C896   N905    1.363   .     A
C896   O921    1.381   .     S
C896   C142    1.437   1_556 S
C897   N905    1.381   .     A
C897   Cl923   1.764   .     S
C897   C139    1.437   1_556 S
C898   N906    1.381   .     A
C898   Cl924   1.764   .     S
Cu899  O907    1.959   .     S
Cu899  N905    2.026   .     S
Cu899  Cu900   2.696   .     S
Cu899  O911    1.959   .     S
Cu899  O914    1.959   .     S
Cu899  O910    1.957   .     S
Cu900  O908    1.959   .     S
Cu900  N906    2.026   .     S
Cu900  O912    1.959   .     S
Cu900  O913    1.959   .     S
Cu900  O909    1.957   .     S
H901   C929    1.087   .     S
H902   C972    1.087   1_455 S
O915   H916    0.989   .     S
O917   H918    0.989   .     S
O919   H920    0.986   .     S
O921   H922    0.986   .     S
C925   O949    1.296   .     A
C925   C936    1.446   .     S
C925   O951    1.294   .     A
C926   C935    1.446   .     S
C926   O950    1.296   .     A
C926   O952    1.294   .     A
C927   O955    1.292   .     A
C927   O953    1.293   .     A
C927   C929    1.434   .     S
C928   O956    1.292   .     A
C928   C930    1.434   .     S
C928   O954    1.293   .     A
C930   C971    1.334   .     S
C930   H986    1.087   .     S
C931   C936    1.400   .     A
C931   H945    1.084   .     S
C932   C935    1.400   .     A
C932   H946    1.084   .     S
C932   C1060   1.386   .     S
C933   O957    1.381   .     S
C933   C935    1.413   .     A
C933   C1057   1.386   .     S
C934   O959    1.381   .     S
C934   C936    1.413   .     A
C937   O961    1.381   .     S
C937   N948    1.363   .     A
C938   N947    1.363   .     A
C938   O963    1.381   .     S
C938   C184    1.437   1_556 S
C939   N947    1.381   .     A
C939   Cl965   1.764   .     S
C939   C181    1.437   1_556 S
C940   N948    1.381   .     A
C940   Cl966   1.764   .     S
Cu941  O949    1.959   .     S
Cu941  N947    2.026   .     S
Cu941  Cu942   2.696   .     S
Cu941  O953    1.959   .     S
Cu941  O956    1.959   .     S
Cu941  O952    1.957   .     S
Cu942  O950    1.959   .     S
Cu942  N948    2.026   .     S
Cu942  O954    1.959   .     S
Cu942  O955    1.959   .     S
Cu942  O951    1.957   .     S
H943   C971    1.087   .     S
O957   H958    0.989   .     S
O959   H960    0.989   .     S
O961   H962    0.986   .     S
O963   H964    0.986   .     S
C967   O991    1.296   .     A
C967   C978    1.446   .     S
C967   O993    1.294   .     A
C968   C977    1.446   .     S
C968   O992    1.296   .     A
C968   O994    1.294   .     A
C969   O997    1.292   .     A
C969   O995    1.293   .     A
C969   C971    1.434   .     S
C970   O998    1.292   .     A
C970   C972    1.434   .     S
C970   O996    1.293   .     A
C972   C887    1.334   1_655 S
C972   H902    1.087   1_655 S
C973   C978    1.400   .     A
C973   H987    1.084   .     S
C974   C977    1.400   .     A
C974   H988    1.084   .     S
C974   C1102   1.386   .     S
C975   O999    1.381   .     S
C975   C977    1.413   .     A
C975   C1099   1.386   .     S
C976   O1001   1.381   .     S
C976   C978    1.413   .     A
C979   O1003   1.381   .     S
C979   N990    1.363   .     A
C980   N989    1.363   .     A
C980   O1005   1.381   .     S
C980   C226    1.437   1_556 S
C981   N989    1.381   .     A
C981   Cl1007  1.764   .     S
C981   C223    1.437   1_556 S
C982   N990    1.381   .     A
C982   Cl1008  1.764   .     S
Cu983  O991    1.959   .     S
Cu983  N989    2.026   .     S
Cu983  Cu984   2.696   .     S
Cu983  O995    1.959   .     S
Cu983  O998    1.959   .     S
Cu983  O994    1.957   .     S
Cu984  O992    1.959   .     S
Cu984  N990    2.026   .     S
Cu984  O996    1.959   .     S
Cu984  O997    1.959   .     S
Cu984  O993    1.957   .     S
H985   C887    1.087   1_655 S
O999   H1000   0.989   .     S
O1001  H1002   0.989   .     S
O1003  H1004   0.986   .     S
O1005  H1006   0.986   .     S
C1009  O1033   1.296   .     A
C1009  C1020   1.446   .     S
C1009  O1035   1.294   .     A
C1010  C1019   1.446   .     S
C1010  O1034   1.296   .     A
C1010  O1036   1.294   .     A
C1011  O1039   1.292   .     A
C1011  O1037   1.293   .     A
C1011  C1013   1.434   .     S
C1012  O1040   1.292   .     A
C1012  C1014   1.434   .     S
C1012  O1038   1.293   .     A
C1013  C1098   1.334   1_455 S
C1013  H1111   1.087   1_455 S
C1014  C1055   1.334   .     S
C1014  H1070   1.087   .     S
C1015  C1020   1.400   .     A
C1015  H1029   1.084   .     S
C1016  C1019   1.400   .     A
C1016  H1030   1.084   .     S
C1016  C766    1.386   1_565 S
C1017  O1041   1.381   .     S
C1017  C1019   1.413   .     A
C1017  C763    1.386   1_565 S
C1018  O1043   1.381   .     S
C1018  C1020   1.413   .     A
C1021  O1045   1.381   .     S
C1021  N1032   1.363   .     A
C1022  N1031   1.363   .     A
C1022  O1047   1.381   .     S
C1022  C268    1.437   1_556 S
C1023  N1031   1.381   .     A
C1023  Cl1049  1.764   .     S
C1023  C265    1.437   1_556 S
C1024  N1032   1.381   .     A
C1024  Cl1050  1.764   .     S
Cu1025 O1033   1.959   .     S
Cu1025 N1031   2.026   .     S
Cu1025 Cu1026  2.696   .     S
Cu1025 O1037   1.959   .     S
Cu1025 O1040   1.959   .     S
Cu1025 O1036   1.957   .     S
Cu1026 O1034   1.959   .     S
Cu1026 N1032   2.026   .     S
Cu1026 O1038   1.959   .     S
Cu1026 O1039   1.959   .     S
Cu1026 O1035   1.957   .     S
H1027  C1055   1.087   .     S
H1028  C1098   1.087   1_455 S
O1041  H1042   0.989   .     S
O1043  H1044   0.989   .     S
O1045  H1046   0.986   .     S
O1047  H1048   0.986   .     S
C1051  O1075   1.296   .     A
C1051  C1062   1.446   .     S
C1051  O1077   1.294   .     A
C1052  C1061   1.446   .     S
C1052  O1076   1.296   .     A
C1052  O1078   1.294   .     A
C1053  O1081   1.292   .     A
C1053  O1079   1.293   .     A
C1053  C1055   1.434   .     S
C1054  O1082   1.292   .     A
C1054  C1056   1.434   .     S
C1054  O1080   1.293   .     A
C1056  C1097   1.334   .     S
C1056  H1112   1.087   .     S
C1057  C1062   1.400   .     A
C1057  H1071   1.084   .     S
C1058  C1061   1.400   .     A
C1058  H1072   1.084   .     S
C1058  C808    1.386   1_565 S
C1059  O1083   1.381   .     S
C1059  C1061   1.413   .     A
C1059  C805    1.386   1_565 S
C1060  O1085   1.381   .     S
C1060  C1062   1.413   .     A
C1063  O1087   1.381   .     S
C1063  N1074   1.363   .     A
C1064  N1073   1.363   .     A
C1064  O1089   1.381   .     S
C1064  C310    1.437   1_556 S
C1065  N1073   1.381   .     A
C1065  Cl1091  1.764   .     S
C1065  C307    1.437   1_556 S
C1066  N1074   1.381   .     A
C1066  Cl1092  1.764   .     S
Cu1067 O1075   1.959   .     S
Cu1067 N1073   2.026   .     S
Cu1067 Cu1068  2.696   .     S
Cu1067 O1079   1.959   .     S
Cu1067 O1082   1.959   .     S
Cu1067 O1078   1.957   .     S
Cu1068 O1076   1.959   .     S
Cu1068 N1074   2.026   .     S
Cu1068 O1080   1.959   .     S
Cu1068 O1081   1.959   .     S
Cu1068 O1077   1.957   .     S
H1069  C1097   1.087   .     S
O1083  H1084   0.989   .     S
O1085  H1086   0.989   .     S
O1087  H1088   0.986   .     S
O1089  H1090   0.986   .     S
C1093  O1117   1.296   .     A
C1093  C1104   1.446   .     S
C1093  O1119   1.294   .     A
C1094  C1103   1.446   .     S
C1094  O1118   1.296   .     A
C1094  O1120   1.294   .     A
C1095  O1123   1.292   .     A
C1095  O1121   1.293   .     A
C1095  C1097   1.434   .     S
C1096  O1124   1.292   .     A
C1096  C1098   1.434   .     S
C1096  O1122   1.293   .     A
C1098  C1013   1.334   1_655 S
C1098  H1028   1.087   1_655 S
C1099  C1104   1.400   .     A
C1099  H1113   1.084   .     S
C1100  C1103   1.400   .     A
C1100  H1114   1.084   .     S
C1100  C850    1.386   1_565 S
C1101  O1125   1.381   .     S
C1101  C1103   1.413   .     A
C1101  C847    1.386   1_565 S
C1102  O1127   1.381   .     S
C1102  C1104   1.413   .     A
C1105  O1129   1.381   .     S
C1105  N1116   1.363   .     A
C1106  N1115   1.363   .     A
C1106  O1131   1.381   .     S
C1106  C352    1.437   1_556 S
C1107  N1115   1.381   .     A
C1107  Cl1133  1.764   .     S
C1107  C349    1.437   1_556 S
C1108  N1116   1.381   .     A
C1108  Cl1134  1.764   .     S
Cu1109 O1117   1.959   .     S
Cu1109 N1115   2.026   .     S
Cu1109 Cu1110  2.696   .     S
Cu1109 O1121   1.959   .     S
Cu1109 O1124   1.959   .     S
Cu1109 O1120   1.957   .     S
Cu1110 O1118   1.959   .     S
Cu1110 N1116   2.026   .     S
Cu1110 O1122   1.959   .     S
Cu1110 O1123   1.959   .     S
Cu1110 O1119   1.957   .     S
H1111  C1013   1.087   1_655 S
O1125  H1126   0.989   .     S
O1127  H1128   0.989   .     S
O1129  H1130   0.986   .     S
O1131  H1132   0.986   .     S
