data_str_m2_o2_o5_pcu_sym.78
_audit_creation_date              2020-01-03
_audit_creation_method            'Materials Studio'
_symmetry_space_group_name_H-M    'P1'
_symmetry_Int_Tables_number       1
_symmetry_cell_setting            triclinic
loop_
_symmetry_equiv_pos_as_xyz
  x,y,z
_cell_length_a                    30.1601
_cell_length_b                    27.8286
_cell_length_c                    27.0903
_cell_angle_alpha                 89.9422
_cell_angle_beta                  91.7070
_cell_angle_gamma                 90.0178
loop_
_atom_site_label
_atom_site_type_symbol
_atom_site_fract_x
_atom_site_fract_y
_atom_site_fract_z
_atom_site_U_iso_or_equiv
_atom_site_adp_type
_atom_site_occupancy
C1     C     0.16489   0.24999   0.16629   0.00000  Uiso   1.00
C2     C     0.28124   0.44597   0.19469   0.00000  Uiso   1.00
C3     C     0.24986   0.25001   0.07357   0.00000  Uiso   1.00
C4     C     0.24995   0.24998   0.25976   0.00000  Uiso   1.00
C5     C     0.24983   0.02738   0.16652   0.00000  Uiso   1.00
C6     C     0.24993   0.47262   0.16637   0.00000  Uiso   1.00
C7     C     0.24978   0.24998   0.02187   0.00000  Uiso   1.00
C8     C     0.24978   0.24994   0.31145   0.00000  Uiso   1.00
C9     C     0.04659   0.29053   0.14766   0.00000  Uiso   1.00
C10    C     0.45091   0.21811   0.13537   0.00000  Uiso   1.00
C11    C     0.45388   0.28407   0.19559   0.00000  Uiso   1.00
C12    C     0.33496   0.25001   0.16704   0.00000  Uiso   1.00
C13    C     0.04707   0.20887   0.18215   0.00000  Uiso   1.00
C14    C     0.09299   0.29077   0.14978   0.00000  Uiso   1.00
C15    C     0.40502   0.21697   0.13770   0.00000  Uiso   1.00
C16    C     0.40705   0.28357   0.19555   0.00000  Uiso   1.00
C17    C     0.09359   0.20894   0.18067   0.00000  Uiso   1.00
C18    C     0.11643   0.24993   0.16558   0.00000  Uiso   1.00
C19    C     0.38312   0.25008   0.16692   0.00000  Uiso   1.00
C20    C     0.02395   0.24984   0.16486   0.00000  Uiso   1.00
C21    C     0.47532   0.25056   0.16540   0.00000  Uiso   1.00
C22    C     0.34755   0.11812   0.23022   0.00000  Uiso   1.00
C23    C     0.27599   0.10476   0.20030   0.00000  Uiso   1.00
C24    C     0.36552   0.09814   0.27950   0.00000  Uiso   1.00
C25    C     0.41324   0.08072   0.27535   0.00000  Uiso   1.00
C26    C     0.19666   0.38134   0.05542   0.00000  Uiso   1.00
C27    C     0.15185   0.39582   0.03219   0.00000  Uiso   1.00
C28    C     0.15595   0.40843   0.31097   0.00000  Uiso   1.00
C29    C     0.15399   0.11962   0.09899   0.00000  Uiso   1.00
C30    C     0.13725   0.10136   0.04856   0.00000  Uiso   1.00
C31    C     0.08720   0.09290   0.04793   0.00000  Uiso   1.00
C32    C     0.30128   0.38125   0.27743   0.00000  Uiso   1.00
C33    C     0.33191   0.35060   0.31056   0.00000  Uiso   1.00
C34    C     0.22101   0.39508   0.13600   0.00000  Uiso   1.00
C35    C     0.32524   0.36086   0.03182   0.00000  Uiso   1.00
C36    C     0.03387   0.34679   0.08602   0.00000  Uiso   1.00
C37    C     0.49810   0.38105   0.06566   0.00000  Uiso   1.00
C38    C     0.45367   0.35574   0.05653   0.00000  Uiso   1.00
C39    C     0.48065   0.20965   0.05907   0.00000  Uiso   1.00
C40    C     0.44836   0.19148   0.01862   0.00000  Uiso   1.00
C41    C     0.45460   0.21797   0.30331   0.00000  Uiso   1.00
C42    C     0.46027   0.35442   0.24568   0.00000  Uiso   1.00
C43    C     0.44810   0.39251   0.20642   0.00000  Uiso   1.00
C44    C     0.42685   0.43647   0.22965   0.00000  Uiso   1.00
C45    C     0.22416   0.10494   0.13269   0.00000  Uiso   1.00
C46    C     0.04198   0.14277   0.23634   0.00000  Uiso   1.00
C47    C     0.06043   0.09468   0.21848   0.00000  Uiso   1.00
C48    C     0.02367   0.06146   0.19878   0.00000  Uiso   1.00
C49    C     0.27907   0.39527   0.19708   0.00000  Uiso   1.00
C50    C     0.27416   0.05402   0.20235   0.00000  Uiso   1.00
C51    C     0.21884   0.44582   0.13789   0.00000  Uiso   1.00
C52    C     0.22562   0.05419   0.13072   0.00000  Uiso   1.00
Cu53   Cu    0.25000   0.29822   0.16667   0.00000  Uiso   1.00
Cu54   Cu    0.25000   0.20178   0.16667   0.00000  Uiso   1.00
H55    H     0.11079   0.32271   0.13908   0.00000  Uiso   1.00
H56    H     0.35472   0.09243   0.19978   0.00000  Uiso   1.00
H57    H     0.36429   0.12668   0.30812   0.00000  Uiso   1.00
H58    H     0.34463   0.06763   0.29141   0.00000  Uiso   1.00
H59    H     0.41470   0.05037   0.24886   0.00000  Uiso   1.00
H60    H     0.42600   0.06814   0.31199   0.00000  Uiso   1.00
H61    H     0.43475   0.11032   0.26252   0.00000  Uiso   1.00
H62    H     0.20826   0.34877   0.03603   0.00000  Uiso   1.00
H63    H     0.22154   0.41015   0.04849   0.00000  Uiso   1.00
H64    H     0.12820   0.36547   0.03553   0.00000  Uiso   1.00
H65    H     0.13856   0.42735   0.05207   0.00000  Uiso   1.00
H66    H     0.38637   0.19119   0.11547   0.00000  Uiso   1.00
H67    H     0.17878   0.43938   0.30663   0.00000  Uiso   1.00
H68    H     0.12284   0.41832   0.29506   0.00000  Uiso   1.00
H69    H     0.16873   0.37714   0.29027   0.00000  Uiso   1.00
H70    H     0.13614   0.15343   0.10700   0.00000  Uiso   1.00
H71    H     0.14505   0.09334   0.12826   0.00000  Uiso   1.00
H72    H     0.14506   0.12824   0.01970   0.00000  Uiso   1.00
H73    H     0.15422   0.06717   0.03966   0.00000  Uiso   1.00
H74    H     0.07863   0.06559   0.07603   0.00000  Uiso   1.00
H75    H     0.07597   0.07970   0.01098   0.00000  Uiso   1.00
H76    H     0.06947   0.12691   0.05574   0.00000  Uiso   1.00
H77    H     0.38847   0.30794   0.21799   0.00000  Uiso   1.00
H78    H     0.26619   0.37375   0.28680   0.00000  Uiso   1.00
H79    H     0.30893   0.41963   0.28540   0.00000  Uiso   1.00
H80    H     0.32580   0.31190   0.30308   0.00000  Uiso   1.00
H81    H     0.36678   0.35873   0.30216   0.00000  Uiso   1.00
H82    H     0.33379   0.39881   0.04050   0.00000  Uiso   1.00
H83    H     0.34699   0.33695   0.05474   0.00000  Uiso   1.00
H84    H     0.29032   0.35414   0.04129   0.00000  Uiso   1.00
H85    H     0.03745   0.31628   0.05973   0.00000  Uiso   1.00
H86    H     0.06545   0.36727   0.08847   0.00000  Uiso   1.00
H87    H     0.49369   0.41106   0.09211   0.00000  Uiso   1.00
H88    H     0.11230   0.17747   0.19187   0.00000  Uiso   1.00
H89    H     0.00913   0.39659   0.03026   0.00000  Uiso   1.00
H90    H     0.45693   0.32742   0.02810   0.00000  Uiso   1.00
H91    H     0.42863   0.38221   0.04293   0.00000  Uiso   1.00
H92    H     0.44183   0.33934   0.09114   0.00000  Uiso   1.00
H93    H     0.01494   0.20022   0.04877   0.00000  Uiso   1.00
H94    H     0.47948   0.24971   0.06082   0.00000  Uiso   1.00
H95    H     0.45389   0.15243   0.01302   0.00000  Uiso   1.00
H96    H     0.41366   0.19680   0.03011   0.00000  Uiso   1.00
H97    H     0.44552   0.25639   0.30729   0.00000  Uiso   1.00
H98    H     0.43280   0.20188   0.27400   0.00000  Uiso   1.00
H99    H     0.29212   0.03634   0.23216   0.00000  Uiso   1.00
H100   H     0.48957   0.21550   0.29189   0.00000  Uiso   1.00
H101   H     0.48476   0.37094   0.27198   0.00000  Uiso   1.00
H102   H     0.43222   0.34411   0.26876   0.00000  Uiso   1.00
H103   H     0.47864   0.40387   0.18763   0.00000  Uiso   1.00
H104   H     0.42462   0.37766   0.17806   0.00000  Uiso   1.00
H105   H     0.39564   0.42620   0.24766   0.00000  Uiso   1.00
H106   H     0.41891   0.46352   0.20056   0.00000  Uiso   1.00
H107   H     0.44996   0.45296   0.25749   0.00000  Uiso   1.00
H108   H     0.01567   0.13521   0.26309   0.00000  Uiso   1.00
H109   H     0.06781   0.16306   0.25795   0.00000  Uiso   1.00
H110   H     0.19272   0.46329   0.11656   0.00000  Uiso   1.00
H111   H     0.08441   0.10081   0.18887   0.00000  Uiso   1.00
H112   H     0.07831   0.07658   0.24975   0.00000  Uiso   1.00
H113   H     0.00021   0.05299   0.22838   0.00000  Uiso   1.00
H114   H     0.03845   0.02734   0.18587   0.00000  Uiso   1.00
H115   H     0.00531   0.07851   0.16722   0.00000  Uiso   1.00
H116   H     0.20783   0.03666   0.10070   0.00000  Uiso   1.00
H117   H     0.30786   0.46367   0.21495   0.00000  Uiso   1.00
H118   H     0.36612   0.15151   0.22201   0.00000  Uiso   1.00
N119   N     0.25000   0.12934   0.16667   0.00000  Uiso   1.00
N120   N     0.25000   0.37066   0.16667   0.00000  Uiso   1.00
O121   O     0.18573   0.29072   0.16667   0.00000  Uiso   1.00
O122   O     0.19149   0.36952   0.10594   0.00000  Uiso   1.00
O123   O     0.19987   0.13053   0.09733   0.00000  Uiso   1.00
O124   O     0.30862   0.36996   0.22735   0.00000  Uiso   1.00
O125   O     0.02241   0.33103   0.13357   0.00000  Uiso   1.00
O126   O     0.47198   0.18650   0.10440   0.00000  Uiso   1.00
O127   O     0.48108   0.31390   0.22514   0.00000  Uiso   1.00
O128   O     0.02255   0.16882   0.19623   0.00000  Uiso   1.00
O129   O     0.31427   0.20928   0.16666   0.00000  Uiso   1.00
O130   O     0.31427   0.29072   0.16666   0.00000  Uiso   1.00
O131   O     0.18573   0.20929   0.16667   0.00000  Uiso   1.00
O132   O     0.25000   0.29071   0.09613   0.00000  Uiso   1.00
O133   O     0.25000   0.20929   0.23720   0.00000  Uiso   1.00
O134   O     0.25000   0.29071   0.23720   0.00000  Uiso   1.00
O135   O     0.25000   0.20929   0.09613   0.00000  Uiso   1.00
O136   O     0.30206   0.13021   0.23417   0.00000  Uiso   1.00
C137   C     0.66489   0.24999   0.16629   0.00000  Uiso   1.00
C138   C     0.78124   0.44597   0.19469   0.00000  Uiso   1.00
C139   C     0.74986   0.25001   0.07357   0.00000  Uiso   1.00
C140   C     0.74995   0.24998   0.25976   0.00000  Uiso   1.00
C141   C     0.74983   0.02738   0.16652   0.00000  Uiso   1.00
C142   C     0.74993   0.47262   0.16637   0.00000  Uiso   1.00
C143   C     0.74978   0.24998   0.02187   0.00000  Uiso   1.00
C144   C     0.74978   0.24994   0.31145   0.00000  Uiso   1.00
C145   C     0.54659   0.29053   0.14766   0.00000  Uiso   1.00
C146   C     0.95091   0.21811   0.13537   0.00000  Uiso   1.00
C147   C     0.95388   0.28407   0.19559   0.00000  Uiso   1.00
C148   C     0.83496   0.25001   0.16704   0.00000  Uiso   1.00
C149   C     0.54707   0.20887   0.18215   0.00000  Uiso   1.00
C150   C     0.59299   0.29077   0.14978   0.00000  Uiso   1.00
C151   C     0.90502   0.21697   0.13770   0.00000  Uiso   1.00
C152   C     0.90705   0.28357   0.19555   0.00000  Uiso   1.00
C153   C     0.59359   0.20894   0.18067   0.00000  Uiso   1.00
C154   C     0.61643   0.24993   0.16558   0.00000  Uiso   1.00
C155   C     0.88312   0.25008   0.16692   0.00000  Uiso   1.00
C156   C     0.52395   0.24984   0.16486   0.00000  Uiso   1.00
C157   C     0.97532   0.25056   0.16540   0.00000  Uiso   1.00
C158   C     0.84755   0.11812   0.23022   0.00000  Uiso   1.00
C159   C     0.77599   0.10476   0.20030   0.00000  Uiso   1.00
C160   C     0.86552   0.09814   0.27950   0.00000  Uiso   1.00
C161   C     0.91324   0.08072   0.27535   0.00000  Uiso   1.00
C162   C     0.69666   0.38134   0.05542   0.00000  Uiso   1.00
C163   C     0.65185   0.39582   0.03219   0.00000  Uiso   1.00
C164   C     0.65595   0.40843   0.31097   0.00000  Uiso   1.00
C165   C     0.65399   0.11962   0.09899   0.00000  Uiso   1.00
C166   C     0.63725   0.10136   0.04856   0.00000  Uiso   1.00
C167   C     0.58720   0.09290   0.04793   0.00000  Uiso   1.00
C168   C     0.80128   0.38125   0.27743   0.00000  Uiso   1.00
C169   C     0.83191   0.35060   0.31056   0.00000  Uiso   1.00
C170   C     0.72101   0.39508   0.13600   0.00000  Uiso   1.00
C171   C     0.82524   0.36086   0.03182   0.00000  Uiso   1.00
C172   C     0.53387   0.34679   0.08602   0.00000  Uiso   1.00
C173   C     0.99810   0.38105   0.06566   0.00000  Uiso   1.00
C174   C     0.95367   0.35574   0.05653   0.00000  Uiso   1.00
C175   C     0.98065   0.20965   0.05907   0.00000  Uiso   1.00
C176   C     0.94836   0.19148   0.01862   0.00000  Uiso   1.00
C177   C     0.95460   0.21797   0.30331   0.00000  Uiso   1.00
C178   C     0.96027   0.35442   0.24568   0.00000  Uiso   1.00
C179   C     0.94810   0.39251   0.20642   0.00000  Uiso   1.00
C180   C     0.92685   0.43647   0.22965   0.00000  Uiso   1.00
C181   C     0.72416   0.10494   0.13269   0.00000  Uiso   1.00
C182   C     0.54198   0.14277   0.23634   0.00000  Uiso   1.00
C183   C     0.56043   0.09468   0.21848   0.00000  Uiso   1.00
C184   C     0.52367   0.06146   0.19878   0.00000  Uiso   1.00
C185   C     0.77907   0.39527   0.19708   0.00000  Uiso   1.00
C186   C     0.77416   0.05402   0.20235   0.00000  Uiso   1.00
C187   C     0.71884   0.44582   0.13789   0.00000  Uiso   1.00
C188   C     0.72562   0.05419   0.13072   0.00000  Uiso   1.00
Cu189  Cu    0.75000   0.29822   0.16667   0.00000  Uiso   1.00
Cu190  Cu    0.75000   0.20178   0.16667   0.00000  Uiso   1.00
H191   H     0.61079   0.32271   0.13908   0.00000  Uiso   1.00
H192   H     0.85472   0.09243   0.19978   0.00000  Uiso   1.00
H193   H     0.86429   0.12668   0.30812   0.00000  Uiso   1.00
H194   H     0.84463   0.06763   0.29141   0.00000  Uiso   1.00
H195   H     0.91470   0.05037   0.24886   0.00000  Uiso   1.00
H196   H     0.92600   0.06814   0.31199   0.00000  Uiso   1.00
H197   H     0.93475   0.11032   0.26252   0.00000  Uiso   1.00
H198   H     0.70826   0.34877   0.03603   0.00000  Uiso   1.00
H199   H     0.72154   0.41015   0.04849   0.00000  Uiso   1.00
H200   H     0.62820   0.36547   0.03553   0.00000  Uiso   1.00
H201   H     0.63856   0.42735   0.05207   0.00000  Uiso   1.00
H202   H     0.88637   0.19119   0.11547   0.00000  Uiso   1.00
H203   H     0.67878   0.43938   0.30663   0.00000  Uiso   1.00
H204   H     0.62284   0.41832   0.29506   0.00000  Uiso   1.00
H205   H     0.66873   0.37714   0.29027   0.00000  Uiso   1.00
H206   H     0.63614   0.15343   0.10700   0.00000  Uiso   1.00
H207   H     0.64505   0.09334   0.12826   0.00000  Uiso   1.00
H208   H     0.64506   0.12824   0.01970   0.00000  Uiso   1.00
H209   H     0.65422   0.06717   0.03966   0.00000  Uiso   1.00
H210   H     0.57863   0.06559   0.07603   0.00000  Uiso   1.00
H211   H     0.57597   0.07970   0.01098   0.00000  Uiso   1.00
H212   H     0.56947   0.12691   0.05574   0.00000  Uiso   1.00
H213   H     0.88847   0.30794   0.21799   0.00000  Uiso   1.00
H214   H     0.76619   0.37375   0.28680   0.00000  Uiso   1.00
H215   H     0.80893   0.41963   0.28540   0.00000  Uiso   1.00
H216   H     0.82580   0.31190   0.30308   0.00000  Uiso   1.00
H217   H     0.86678   0.35873   0.30216   0.00000  Uiso   1.00
H218   H     0.83379   0.39881   0.04050   0.00000  Uiso   1.00
H219   H     0.84699   0.33695   0.05474   0.00000  Uiso   1.00
H220   H     0.79032   0.35414   0.04129   0.00000  Uiso   1.00
H221   H     0.53745   0.31628   0.05973   0.00000  Uiso   1.00
H222   H     0.56545   0.36727   0.08847   0.00000  Uiso   1.00
H223   H     0.99369   0.41106   0.09211   0.00000  Uiso   1.00
H224   H     0.61230   0.17747   0.19187   0.00000  Uiso   1.00
H225   H     0.50913   0.39659   0.03026   0.00000  Uiso   1.00
H226   H     0.95693   0.32742   0.02810   0.00000  Uiso   1.00
H227   H     0.92863   0.38221   0.04293   0.00000  Uiso   1.00
H228   H     0.94183   0.33934   0.09114   0.00000  Uiso   1.00
H229   H     0.51494   0.20022   0.04877   0.00000  Uiso   1.00
H230   H     0.97948   0.24971   0.06082   0.00000  Uiso   1.00
H231   H     0.95389   0.15243   0.01302   0.00000  Uiso   1.00
H232   H     0.91366   0.19680   0.03011   0.00000  Uiso   1.00
H233   H     0.94552   0.25639   0.30729   0.00000  Uiso   1.00
H234   H     0.93280   0.20188   0.27400   0.00000  Uiso   1.00
H235   H     0.79212   0.03634   0.23216   0.00000  Uiso   1.00
H236   H     0.98957   0.21550   0.29189   0.00000  Uiso   1.00
H237   H     0.98476   0.37094   0.27198   0.00000  Uiso   1.00
H238   H     0.93222   0.34411   0.26876   0.00000  Uiso   1.00
H239   H     0.97864   0.40387   0.18763   0.00000  Uiso   1.00
H240   H     0.92462   0.37766   0.17806   0.00000  Uiso   1.00
H241   H     0.89564   0.42620   0.24766   0.00000  Uiso   1.00
H242   H     0.91891   0.46352   0.20056   0.00000  Uiso   1.00
H243   H     0.94996   0.45296   0.25749   0.00000  Uiso   1.00
H244   H     0.51567   0.13521   0.26309   0.00000  Uiso   1.00
H245   H     0.56781   0.16306   0.25795   0.00000  Uiso   1.00
H246   H     0.69272   0.46329   0.11656   0.00000  Uiso   1.00
H247   H     0.58441   0.10081   0.18887   0.00000  Uiso   1.00
H248   H     0.57831   0.07658   0.24975   0.00000  Uiso   1.00
H249   H     0.50021   0.05299   0.22838   0.00000  Uiso   1.00
H250   H     0.53845   0.02734   0.18587   0.00000  Uiso   1.00
H251   H     0.50531   0.07851   0.16722   0.00000  Uiso   1.00
H252   H     0.70783   0.03666   0.10070   0.00000  Uiso   1.00
H253   H     0.80786   0.46367   0.21495   0.00000  Uiso   1.00
H254   H     0.86612   0.15151   0.22201   0.00000  Uiso   1.00
N255   N     0.75000   0.12934   0.16667   0.00000  Uiso   1.00
N256   N     0.75000   0.37066   0.16667   0.00000  Uiso   1.00
O257   O     0.68573   0.29072   0.16667   0.00000  Uiso   1.00
O258   O     0.69149   0.36952   0.10594   0.00000  Uiso   1.00
O259   O     0.69987   0.13053   0.09733   0.00000  Uiso   1.00
O260   O     0.80862   0.36996   0.22735   0.00000  Uiso   1.00
O261   O     0.52241   0.33103   0.13357   0.00000  Uiso   1.00
O262   O     0.97198   0.18650   0.10440   0.00000  Uiso   1.00
O263   O     0.98108   0.31390   0.22514   0.00000  Uiso   1.00
O264   O     0.52255   0.16882   0.19623   0.00000  Uiso   1.00
O265   O     0.81427   0.20928   0.16666   0.00000  Uiso   1.00
O266   O     0.81427   0.29072   0.16666   0.00000  Uiso   1.00
O267   O     0.68573   0.20929   0.16667   0.00000  Uiso   1.00
O268   O     0.75000   0.29071   0.09613   0.00000  Uiso   1.00
O269   O     0.75000   0.20929   0.23720   0.00000  Uiso   1.00
O270   O     0.75000   0.29071   0.23720   0.00000  Uiso   1.00
O271   O     0.75000   0.20929   0.09613   0.00000  Uiso   1.00
O272   O     0.80206   0.13021   0.23417   0.00000  Uiso   1.00
C273   C     0.16489   0.74999   0.16629   0.00000  Uiso   1.00
C274   C     0.28124   0.94597   0.19469   0.00000  Uiso   1.00
C275   C     0.24986   0.75001   0.07357   0.00000  Uiso   1.00
C276   C     0.24995   0.74998   0.25976   0.00000  Uiso   1.00
C277   C     0.24983   0.52738   0.16652   0.00000  Uiso   1.00
C278   C     0.24993   0.97262   0.16637   0.00000  Uiso   1.00
C279   C     0.24978   0.74998   0.02187   0.00000  Uiso   1.00
C280   C     0.24978   0.74994   0.31145   0.00000  Uiso   1.00
C281   C     0.04659   0.79053   0.14766   0.00000  Uiso   1.00
C282   C     0.45091   0.71811   0.13537   0.00000  Uiso   1.00
C283   C     0.45388   0.78407   0.19559   0.00000  Uiso   1.00
C284   C     0.33496   0.75001   0.16704   0.00000  Uiso   1.00
C285   C     0.04707   0.70887   0.18215   0.00000  Uiso   1.00
C286   C     0.09299   0.79077   0.14978   0.00000  Uiso   1.00
C287   C     0.40502   0.71697   0.13770   0.00000  Uiso   1.00
C288   C     0.40705   0.78357   0.19555   0.00000  Uiso   1.00
C289   C     0.09359   0.70894   0.18067   0.00000  Uiso   1.00
C290   C     0.11643   0.74993   0.16558   0.00000  Uiso   1.00
C291   C     0.38312   0.75008   0.16692   0.00000  Uiso   1.00
C292   C     0.02395   0.74984   0.16486   0.00000  Uiso   1.00
C293   C     0.47532   0.75056   0.16540   0.00000  Uiso   1.00
C294   C     0.34755   0.61812   0.23022   0.00000  Uiso   1.00
C295   C     0.27599   0.60476   0.20030   0.00000  Uiso   1.00
C296   C     0.36552   0.59814   0.27950   0.00000  Uiso   1.00
C297   C     0.41324   0.58072   0.27535   0.00000  Uiso   1.00
C298   C     0.19666   0.88134   0.05542   0.00000  Uiso   1.00
C299   C     0.15185   0.89582   0.03219   0.00000  Uiso   1.00
C300   C     0.15595   0.90843   0.31097   0.00000  Uiso   1.00
C301   C     0.15399   0.61962   0.09899   0.00000  Uiso   1.00
C302   C     0.13725   0.60136   0.04856   0.00000  Uiso   1.00
C303   C     0.08720   0.59290   0.04793   0.00000  Uiso   1.00
C304   C     0.30128   0.88125   0.27743   0.00000  Uiso   1.00
C305   C     0.33191   0.85060   0.31056   0.00000  Uiso   1.00
C306   C     0.22101   0.89508   0.13600   0.00000  Uiso   1.00
C307   C     0.32524   0.86086   0.03182   0.00000  Uiso   1.00
C308   C     0.03387   0.84679   0.08602   0.00000  Uiso   1.00
C309   C     0.49810   0.88105   0.06566   0.00000  Uiso   1.00
C310   C     0.45367   0.85574   0.05653   0.00000  Uiso   1.00
C311   C     0.48065   0.70965   0.05907   0.00000  Uiso   1.00
C312   C     0.44836   0.69148   0.01862   0.00000  Uiso   1.00
C313   C     0.45460   0.71797   0.30331   0.00000  Uiso   1.00
C314   C     0.46027   0.85442   0.24568   0.00000  Uiso   1.00
C315   C     0.44810   0.89251   0.20642   0.00000  Uiso   1.00
C316   C     0.42685   0.93647   0.22965   0.00000  Uiso   1.00
C317   C     0.22416   0.60494   0.13269   0.00000  Uiso   1.00
C318   C     0.04198   0.64277   0.23634   0.00000  Uiso   1.00
C319   C     0.06043   0.59468   0.21848   0.00000  Uiso   1.00
C320   C     0.02367   0.56146   0.19878   0.00000  Uiso   1.00
C321   C     0.27907   0.89527   0.19708   0.00000  Uiso   1.00
C322   C     0.27416   0.55402   0.20235   0.00000  Uiso   1.00
C323   C     0.21884   0.94582   0.13789   0.00000  Uiso   1.00
C324   C     0.22562   0.55419   0.13072   0.00000  Uiso   1.00
Cu325  Cu    0.25000   0.79822   0.16667   0.00000  Uiso   1.00
Cu326  Cu    0.25000   0.70178   0.16667   0.00000  Uiso   1.00
H327   H     0.11079   0.82271   0.13908   0.00000  Uiso   1.00
H328   H     0.35472   0.59243   0.19978   0.00000  Uiso   1.00
H329   H     0.36429   0.62668   0.30812   0.00000  Uiso   1.00
H330   H     0.34463   0.56763   0.29141   0.00000  Uiso   1.00
H331   H     0.41470   0.55037   0.24886   0.00000  Uiso   1.00
H332   H     0.42600   0.56814   0.31199   0.00000  Uiso   1.00
H333   H     0.43475   0.61032   0.26252   0.00000  Uiso   1.00
H334   H     0.20826   0.84877   0.03603   0.00000  Uiso   1.00
H335   H     0.22154   0.91015   0.04849   0.00000  Uiso   1.00
H336   H     0.12820   0.86547   0.03553   0.00000  Uiso   1.00
H337   H     0.13856   0.92735   0.05207   0.00000  Uiso   1.00
H338   H     0.38637   0.69119   0.11547   0.00000  Uiso   1.00
H339   H     0.17878   0.93938   0.30663   0.00000  Uiso   1.00
H340   H     0.12284   0.91832   0.29506   0.00000  Uiso   1.00
H341   H     0.16873   0.87714   0.29027   0.00000  Uiso   1.00
H342   H     0.13614   0.65343   0.10700   0.00000  Uiso   1.00
H343   H     0.14505   0.59334   0.12826   0.00000  Uiso   1.00
H344   H     0.14506   0.62824   0.01970   0.00000  Uiso   1.00
H345   H     0.15422   0.56717   0.03966   0.00000  Uiso   1.00
H346   H     0.07863   0.56559   0.07603   0.00000  Uiso   1.00
H347   H     0.07597   0.57970   0.01098   0.00000  Uiso   1.00
H348   H     0.06947   0.62691   0.05574   0.00000  Uiso   1.00
H349   H     0.38847   0.80794   0.21799   0.00000  Uiso   1.00
H350   H     0.26619   0.87375   0.28680   0.00000  Uiso   1.00
H351   H     0.30893   0.91963   0.28540   0.00000  Uiso   1.00
H352   H     0.32580   0.81190   0.30308   0.00000  Uiso   1.00
H353   H     0.36678   0.85873   0.30216   0.00000  Uiso   1.00
H354   H     0.33379   0.89881   0.04050   0.00000  Uiso   1.00
H355   H     0.34699   0.83695   0.05474   0.00000  Uiso   1.00
H356   H     0.29032   0.85414   0.04129   0.00000  Uiso   1.00
H357   H     0.03745   0.81628   0.05973   0.00000  Uiso   1.00
H358   H     0.06545   0.86727   0.08847   0.00000  Uiso   1.00
H359   H     0.49369   0.91106   0.09211   0.00000  Uiso   1.00
H360   H     0.11230   0.67747   0.19187   0.00000  Uiso   1.00
H361   H     0.00913   0.89659   0.03026   0.00000  Uiso   1.00
H362   H     0.45693   0.82742   0.02810   0.00000  Uiso   1.00
H363   H     0.42863   0.88221   0.04293   0.00000  Uiso   1.00
H364   H     0.44183   0.83934   0.09114   0.00000  Uiso   1.00
H365   H     0.01494   0.70022   0.04877   0.00000  Uiso   1.00
H366   H     0.47948   0.74971   0.06082   0.00000  Uiso   1.00
H367   H     0.45389   0.65243   0.01302   0.00000  Uiso   1.00
H368   H     0.41366   0.69680   0.03011   0.00000  Uiso   1.00
H369   H     0.44552   0.75639   0.30729   0.00000  Uiso   1.00
H370   H     0.43280   0.70188   0.27400   0.00000  Uiso   1.00
H371   H     0.29212   0.53634   0.23216   0.00000  Uiso   1.00
H372   H     0.48957   0.71550   0.29189   0.00000  Uiso   1.00
H373   H     0.48476   0.87094   0.27198   0.00000  Uiso   1.00
H374   H     0.43222   0.84411   0.26876   0.00000  Uiso   1.00
H375   H     0.47864   0.90387   0.18763   0.00000  Uiso   1.00
H376   H     0.42462   0.87766   0.17806   0.00000  Uiso   1.00
H377   H     0.39564   0.92620   0.24766   0.00000  Uiso   1.00
H378   H     0.41891   0.96352   0.20056   0.00000  Uiso   1.00
H379   H     0.44996   0.95296   0.25749   0.00000  Uiso   1.00
H380   H     0.01567   0.63521   0.26309   0.00000  Uiso   1.00
H381   H     0.06781   0.66306   0.25795   0.00000  Uiso   1.00
H382   H     0.19272   0.96329   0.11656   0.00000  Uiso   1.00
H383   H     0.08441   0.60081   0.18887   0.00000  Uiso   1.00
H384   H     0.07831   0.57658   0.24975   0.00000  Uiso   1.00
H385   H     0.00021   0.55299   0.22838   0.00000  Uiso   1.00
H386   H     0.03845   0.52734   0.18587   0.00000  Uiso   1.00
H387   H     0.00531   0.57851   0.16722   0.00000  Uiso   1.00
H388   H     0.20783   0.53666   0.10070   0.00000  Uiso   1.00
H389   H     0.30786   0.96367   0.21495   0.00000  Uiso   1.00
H390   H     0.36612   0.65151   0.22201   0.00000  Uiso   1.00
N391   N     0.25000   0.62934   0.16667   0.00000  Uiso   1.00
N392   N     0.25000   0.87066   0.16667   0.00000  Uiso   1.00
O393   O     0.18573   0.79072   0.16667   0.00000  Uiso   1.00
O394   O     0.19149   0.86952   0.10594   0.00000  Uiso   1.00
O395   O     0.19987   0.63053   0.09733   0.00000  Uiso   1.00
O396   O     0.30862   0.86996   0.22735   0.00000  Uiso   1.00
O397   O     0.02241   0.83103   0.13357   0.00000  Uiso   1.00
O398   O     0.47198   0.68650   0.10440   0.00000  Uiso   1.00
O399   O     0.48108   0.81390   0.22514   0.00000  Uiso   1.00
O400   O     0.02255   0.66882   0.19623   0.00000  Uiso   1.00
O401   O     0.31427   0.70928   0.16666   0.00000  Uiso   1.00
O402   O     0.31427   0.79072   0.16666   0.00000  Uiso   1.00
O403   O     0.18573   0.70929   0.16667   0.00000  Uiso   1.00
O404   O     0.25000   0.79071   0.09613   0.00000  Uiso   1.00
O405   O     0.25000   0.70929   0.23720   0.00000  Uiso   1.00
O406   O     0.25000   0.79071   0.23720   0.00000  Uiso   1.00
O407   O     0.25000   0.70929   0.09613   0.00000  Uiso   1.00
O408   O     0.30206   0.63021   0.23417   0.00000  Uiso   1.00
C409   C     0.66489   0.74999   0.16629   0.00000  Uiso   1.00
C410   C     0.78124   0.94597   0.19469   0.00000  Uiso   1.00
C411   C     0.74986   0.75001   0.07357   0.00000  Uiso   1.00
C412   C     0.74995   0.74998   0.25976   0.00000  Uiso   1.00
C413   C     0.74983   0.52738   0.16652   0.00000  Uiso   1.00
C414   C     0.74993   0.97262   0.16637   0.00000  Uiso   1.00
C415   C     0.74978   0.74998   0.02187   0.00000  Uiso   1.00
C416   C     0.74978   0.74994   0.31145   0.00000  Uiso   1.00
C417   C     0.54659   0.79053   0.14766   0.00000  Uiso   1.00
C418   C     0.95091   0.71811   0.13537   0.00000  Uiso   1.00
C419   C     0.95388   0.78407   0.19559   0.00000  Uiso   1.00
C420   C     0.83496   0.75001   0.16704   0.00000  Uiso   1.00
C421   C     0.54707   0.70887   0.18215   0.00000  Uiso   1.00
C422   C     0.59299   0.79077   0.14978   0.00000  Uiso   1.00
C423   C     0.90502   0.71697   0.13770   0.00000  Uiso   1.00
C424   C     0.90705   0.78357   0.19555   0.00000  Uiso   1.00
C425   C     0.59359   0.70894   0.18067   0.00000  Uiso   1.00
C426   C     0.61643   0.74993   0.16558   0.00000  Uiso   1.00
C427   C     0.88312   0.75008   0.16692   0.00000  Uiso   1.00
C428   C     0.52395   0.74984   0.16486   0.00000  Uiso   1.00
C429   C     0.97532   0.75056   0.16540   0.00000  Uiso   1.00
C430   C     0.84755   0.61812   0.23022   0.00000  Uiso   1.00
C431   C     0.77599   0.60476   0.20030   0.00000  Uiso   1.00
C432   C     0.86552   0.59814   0.27950   0.00000  Uiso   1.00
C433   C     0.91324   0.58072   0.27535   0.00000  Uiso   1.00
C434   C     0.69666   0.88134   0.05542   0.00000  Uiso   1.00
C435   C     0.65185   0.89582   0.03219   0.00000  Uiso   1.00
C436   C     0.65595   0.90843   0.31097   0.00000  Uiso   1.00
C437   C     0.65399   0.61962   0.09899   0.00000  Uiso   1.00
C438   C     0.63725   0.60136   0.04856   0.00000  Uiso   1.00
C439   C     0.58720   0.59290   0.04793   0.00000  Uiso   1.00
C440   C     0.80128   0.88125   0.27743   0.00000  Uiso   1.00
C441   C     0.83191   0.85060   0.31056   0.00000  Uiso   1.00
C442   C     0.72101   0.89508   0.13600   0.00000  Uiso   1.00
C443   C     0.82524   0.86086   0.03182   0.00000  Uiso   1.00
C444   C     0.53387   0.84679   0.08602   0.00000  Uiso   1.00
C445   C     0.99810   0.88105   0.06566   0.00000  Uiso   1.00
C446   C     0.95367   0.85574   0.05653   0.00000  Uiso   1.00
C447   C     0.98065   0.70965   0.05907   0.00000  Uiso   1.00
C448   C     0.94836   0.69148   0.01862   0.00000  Uiso   1.00
C449   C     0.95460   0.71797   0.30331   0.00000  Uiso   1.00
C450   C     0.96027   0.85442   0.24568   0.00000  Uiso   1.00
C451   C     0.94810   0.89251   0.20642   0.00000  Uiso   1.00
C452   C     0.92685   0.93647   0.22965   0.00000  Uiso   1.00
C453   C     0.72416   0.60494   0.13269   0.00000  Uiso   1.00
C454   C     0.54198   0.64277   0.23634   0.00000  Uiso   1.00
C455   C     0.56043   0.59468   0.21848   0.00000  Uiso   1.00
C456   C     0.52367   0.56146   0.19878   0.00000  Uiso   1.00
C457   C     0.77907   0.89527   0.19708   0.00000  Uiso   1.00
C458   C     0.77416   0.55402   0.20235   0.00000  Uiso   1.00
C459   C     0.71884   0.94582   0.13789   0.00000  Uiso   1.00
C460   C     0.72562   0.55419   0.13072   0.00000  Uiso   1.00
Cu461  Cu    0.75000   0.79822   0.16667   0.00000  Uiso   1.00
Cu462  Cu    0.75000   0.70178   0.16667   0.00000  Uiso   1.00
H463   H     0.61079   0.82271   0.13908   0.00000  Uiso   1.00
H464   H     0.85472   0.59243   0.19978   0.00000  Uiso   1.00
H465   H     0.86429   0.62668   0.30812   0.00000  Uiso   1.00
H466   H     0.84463   0.56763   0.29141   0.00000  Uiso   1.00
H467   H     0.91470   0.55037   0.24886   0.00000  Uiso   1.00
H468   H     0.92600   0.56814   0.31199   0.00000  Uiso   1.00
H469   H     0.93475   0.61032   0.26252   0.00000  Uiso   1.00
H470   H     0.70826   0.84877   0.03603   0.00000  Uiso   1.00
H471   H     0.72154   0.91015   0.04849   0.00000  Uiso   1.00
H472   H     0.62820   0.86547   0.03553   0.00000  Uiso   1.00
H473   H     0.63856   0.92735   0.05207   0.00000  Uiso   1.00
H474   H     0.88637   0.69119   0.11547   0.00000  Uiso   1.00
H475   H     0.67878   0.93938   0.30663   0.00000  Uiso   1.00
H476   H     0.62284   0.91832   0.29506   0.00000  Uiso   1.00
H477   H     0.66873   0.87714   0.29027   0.00000  Uiso   1.00
H478   H     0.63614   0.65343   0.10700   0.00000  Uiso   1.00
H479   H     0.64505   0.59334   0.12826   0.00000  Uiso   1.00
H480   H     0.64506   0.62824   0.01970   0.00000  Uiso   1.00
H481   H     0.65422   0.56717   0.03966   0.00000  Uiso   1.00
H482   H     0.57863   0.56559   0.07603   0.00000  Uiso   1.00
H483   H     0.57597   0.57970   0.01098   0.00000  Uiso   1.00
H484   H     0.56947   0.62691   0.05574   0.00000  Uiso   1.00
H485   H     0.88847   0.80794   0.21799   0.00000  Uiso   1.00
H486   H     0.76619   0.87375   0.28680   0.00000  Uiso   1.00
H487   H     0.80893   0.91963   0.28540   0.00000  Uiso   1.00
H488   H     0.82580   0.81190   0.30308   0.00000  Uiso   1.00
H489   H     0.86678   0.85873   0.30216   0.00000  Uiso   1.00
H490   H     0.83379   0.89881   0.04050   0.00000  Uiso   1.00
H491   H     0.84699   0.83695   0.05474   0.00000  Uiso   1.00
H492   H     0.79032   0.85414   0.04129   0.00000  Uiso   1.00
H493   H     0.53745   0.81628   0.05973   0.00000  Uiso   1.00
H494   H     0.56545   0.86727   0.08847   0.00000  Uiso   1.00
H495   H     0.99369   0.91106   0.09211   0.00000  Uiso   1.00
H496   H     0.61230   0.67747   0.19187   0.00000  Uiso   1.00
H497   H     0.50913   0.89659   0.03026   0.00000  Uiso   1.00
H498   H     0.95693   0.82742   0.02810   0.00000  Uiso   1.00
H499   H     0.92863   0.88221   0.04293   0.00000  Uiso   1.00
H500   H     0.94183   0.83934   0.09114   0.00000  Uiso   1.00
H501   H     0.51494   0.70022   0.04877   0.00000  Uiso   1.00
H502   H     0.97948   0.74971   0.06082   0.00000  Uiso   1.00
H503   H     0.95389   0.65243   0.01302   0.00000  Uiso   1.00
H504   H     0.91366   0.69680   0.03011   0.00000  Uiso   1.00
H505   H     0.94552   0.75639   0.30729   0.00000  Uiso   1.00
H506   H     0.93280   0.70188   0.27400   0.00000  Uiso   1.00
H507   H     0.79212   0.53634   0.23216   0.00000  Uiso   1.00
H508   H     0.98957   0.71550   0.29189   0.00000  Uiso   1.00
H509   H     0.98476   0.87094   0.27198   0.00000  Uiso   1.00
H510   H     0.93222   0.84411   0.26876   0.00000  Uiso   1.00
H511   H     0.97864   0.90387   0.18763   0.00000  Uiso   1.00
H512   H     0.92462   0.87766   0.17806   0.00000  Uiso   1.00
H513   H     0.89564   0.92620   0.24766   0.00000  Uiso   1.00
H514   H     0.91891   0.96352   0.20056   0.00000  Uiso   1.00
H515   H     0.94996   0.95296   0.25749   0.00000  Uiso   1.00
H516   H     0.51567   0.63521   0.26309   0.00000  Uiso   1.00
H517   H     0.56781   0.66306   0.25795   0.00000  Uiso   1.00
H518   H     0.69272   0.96329   0.11656   0.00000  Uiso   1.00
H519   H     0.58441   0.60081   0.18887   0.00000  Uiso   1.00
H520   H     0.57831   0.57658   0.24975   0.00000  Uiso   1.00
H521   H     0.50021   0.55299   0.22838   0.00000  Uiso   1.00
H522   H     0.53845   0.52734   0.18587   0.00000  Uiso   1.00
H523   H     0.50531   0.57851   0.16722   0.00000  Uiso   1.00
H524   H     0.70783   0.53666   0.10070   0.00000  Uiso   1.00
H525   H     0.80786   0.96367   0.21495   0.00000  Uiso   1.00
H526   H     0.86612   0.65151   0.22201   0.00000  Uiso   1.00
N527   N     0.75000   0.62934   0.16667   0.00000  Uiso   1.00
N528   N     0.75000   0.87066   0.16667   0.00000  Uiso   1.00
O529   O     0.68573   0.79072   0.16667   0.00000  Uiso   1.00
O530   O     0.69149   0.86952   0.10594   0.00000  Uiso   1.00
O531   O     0.69987   0.63053   0.09733   0.00000  Uiso   1.00
O532   O     0.80862   0.86996   0.22735   0.00000  Uiso   1.00
O533   O     0.52241   0.83103   0.13357   0.00000  Uiso   1.00
O534   O     0.97198   0.68650   0.10440   0.00000  Uiso   1.00
O535   O     0.98108   0.81390   0.22514   0.00000  Uiso   1.00
O536   O     0.52255   0.66882   0.19623   0.00000  Uiso   1.00
O537   O     0.81427   0.70928   0.16666   0.00000  Uiso   1.00
O538   O     0.81427   0.79072   0.16666   0.00000  Uiso   1.00
O539   O     0.68573   0.70929   0.16667   0.00000  Uiso   1.00
O540   O     0.75000   0.79071   0.09613   0.00000  Uiso   1.00
O541   O     0.75000   0.70929   0.23720   0.00000  Uiso   1.00
O542   O     0.75000   0.79071   0.23720   0.00000  Uiso   1.00
O543   O     0.75000   0.70929   0.09613   0.00000  Uiso   1.00
O544   O     0.80206   0.63021   0.23417   0.00000  Uiso   1.00
C545   C     0.16489   0.24999   0.49962   0.00000  Uiso   1.00
C546   C     0.28124   0.44597   0.52802   0.00000  Uiso   1.00
C547   C     0.24986   0.25001   0.40690   0.00000  Uiso   1.00
C548   C     0.24995   0.24998   0.59309   0.00000  Uiso   1.00
C549   C     0.24983   0.02738   0.49985   0.00000  Uiso   1.00
C550   C     0.24993   0.47262   0.49970   0.00000  Uiso   1.00
C551   C     0.24978   0.24998   0.35521   0.00000  Uiso   1.00
C552   C     0.24978   0.24994   0.64478   0.00000  Uiso   1.00
C553   C     0.04659   0.29053   0.48099   0.00000  Uiso   1.00
C554   C     0.45091   0.21811   0.46871   0.00000  Uiso   1.00
C555   C     0.45388   0.28407   0.52893   0.00000  Uiso   1.00
C556   C     0.33496   0.25001   0.50038   0.00000  Uiso   1.00
C557   C     0.04707   0.20887   0.51549   0.00000  Uiso   1.00
C558   C     0.09299   0.29077   0.48312   0.00000  Uiso   1.00
C559   C     0.40502   0.21697   0.47104   0.00000  Uiso   1.00
C560   C     0.40705   0.28357   0.52888   0.00000  Uiso   1.00
C561   C     0.09359   0.20894   0.51401   0.00000  Uiso   1.00
C562   C     0.11643   0.24993   0.49891   0.00000  Uiso   1.00
C563   C     0.38312   0.25008   0.50025   0.00000  Uiso   1.00
C564   C     0.02395   0.24984   0.49819   0.00000  Uiso   1.00
C565   C     0.47532   0.25056   0.49874   0.00000  Uiso   1.00
C566   C     0.34755   0.11812   0.56356   0.00000  Uiso   1.00
C567   C     0.27599   0.10476   0.53363   0.00000  Uiso   1.00
C568   C     0.36552   0.09814   0.61283   0.00000  Uiso   1.00
C569   C     0.41324   0.08072   0.60868   0.00000  Uiso   1.00
C570   C     0.19666   0.38134   0.38875   0.00000  Uiso   1.00
C571   C     0.15185   0.39582   0.36552   0.00000  Uiso   1.00
C572   C     0.15595   0.40843   0.64430   0.00000  Uiso   1.00
C573   C     0.15399   0.11962   0.43232   0.00000  Uiso   1.00
C574   C     0.13725   0.10136   0.38190   0.00000  Uiso   1.00
C575   C     0.08720   0.09290   0.38127   0.00000  Uiso   1.00
C576   C     0.30128   0.38125   0.61076   0.00000  Uiso   1.00
C577   C     0.33191   0.35060   0.64389   0.00000  Uiso   1.00
C578   C     0.22101   0.39508   0.46934   0.00000  Uiso   1.00
C579   C     0.32524   0.36086   0.36515   0.00000  Uiso   1.00
C580   C     0.03387   0.34679   0.41935   0.00000  Uiso   1.00
C581   C     0.49810   0.38105   0.39899   0.00000  Uiso   1.00
C582   C     0.45367   0.35574   0.38987   0.00000  Uiso   1.00
C583   C     0.48065   0.20965   0.39240   0.00000  Uiso   1.00
C584   C     0.44836   0.19148   0.35195   0.00000  Uiso   1.00
C585   C     0.45460   0.21797   0.63664   0.00000  Uiso   1.00
C586   C     0.46027   0.35442   0.57901   0.00000  Uiso   1.00
C587   C     0.44810   0.39251   0.53975   0.00000  Uiso   1.00
C588   C     0.42685   0.43647   0.56299   0.00000  Uiso   1.00
C589   C     0.22416   0.10494   0.46603   0.00000  Uiso   1.00
C590   C     0.04198   0.14277   0.56967   0.00000  Uiso   1.00
C591   C     0.06043   0.09468   0.55181   0.00000  Uiso   1.00
C592   C     0.02367   0.06146   0.53212   0.00000  Uiso   1.00
C593   C     0.27907   0.39527   0.53042   0.00000  Uiso   1.00
C594   C     0.27416   0.05402   0.53568   0.00000  Uiso   1.00
C595   C     0.21884   0.44582   0.47122   0.00000  Uiso   1.00
C596   C     0.22562   0.05419   0.46405   0.00000  Uiso   1.00
Cu597  Cu    0.25000   0.29822   0.50000   0.00000  Uiso   1.00
Cu598  Cu    0.25000   0.20178   0.50000   0.00000  Uiso   1.00
H599   H     0.11079   0.32271   0.47242   0.00000  Uiso   1.00
H600   H     0.35472   0.09243   0.53311   0.00000  Uiso   1.00
H601   H     0.36429   0.12668   0.64145   0.00000  Uiso   1.00
H602   H     0.34463   0.06763   0.62475   0.00000  Uiso   1.00
H603   H     0.41470   0.05037   0.58219   0.00000  Uiso   1.00
H604   H     0.42600   0.06814   0.64532   0.00000  Uiso   1.00
H605   H     0.43475   0.11032   0.59585   0.00000  Uiso   1.00
H606   H     0.20826   0.34877   0.36937   0.00000  Uiso   1.00
H607   H     0.22154   0.41015   0.38183   0.00000  Uiso   1.00
H608   H     0.12820   0.36547   0.36886   0.00000  Uiso   1.00
H609   H     0.13856   0.42735   0.38541   0.00000  Uiso   1.00
H610   H     0.38637   0.19119   0.44881   0.00000  Uiso   1.00
H611   H     0.17878   0.43938   0.63996   0.00000  Uiso   1.00
H612   H     0.12284   0.41832   0.62839   0.00000  Uiso   1.00
H613   H     0.16873   0.37714   0.62360   0.00000  Uiso   1.00
H614   H     0.13614   0.15343   0.44033   0.00000  Uiso   1.00
H615   H     0.14505   0.09334   0.46159   0.00000  Uiso   1.00
H616   H     0.14506   0.12824   0.35304   0.00000  Uiso   1.00
H617   H     0.15422   0.06717   0.37299   0.00000  Uiso   1.00
H618   H     0.07863   0.06559   0.40937   0.00000  Uiso   1.00
H619   H     0.07597   0.07970   0.34432   0.00000  Uiso   1.00
H620   H     0.06947   0.12691   0.38908   0.00000  Uiso   1.00
H621   H     0.38847   0.30794   0.55132   0.00000  Uiso   1.00
H622   H     0.26619   0.37375   0.62013   0.00000  Uiso   1.00
H623   H     0.30893   0.41963   0.61874   0.00000  Uiso   1.00
H624   H     0.32580   0.31190   0.63641   0.00000  Uiso   1.00
H625   H     0.36678   0.35873   0.63549   0.00000  Uiso   1.00
H626   H     0.33379   0.39881   0.37384   0.00000  Uiso   1.00
H627   H     0.34699   0.33695   0.38807   0.00000  Uiso   1.00
H628   H     0.29032   0.35414   0.37463   0.00000  Uiso   1.00
H629   H     0.03745   0.31628   0.39306   0.00000  Uiso   1.00
H630   H     0.06545   0.36727   0.42180   0.00000  Uiso   1.00
H631   H     0.49369   0.41106   0.42545   0.00000  Uiso   1.00
H632   H     0.11230   0.17747   0.52520   0.00000  Uiso   1.00
H633   H     0.00913   0.39659   0.36359   0.00000  Uiso   1.00
H634   H     0.45693   0.32742   0.36143   0.00000  Uiso   1.00
H635   H     0.42863   0.38221   0.37627   0.00000  Uiso   1.00
H636   H     0.44183   0.33934   0.42447   0.00000  Uiso   1.00
H637   H     0.01494   0.20022   0.38210   0.00000  Uiso   1.00
H638   H     0.47948   0.24971   0.39416   0.00000  Uiso   1.00
H639   H     0.45389   0.15243   0.34635   0.00000  Uiso   1.00
H640   H     0.41366   0.19680   0.36345   0.00000  Uiso   1.00
H641   H     0.44552   0.25639   0.64063   0.00000  Uiso   1.00
H642   H     0.43280   0.20188   0.60733   0.00000  Uiso   1.00
H643   H     0.29212   0.03634   0.56549   0.00000  Uiso   1.00
H644   H     0.48957   0.21550   0.62522   0.00000  Uiso   1.00
H645   H     0.48476   0.37094   0.60531   0.00000  Uiso   1.00
H646   H     0.43222   0.34411   0.60209   0.00000  Uiso   1.00
H647   H     0.47864   0.40387   0.52096   0.00000  Uiso   1.00
H648   H     0.42462   0.37766   0.51139   0.00000  Uiso   1.00
H649   H     0.39564   0.42620   0.58100   0.00000  Uiso   1.00
H650   H     0.41891   0.46352   0.53389   0.00000  Uiso   1.00
H651   H     0.44996   0.45296   0.59083   0.00000  Uiso   1.00
H652   H     0.01567   0.13521   0.59642   0.00000  Uiso   1.00
H653   H     0.06781   0.16306   0.59128   0.00000  Uiso   1.00
H654   H     0.19272   0.46329   0.44989   0.00000  Uiso   1.00
H655   H     0.08441   0.10081   0.52220   0.00000  Uiso   1.00
H656   H     0.07831   0.07658   0.58308   0.00000  Uiso   1.00
H657   H     0.00021   0.05299   0.56172   0.00000  Uiso   1.00
H658   H     0.03845   0.02734   0.51920   0.00000  Uiso   1.00
H659   H     0.00531   0.07851   0.50055   0.00000  Uiso   1.00
H660   H     0.20783   0.03666   0.43403   0.00000  Uiso   1.00
H661   H     0.30786   0.46367   0.54828   0.00000  Uiso   1.00
H662   H     0.36612   0.15151   0.55535   0.00000  Uiso   1.00
N663   N     0.25000   0.12934   0.50000   0.00000  Uiso   1.00
N664   N     0.25000   0.37066   0.50000   0.00000  Uiso   1.00
O665   O     0.18573   0.29072   0.50000   0.00000  Uiso   1.00
O666   O     0.19149   0.36952   0.43927   0.00000  Uiso   1.00
O667   O     0.19987   0.13053   0.43067   0.00000  Uiso   1.00
O668   O     0.30862   0.36996   0.56068   0.00000  Uiso   1.00
O669   O     0.02241   0.33103   0.46690   0.00000  Uiso   1.00
O670   O     0.47198   0.18650   0.43773   0.00000  Uiso   1.00
O671   O     0.48108   0.31390   0.55847   0.00000  Uiso   1.00
O672   O     0.02255   0.16882   0.52956   0.00000  Uiso   1.00
O673   O     0.31427   0.20928   0.50000   0.00000  Uiso   1.00
O674   O     0.31427   0.29072   0.50000   0.00000  Uiso   1.00
O675   O     0.18573   0.20929   0.50000   0.00000  Uiso   1.00
O676   O     0.25000   0.29071   0.42946   0.00000  Uiso   1.00
O677   O     0.25000   0.20929   0.57054   0.00000  Uiso   1.00
O678   O     0.25000   0.29071   0.57054   0.00000  Uiso   1.00
O679   O     0.25000   0.20929   0.42946   0.00000  Uiso   1.00
O680   O     0.30206   0.13021   0.56751   0.00000  Uiso   1.00
C681   C     0.66489   0.24999   0.49962   0.00000  Uiso   1.00
C682   C     0.78124   0.44597   0.52802   0.00000  Uiso   1.00
C683   C     0.74986   0.25001   0.40690   0.00000  Uiso   1.00
C684   C     0.74995   0.24998   0.59309   0.00000  Uiso   1.00
C685   C     0.74983   0.02738   0.49985   0.00000  Uiso   1.00
C686   C     0.74993   0.47262   0.49970   0.00000  Uiso   1.00
C687   C     0.74978   0.24998   0.35521   0.00000  Uiso   1.00
C688   C     0.74978   0.24994   0.64478   0.00000  Uiso   1.00
C689   C     0.54659   0.29053   0.48099   0.00000  Uiso   1.00
C690   C     0.95091   0.21811   0.46871   0.00000  Uiso   1.00
C691   C     0.95388   0.28407   0.52893   0.00000  Uiso   1.00
C692   C     0.83496   0.25001   0.50038   0.00000  Uiso   1.00
C693   C     0.54707   0.20887   0.51549   0.00000  Uiso   1.00
C694   C     0.59299   0.29077   0.48312   0.00000  Uiso   1.00
C695   C     0.90502   0.21697   0.47104   0.00000  Uiso   1.00
C696   C     0.90705   0.28357   0.52888   0.00000  Uiso   1.00
C697   C     0.59359   0.20894   0.51401   0.00000  Uiso   1.00
C698   C     0.61643   0.24993   0.49891   0.00000  Uiso   1.00
C699   C     0.88312   0.25008   0.50025   0.00000  Uiso   1.00
C700   C     0.52395   0.24984   0.49819   0.00000  Uiso   1.00
C701   C     0.97532   0.25056   0.49874   0.00000  Uiso   1.00
C702   C     0.84755   0.11812   0.56356   0.00000  Uiso   1.00
C703   C     0.77599   0.10476   0.53363   0.00000  Uiso   1.00
C704   C     0.86552   0.09814   0.61283   0.00000  Uiso   1.00
C705   C     0.91324   0.08072   0.60868   0.00000  Uiso   1.00
C706   C     0.69666   0.38134   0.38875   0.00000  Uiso   1.00
C707   C     0.65185   0.39582   0.36552   0.00000  Uiso   1.00
C708   C     0.65595   0.40843   0.64430   0.00000  Uiso   1.00
C709   C     0.65399   0.11962   0.43232   0.00000  Uiso   1.00
C710   C     0.63725   0.10136   0.38190   0.00000  Uiso   1.00
C711   C     0.58720   0.09290   0.38127   0.00000  Uiso   1.00
C712   C     0.80128   0.38125   0.61076   0.00000  Uiso   1.00
C713   C     0.83191   0.35060   0.64389   0.00000  Uiso   1.00
C714   C     0.72101   0.39508   0.46934   0.00000  Uiso   1.00
C715   C     0.82524   0.36086   0.36515   0.00000  Uiso   1.00
C716   C     0.53387   0.34679   0.41935   0.00000  Uiso   1.00
C717   C     0.99810   0.38105   0.39899   0.00000  Uiso   1.00
C718   C     0.95367   0.35574   0.38987   0.00000  Uiso   1.00
C719   C     0.98065   0.20965   0.39240   0.00000  Uiso   1.00
C720   C     0.94836   0.19148   0.35195   0.00000  Uiso   1.00
C721   C     0.95460   0.21797   0.63664   0.00000  Uiso   1.00
C722   C     0.96027   0.35442   0.57901   0.00000  Uiso   1.00
C723   C     0.94810   0.39251   0.53975   0.00000  Uiso   1.00
C724   C     0.92685   0.43647   0.56299   0.00000  Uiso   1.00
C725   C     0.72416   0.10494   0.46603   0.00000  Uiso   1.00
C726   C     0.54198   0.14277   0.56967   0.00000  Uiso   1.00
C727   C     0.56043   0.09468   0.55181   0.00000  Uiso   1.00
C728   C     0.52367   0.06146   0.53212   0.00000  Uiso   1.00
C729   C     0.77907   0.39527   0.53042   0.00000  Uiso   1.00
C730   C     0.77416   0.05402   0.53568   0.00000  Uiso   1.00
C731   C     0.71884   0.44582   0.47122   0.00000  Uiso   1.00
C732   C     0.72562   0.05419   0.46405   0.00000  Uiso   1.00
Cu733  Cu    0.75000   0.29822   0.50000   0.00000  Uiso   1.00
Cu734  Cu    0.75000   0.20178   0.50000   0.00000  Uiso   1.00
H735   H     0.61079   0.32271   0.47242   0.00000  Uiso   1.00
H736   H     0.85472   0.09243   0.53311   0.00000  Uiso   1.00
H737   H     0.86429   0.12668   0.64145   0.00000  Uiso   1.00
H738   H     0.84463   0.06763   0.62475   0.00000  Uiso   1.00
H739   H     0.91470   0.05037   0.58219   0.00000  Uiso   1.00
H740   H     0.92600   0.06814   0.64532   0.00000  Uiso   1.00
H741   H     0.93475   0.11032   0.59585   0.00000  Uiso   1.00
H742   H     0.70826   0.34877   0.36937   0.00000  Uiso   1.00
H743   H     0.72154   0.41015   0.38183   0.00000  Uiso   1.00
H744   H     0.62820   0.36547   0.36886   0.00000  Uiso   1.00
H745   H     0.63856   0.42735   0.38541   0.00000  Uiso   1.00
H746   H     0.88637   0.19119   0.44881   0.00000  Uiso   1.00
H747   H     0.67878   0.43938   0.63996   0.00000  Uiso   1.00
H748   H     0.62284   0.41832   0.62839   0.00000  Uiso   1.00
H749   H     0.66873   0.37714   0.62360   0.00000  Uiso   1.00
H750   H     0.63614   0.15343   0.44033   0.00000  Uiso   1.00
H751   H     0.64505   0.09334   0.46159   0.00000  Uiso   1.00
H752   H     0.64506   0.12824   0.35304   0.00000  Uiso   1.00
H753   H     0.65422   0.06717   0.37299   0.00000  Uiso   1.00
H754   H     0.57863   0.06559   0.40937   0.00000  Uiso   1.00
H755   H     0.57597   0.07970   0.34432   0.00000  Uiso   1.00
H756   H     0.56947   0.12691   0.38908   0.00000  Uiso   1.00
H757   H     0.88847   0.30794   0.55132   0.00000  Uiso   1.00
H758   H     0.76619   0.37375   0.62013   0.00000  Uiso   1.00
H759   H     0.80893   0.41963   0.61874   0.00000  Uiso   1.00
H760   H     0.82580   0.31190   0.63641   0.00000  Uiso   1.00
H761   H     0.86678   0.35873   0.63549   0.00000  Uiso   1.00
H762   H     0.83379   0.39881   0.37384   0.00000  Uiso   1.00
H763   H     0.84699   0.33695   0.38807   0.00000  Uiso   1.00
H764   H     0.79032   0.35414   0.37463   0.00000  Uiso   1.00
H765   H     0.53745   0.31628   0.39306   0.00000  Uiso   1.00
H766   H     0.56545   0.36727   0.42180   0.00000  Uiso   1.00
H767   H     0.99369   0.41106   0.42545   0.00000  Uiso   1.00
H768   H     0.61230   0.17747   0.52520   0.00000  Uiso   1.00
H769   H     0.50913   0.39659   0.36359   0.00000  Uiso   1.00
H770   H     0.95693   0.32742   0.36143   0.00000  Uiso   1.00
H771   H     0.92863   0.38221   0.37627   0.00000  Uiso   1.00
H772   H     0.94183   0.33934   0.42447   0.00000  Uiso   1.00
H773   H     0.51494   0.20022   0.38210   0.00000  Uiso   1.00
H774   H     0.97948   0.24971   0.39416   0.00000  Uiso   1.00
H775   H     0.95389   0.15243   0.34635   0.00000  Uiso   1.00
H776   H     0.91366   0.19680   0.36345   0.00000  Uiso   1.00
H777   H     0.94552   0.25639   0.64063   0.00000  Uiso   1.00
H778   H     0.93280   0.20188   0.60733   0.00000  Uiso   1.00
H779   H     0.79212   0.03634   0.56549   0.00000  Uiso   1.00
H780   H     0.98957   0.21550   0.62522   0.00000  Uiso   1.00
H781   H     0.98476   0.37094   0.60531   0.00000  Uiso   1.00
H782   H     0.93222   0.34411   0.60209   0.00000  Uiso   1.00
H783   H     0.97864   0.40387   0.52096   0.00000  Uiso   1.00
H784   H     0.92462   0.37766   0.51139   0.00000  Uiso   1.00
H785   H     0.89564   0.42620   0.58100   0.00000  Uiso   1.00
H786   H     0.91891   0.46352   0.53389   0.00000  Uiso   1.00
H787   H     0.94996   0.45296   0.59083   0.00000  Uiso   1.00
H788   H     0.51567   0.13521   0.59642   0.00000  Uiso   1.00
H789   H     0.56781   0.16306   0.59128   0.00000  Uiso   1.00
H790   H     0.69272   0.46329   0.44989   0.00000  Uiso   1.00
H791   H     0.58441   0.10081   0.52220   0.00000  Uiso   1.00
H792   H     0.57831   0.07658   0.58308   0.00000  Uiso   1.00
H793   H     0.50021   0.05299   0.56172   0.00000  Uiso   1.00
H794   H     0.53845   0.02734   0.51920   0.00000  Uiso   1.00
H795   H     0.50531   0.07851   0.50055   0.00000  Uiso   1.00
H796   H     0.70783   0.03666   0.43403   0.00000  Uiso   1.00
H797   H     0.80786   0.46367   0.54828   0.00000  Uiso   1.00
H798   H     0.86612   0.15151   0.55535   0.00000  Uiso   1.00
N799   N     0.75000   0.12934   0.50000   0.00000  Uiso   1.00
N800   N     0.75000   0.37066   0.50000   0.00000  Uiso   1.00
O801   O     0.68573   0.29072   0.50000   0.00000  Uiso   1.00
O802   O     0.69149   0.36952   0.43927   0.00000  Uiso   1.00
O803   O     0.69987   0.13053   0.43067   0.00000  Uiso   1.00
O804   O     0.80862   0.36996   0.56068   0.00000  Uiso   1.00
O805   O     0.52241   0.33103   0.46690   0.00000  Uiso   1.00
O806   O     0.97198   0.18650   0.43773   0.00000  Uiso   1.00
O807   O     0.98108   0.31390   0.55847   0.00000  Uiso   1.00
O808   O     0.52255   0.16882   0.52956   0.00000  Uiso   1.00
O809   O     0.81427   0.20928   0.50000   0.00000  Uiso   1.00
O810   O     0.81427   0.29072   0.50000   0.00000  Uiso   1.00
O811   O     0.68573   0.20929   0.50000   0.00000  Uiso   1.00
O812   O     0.75000   0.29071   0.42946   0.00000  Uiso   1.00
O813   O     0.75000   0.20929   0.57054   0.00000  Uiso   1.00
O814   O     0.75000   0.29071   0.57054   0.00000  Uiso   1.00
O815   O     0.75000   0.20929   0.42946   0.00000  Uiso   1.00
O816   O     0.80206   0.13021   0.56751   0.00000  Uiso   1.00
C817   C     0.16489   0.74999   0.49962   0.00000  Uiso   1.00
C818   C     0.28124   0.94597   0.52802   0.00000  Uiso   1.00
C819   C     0.24986   0.75001   0.40690   0.00000  Uiso   1.00
C820   C     0.24995   0.74998   0.59309   0.00000  Uiso   1.00
C821   C     0.24983   0.52738   0.49985   0.00000  Uiso   1.00
C822   C     0.24993   0.97262   0.49970   0.00000  Uiso   1.00
C823   C     0.24978   0.74998   0.35521   0.00000  Uiso   1.00
C824   C     0.24978   0.74994   0.64478   0.00000  Uiso   1.00
C825   C     0.04659   0.79053   0.48099   0.00000  Uiso   1.00
C826   C     0.45091   0.71811   0.46871   0.00000  Uiso   1.00
C827   C     0.45388   0.78407   0.52893   0.00000  Uiso   1.00
C828   C     0.33496   0.75001   0.50038   0.00000  Uiso   1.00
C829   C     0.04707   0.70887   0.51549   0.00000  Uiso   1.00
C830   C     0.09299   0.79077   0.48312   0.00000  Uiso   1.00
C831   C     0.40502   0.71697   0.47104   0.00000  Uiso   1.00
C832   C     0.40705   0.78357   0.52888   0.00000  Uiso   1.00
C833   C     0.09359   0.70894   0.51401   0.00000  Uiso   1.00
C834   C     0.11643   0.74993   0.49891   0.00000  Uiso   1.00
C835   C     0.38312   0.75008   0.50025   0.00000  Uiso   1.00
C836   C     0.02395   0.74984   0.49819   0.00000  Uiso   1.00
C837   C     0.47532   0.75056   0.49874   0.00000  Uiso   1.00
C838   C     0.34755   0.61812   0.56356   0.00000  Uiso   1.00
C839   C     0.27599   0.60476   0.53363   0.00000  Uiso   1.00
C840   C     0.36552   0.59814   0.61283   0.00000  Uiso   1.00
C841   C     0.41324   0.58072   0.60868   0.00000  Uiso   1.00
C842   C     0.19666   0.88134   0.38875   0.00000  Uiso   1.00
C843   C     0.15185   0.89582   0.36552   0.00000  Uiso   1.00
C844   C     0.15595   0.90843   0.64430   0.00000  Uiso   1.00
C845   C     0.15399   0.61962   0.43232   0.00000  Uiso   1.00
C846   C     0.13725   0.60136   0.38190   0.00000  Uiso   1.00
C847   C     0.08720   0.59290   0.38127   0.00000  Uiso   1.00
C848   C     0.30128   0.88125   0.61076   0.00000  Uiso   1.00
C849   C     0.33191   0.85060   0.64389   0.00000  Uiso   1.00
C850   C     0.22101   0.89508   0.46934   0.00000  Uiso   1.00
C851   C     0.32524   0.86086   0.36515   0.00000  Uiso   1.00
C852   C     0.03387   0.84679   0.41935   0.00000  Uiso   1.00
C853   C     0.49810   0.88105   0.39899   0.00000  Uiso   1.00
C854   C     0.45367   0.85574   0.38987   0.00000  Uiso   1.00
C855   C     0.48065   0.70965   0.39240   0.00000  Uiso   1.00
C856   C     0.44836   0.69148   0.35195   0.00000  Uiso   1.00
C857   C     0.45460   0.71797   0.63664   0.00000  Uiso   1.00
C858   C     0.46027   0.85442   0.57901   0.00000  Uiso   1.00
C859   C     0.44810   0.89251   0.53975   0.00000  Uiso   1.00
C860   C     0.42685   0.93647   0.56299   0.00000  Uiso   1.00
C861   C     0.22416   0.60494   0.46603   0.00000  Uiso   1.00
C862   C     0.04198   0.64277   0.56967   0.00000  Uiso   1.00
C863   C     0.06043   0.59468   0.55181   0.00000  Uiso   1.00
C864   C     0.02367   0.56146   0.53212   0.00000  Uiso   1.00
C865   C     0.27907   0.89527   0.53042   0.00000  Uiso   1.00
C866   C     0.27416   0.55402   0.53568   0.00000  Uiso   1.00
C867   C     0.21884   0.94582   0.47122   0.00000  Uiso   1.00
C868   C     0.22562   0.55419   0.46405   0.00000  Uiso   1.00
Cu869  Cu    0.25000   0.79822   0.50000   0.00000  Uiso   1.00
Cu870  Cu    0.25000   0.70178   0.50000   0.00000  Uiso   1.00
H871   H     0.11079   0.82271   0.47242   0.00000  Uiso   1.00
H872   H     0.35472   0.59243   0.53311   0.00000  Uiso   1.00
H873   H     0.36429   0.62668   0.64145   0.00000  Uiso   1.00
H874   H     0.34463   0.56763   0.62475   0.00000  Uiso   1.00
H875   H     0.41470   0.55037   0.58219   0.00000  Uiso   1.00
H876   H     0.42600   0.56814   0.64532   0.00000  Uiso   1.00
H877   H     0.43475   0.61032   0.59585   0.00000  Uiso   1.00
H878   H     0.20826   0.84877   0.36937   0.00000  Uiso   1.00
H879   H     0.22154   0.91015   0.38183   0.00000  Uiso   1.00
H880   H     0.12820   0.86547   0.36886   0.00000  Uiso   1.00
H881   H     0.13856   0.92735   0.38541   0.00000  Uiso   1.00
H882   H     0.38637   0.69119   0.44881   0.00000  Uiso   1.00
H883   H     0.17878   0.93938   0.63996   0.00000  Uiso   1.00
H884   H     0.12284   0.91832   0.62839   0.00000  Uiso   1.00
H885   H     0.16873   0.87714   0.62360   0.00000  Uiso   1.00
H886   H     0.13614   0.65343   0.44033   0.00000  Uiso   1.00
H887   H     0.14505   0.59334   0.46159   0.00000  Uiso   1.00
H888   H     0.14506   0.62824   0.35304   0.00000  Uiso   1.00
H889   H     0.15422   0.56717   0.37299   0.00000  Uiso   1.00
H890   H     0.07863   0.56559   0.40937   0.00000  Uiso   1.00
H891   H     0.07597   0.57970   0.34432   0.00000  Uiso   1.00
H892   H     0.06947   0.62691   0.38908   0.00000  Uiso   1.00
H893   H     0.38847   0.80794   0.55132   0.00000  Uiso   1.00
H894   H     0.26619   0.87375   0.62013   0.00000  Uiso   1.00
H895   H     0.30893   0.91963   0.61874   0.00000  Uiso   1.00
H896   H     0.32580   0.81190   0.63641   0.00000  Uiso   1.00
H897   H     0.36678   0.85873   0.63549   0.00000  Uiso   1.00
H898   H     0.33379   0.89881   0.37384   0.00000  Uiso   1.00
H899   H     0.34699   0.83695   0.38807   0.00000  Uiso   1.00
H900   H     0.29032   0.85414   0.37463   0.00000  Uiso   1.00
H901   H     0.03745   0.81628   0.39306   0.00000  Uiso   1.00
H902   H     0.06545   0.86727   0.42180   0.00000  Uiso   1.00
H903   H     0.49369   0.91106   0.42545   0.00000  Uiso   1.00
H904   H     0.11230   0.67747   0.52520   0.00000  Uiso   1.00
H905   H     0.00913   0.89659   0.36359   0.00000  Uiso   1.00
H906   H     0.45693   0.82742   0.36143   0.00000  Uiso   1.00
H907   H     0.42863   0.88221   0.37627   0.00000  Uiso   1.00
H908   H     0.44183   0.83934   0.42447   0.00000  Uiso   1.00
H909   H     0.01494   0.70022   0.38210   0.00000  Uiso   1.00
H910   H     0.47948   0.74971   0.39416   0.00000  Uiso   1.00
H911   H     0.45389   0.65243   0.34635   0.00000  Uiso   1.00
H912   H     0.41366   0.69680   0.36345   0.00000  Uiso   1.00
H913   H     0.44552   0.75639   0.64063   0.00000  Uiso   1.00
H914   H     0.43280   0.70188   0.60733   0.00000  Uiso   1.00
H915   H     0.29212   0.53634   0.56549   0.00000  Uiso   1.00
H916   H     0.48957   0.71550   0.62522   0.00000  Uiso   1.00
H917   H     0.48476   0.87094   0.60531   0.00000  Uiso   1.00
H918   H     0.43222   0.84411   0.60209   0.00000  Uiso   1.00
H919   H     0.47864   0.90387   0.52096   0.00000  Uiso   1.00
H920   H     0.42462   0.87766   0.51139   0.00000  Uiso   1.00
H921   H     0.39564   0.92620   0.58100   0.00000  Uiso   1.00
H922   H     0.41891   0.96352   0.53389   0.00000  Uiso   1.00
H923   H     0.44996   0.95296   0.59083   0.00000  Uiso   1.00
H924   H     0.01567   0.63521   0.59642   0.00000  Uiso   1.00
H925   H     0.06781   0.66306   0.59128   0.00000  Uiso   1.00
H926   H     0.19272   0.96329   0.44989   0.00000  Uiso   1.00
H927   H     0.08441   0.60081   0.52220   0.00000  Uiso   1.00
H928   H     0.07831   0.57658   0.58308   0.00000  Uiso   1.00
H929   H     0.00021   0.55299   0.56172   0.00000  Uiso   1.00
H930   H     0.03845   0.52734   0.51920   0.00000  Uiso   1.00
H931   H     0.00531   0.57851   0.50055   0.00000  Uiso   1.00
H932   H     0.20783   0.53666   0.43403   0.00000  Uiso   1.00
H933   H     0.30786   0.96367   0.54828   0.00000  Uiso   1.00
H934   H     0.36612   0.65151   0.55535   0.00000  Uiso   1.00
N935   N     0.25000   0.62934   0.50000   0.00000  Uiso   1.00
N936   N     0.25000   0.87066   0.50000   0.00000  Uiso   1.00
O937   O     0.18573   0.79072   0.50000   0.00000  Uiso   1.00
O938   O     0.19149   0.86952   0.43927   0.00000  Uiso   1.00
O939   O     0.19987   0.63053   0.43067   0.00000  Uiso   1.00
O940   O     0.30862   0.86996   0.56068   0.00000  Uiso   1.00
O941   O     0.02241   0.83103   0.46690   0.00000  Uiso   1.00
O942   O     0.47198   0.68650   0.43773   0.00000  Uiso   1.00
O943   O     0.48108   0.81390   0.55847   0.00000  Uiso   1.00
O944   O     0.02255   0.66882   0.52956   0.00000  Uiso   1.00
O945   O     0.31427   0.70928   0.50000   0.00000  Uiso   1.00
O946   O     0.31427   0.79072   0.50000   0.00000  Uiso   1.00
O947   O     0.18573   0.70929   0.50000   0.00000  Uiso   1.00
O948   O     0.25000   0.79071   0.42946   0.00000  Uiso   1.00
O949   O     0.25000   0.70929   0.57054   0.00000  Uiso   1.00
O950   O     0.25000   0.79071   0.57054   0.00000  Uiso   1.00
O951   O     0.25000   0.70929   0.42946   0.00000  Uiso   1.00
O952   O     0.30206   0.63021   0.56751   0.00000  Uiso   1.00
C953   C     0.66489   0.74999   0.49962   0.00000  Uiso   1.00
C954   C     0.78124   0.94597   0.52802   0.00000  Uiso   1.00
C955   C     0.74986   0.75001   0.40690   0.00000  Uiso   1.00
C956   C     0.74995   0.74998   0.59309   0.00000  Uiso   1.00
C957   C     0.74983   0.52738   0.49985   0.00000  Uiso   1.00
C958   C     0.74993   0.97262   0.49970   0.00000  Uiso   1.00
C959   C     0.74978   0.74998   0.35521   0.00000  Uiso   1.00
C960   C     0.74978   0.74994   0.64478   0.00000  Uiso   1.00
C961   C     0.54659   0.79053   0.48099   0.00000  Uiso   1.00
C962   C     0.95091   0.71811   0.46871   0.00000  Uiso   1.00
C963   C     0.95388   0.78407   0.52893   0.00000  Uiso   1.00
C964   C     0.83496   0.75001   0.50038   0.00000  Uiso   1.00
C965   C     0.54707   0.70887   0.51549   0.00000  Uiso   1.00
C966   C     0.59299   0.79077   0.48312   0.00000  Uiso   1.00
C967   C     0.90502   0.71697   0.47104   0.00000  Uiso   1.00
C968   C     0.90705   0.78357   0.52888   0.00000  Uiso   1.00
C969   C     0.59359   0.70894   0.51401   0.00000  Uiso   1.00
C970   C     0.61643   0.74993   0.49891   0.00000  Uiso   1.00
C971   C     0.88312   0.75008   0.50025   0.00000  Uiso   1.00
C972   C     0.52395   0.74984   0.49819   0.00000  Uiso   1.00
C973   C     0.97532   0.75056   0.49874   0.00000  Uiso   1.00
C974   C     0.84755   0.61812   0.56356   0.00000  Uiso   1.00
C975   C     0.77599   0.60476   0.53363   0.00000  Uiso   1.00
C976   C     0.86552   0.59814   0.61283   0.00000  Uiso   1.00
C977   C     0.91324   0.58072   0.60868   0.00000  Uiso   1.00
C978   C     0.69666   0.88134   0.38875   0.00000  Uiso   1.00
C979   C     0.65185   0.89582   0.36552   0.00000  Uiso   1.00
C980   C     0.65595   0.90843   0.64430   0.00000  Uiso   1.00
C981   C     0.65399   0.61962   0.43232   0.00000  Uiso   1.00
C982   C     0.63725   0.60136   0.38190   0.00000  Uiso   1.00
C983   C     0.58720   0.59290   0.38127   0.00000  Uiso   1.00
C984   C     0.80128   0.88125   0.61076   0.00000  Uiso   1.00
C985   C     0.83191   0.85060   0.64389   0.00000  Uiso   1.00
C986   C     0.72101   0.89508   0.46934   0.00000  Uiso   1.00
C987   C     0.82524   0.86086   0.36515   0.00000  Uiso   1.00
C988   C     0.53387   0.84679   0.41935   0.00000  Uiso   1.00
C989   C     0.99810   0.88105   0.39899   0.00000  Uiso   1.00
C990   C     0.95367   0.85574   0.38987   0.00000  Uiso   1.00
C991   C     0.98065   0.70965   0.39240   0.00000  Uiso   1.00
C992   C     0.94836   0.69148   0.35195   0.00000  Uiso   1.00
C993   C     0.95460   0.71797   0.63664   0.00000  Uiso   1.00
C994   C     0.96027   0.85442   0.57901   0.00000  Uiso   1.00
C995   C     0.94810   0.89251   0.53975   0.00000  Uiso   1.00
C996   C     0.92685   0.93647   0.56299   0.00000  Uiso   1.00
C997   C     0.72416   0.60494   0.46603   0.00000  Uiso   1.00
C998   C     0.54198   0.64277   0.56967   0.00000  Uiso   1.00
C999   C     0.56043   0.59468   0.55181   0.00000  Uiso   1.00
C1000  C     0.52367   0.56146   0.53212   0.00000  Uiso   1.00
C1001  C     0.77907   0.89527   0.53042   0.00000  Uiso   1.00
C1002  C     0.77416   0.55402   0.53568   0.00000  Uiso   1.00
C1003  C     0.71884   0.94582   0.47122   0.00000  Uiso   1.00
C1004  C     0.72562   0.55419   0.46405   0.00000  Uiso   1.00
Cu1005 Cu    0.75000   0.79822   0.50000   0.00000  Uiso   1.00
Cu1006 Cu    0.75000   0.70178   0.50000   0.00000  Uiso   1.00
H1007  H     0.61079   0.82271   0.47242   0.00000  Uiso   1.00
H1008  H     0.85472   0.59243   0.53311   0.00000  Uiso   1.00
H1009  H     0.86429   0.62668   0.64145   0.00000  Uiso   1.00
H1010  H     0.84463   0.56763   0.62475   0.00000  Uiso   1.00
H1011  H     0.91470   0.55037   0.58219   0.00000  Uiso   1.00
H1012  H     0.92600   0.56814   0.64532   0.00000  Uiso   1.00
H1013  H     0.93475   0.61032   0.59585   0.00000  Uiso   1.00
H1014  H     0.70826   0.84877   0.36937   0.00000  Uiso   1.00
H1015  H     0.72154   0.91015   0.38183   0.00000  Uiso   1.00
H1016  H     0.62820   0.86547   0.36886   0.00000  Uiso   1.00
H1017  H     0.63856   0.92735   0.38541   0.00000  Uiso   1.00
H1018  H     0.88637   0.69119   0.44881   0.00000  Uiso   1.00
H1019  H     0.67878   0.93938   0.63996   0.00000  Uiso   1.00
H1020  H     0.62284   0.91832   0.62839   0.00000  Uiso   1.00
H1021  H     0.66873   0.87714   0.62360   0.00000  Uiso   1.00
H1022  H     0.63614   0.65343   0.44033   0.00000  Uiso   1.00
H1023  H     0.64505   0.59334   0.46159   0.00000  Uiso   1.00
H1024  H     0.64506   0.62824   0.35304   0.00000  Uiso   1.00
H1025  H     0.65422   0.56717   0.37299   0.00000  Uiso   1.00
H1026  H     0.57863   0.56559   0.40937   0.00000  Uiso   1.00
H1027  H     0.57597   0.57970   0.34432   0.00000  Uiso   1.00
H1028  H     0.56947   0.62691   0.38908   0.00000  Uiso   1.00
H1029  H     0.88847   0.80794   0.55132   0.00000  Uiso   1.00
H1030  H     0.76619   0.87375   0.62013   0.00000  Uiso   1.00
H1031  H     0.80893   0.91963   0.61874   0.00000  Uiso   1.00
H1032  H     0.82580   0.81190   0.63641   0.00000  Uiso   1.00
H1033  H     0.86678   0.85873   0.63549   0.00000  Uiso   1.00
H1034  H     0.83379   0.89881   0.37384   0.00000  Uiso   1.00
H1035  H     0.84699   0.83695   0.38807   0.00000  Uiso   1.00
H1036  H     0.79032   0.85414   0.37463   0.00000  Uiso   1.00
H1037  H     0.53745   0.81628   0.39306   0.00000  Uiso   1.00
H1038  H     0.56545   0.86727   0.42180   0.00000  Uiso   1.00
H1039  H     0.99369   0.91106   0.42545   0.00000  Uiso   1.00
H1040  H     0.61230   0.67747   0.52520   0.00000  Uiso   1.00
H1041  H     0.50913   0.89659   0.36359   0.00000  Uiso   1.00
H1042  H     0.95693   0.82742   0.36143   0.00000  Uiso   1.00
H1043  H     0.92863   0.88221   0.37627   0.00000  Uiso   1.00
H1044  H     0.94183   0.83934   0.42447   0.00000  Uiso   1.00
H1045  H     0.51494   0.70022   0.38210   0.00000  Uiso   1.00
H1046  H     0.97948   0.74971   0.39416   0.00000  Uiso   1.00
H1047  H     0.95389   0.65243   0.34635   0.00000  Uiso   1.00
H1048  H     0.91366   0.69680   0.36345   0.00000  Uiso   1.00
H1049  H     0.94552   0.75639   0.64063   0.00000  Uiso   1.00
H1050  H     0.93280   0.70188   0.60733   0.00000  Uiso   1.00
H1051  H     0.79212   0.53634   0.56549   0.00000  Uiso   1.00
H1052  H     0.98957   0.71550   0.62522   0.00000  Uiso   1.00
H1053  H     0.98476   0.87094   0.60531   0.00000  Uiso   1.00
H1054  H     0.93222   0.84411   0.60209   0.00000  Uiso   1.00
H1055  H     0.97864   0.90387   0.52096   0.00000  Uiso   1.00
H1056  H     0.92462   0.87766   0.51139   0.00000  Uiso   1.00
H1057  H     0.89564   0.92620   0.58100   0.00000  Uiso   1.00
H1058  H     0.91891   0.96352   0.53389   0.00000  Uiso   1.00
H1059  H     0.94996   0.95296   0.59083   0.00000  Uiso   1.00
H1060  H     0.51567   0.63521   0.59642   0.00000  Uiso   1.00
H1061  H     0.56781   0.66306   0.59128   0.00000  Uiso   1.00
H1062  H     0.69272   0.96329   0.44989   0.00000  Uiso   1.00
H1063  H     0.58441   0.60081   0.52220   0.00000  Uiso   1.00
H1064  H     0.57831   0.57658   0.58308   0.00000  Uiso   1.00
H1065  H     0.50021   0.55299   0.56172   0.00000  Uiso   1.00
H1066  H     0.53845   0.52734   0.51920   0.00000  Uiso   1.00
H1067  H     0.50531   0.57851   0.50055   0.00000  Uiso   1.00
H1068  H     0.70783   0.53666   0.43403   0.00000  Uiso   1.00
H1069  H     0.80786   0.96367   0.54828   0.00000  Uiso   1.00
H1070  H     0.86612   0.65151   0.55535   0.00000  Uiso   1.00
N1071  N     0.75000   0.62934   0.50000   0.00000  Uiso   1.00
N1072  N     0.75000   0.87066   0.50000   0.00000  Uiso   1.00
O1073  O     0.68573   0.79072   0.50000   0.00000  Uiso   1.00
O1074  O     0.69149   0.86952   0.43927   0.00000  Uiso   1.00
O1075  O     0.69987   0.63053   0.43067   0.00000  Uiso   1.00
O1076  O     0.80862   0.86996   0.56068   0.00000  Uiso   1.00
O1077  O     0.52241   0.83103   0.46690   0.00000  Uiso   1.00
O1078  O     0.97198   0.68650   0.43773   0.00000  Uiso   1.00
O1079  O     0.98108   0.81390   0.55847   0.00000  Uiso   1.00
O1080  O     0.52255   0.66882   0.52956   0.00000  Uiso   1.00
O1081  O     0.81427   0.70928   0.50000   0.00000  Uiso   1.00
O1082  O     0.81427   0.79072   0.50000   0.00000  Uiso   1.00
O1083  O     0.68573   0.70929   0.50000   0.00000  Uiso   1.00
O1084  O     0.75000   0.79071   0.42946   0.00000  Uiso   1.00
O1085  O     0.75000   0.70929   0.57054   0.00000  Uiso   1.00
O1086  O     0.75000   0.79071   0.57054   0.00000  Uiso   1.00
O1087  O     0.75000   0.70929   0.42946   0.00000  Uiso   1.00
O1088  O     0.80206   0.63021   0.56751   0.00000  Uiso   1.00
C1089  C     0.16489   0.24999   0.83296   0.00000  Uiso   1.00
C1090  C     0.28124   0.44597   0.86136   0.00000  Uiso   1.00
C1091  C     0.24986   0.25001   0.74023   0.00000  Uiso   1.00
C1092  C     0.24995   0.24998   0.92643   0.00000  Uiso   1.00
C1093  C     0.24983   0.02738   0.83318   0.00000  Uiso   1.00
C1094  C     0.24993   0.47262   0.83304   0.00000  Uiso   1.00
C1095  C     0.24978   0.24998   0.68854   0.00000  Uiso   1.00
C1096  C     0.24978   0.24994   0.97812   0.00000  Uiso   1.00
C1097  C     0.04659   0.29053   0.81433   0.00000  Uiso   1.00
C1098  C     0.45091   0.21811   0.80204   0.00000  Uiso   1.00
C1099  C     0.45388   0.28407   0.86226   0.00000  Uiso   1.00
C1100  C     0.33496   0.25001   0.83371   0.00000  Uiso   1.00
C1101  C     0.04707   0.20887   0.84882   0.00000  Uiso   1.00
C1102  C     0.09299   0.29077   0.81645   0.00000  Uiso   1.00
C1103  C     0.40502   0.21697   0.80437   0.00000  Uiso   1.00
C1104  C     0.40705   0.28357   0.86222   0.00000  Uiso   1.00
C1105  C     0.09359   0.20894   0.84734   0.00000  Uiso   1.00
C1106  C     0.11643   0.24993   0.83224   0.00000  Uiso   1.00
C1107  C     0.38312   0.25008   0.83359   0.00000  Uiso   1.00
C1108  C     0.02395   0.24984   0.83153   0.00000  Uiso   1.00
C1109  C     0.47532   0.25056   0.83207   0.00000  Uiso   1.00
C1110  C     0.34755   0.11812   0.89689   0.00000  Uiso   1.00
C1111  C     0.27599   0.10476   0.86697   0.00000  Uiso   1.00
C1112  C     0.36552   0.09814   0.94617   0.00000  Uiso   1.00
C1113  C     0.41324   0.08072   0.94201   0.00000  Uiso   1.00
C1114  C     0.19666   0.38134   0.72208   0.00000  Uiso   1.00
C1115  C     0.15185   0.39582   0.69885   0.00000  Uiso   1.00
C1116  C     0.15595   0.40843   0.97764   0.00000  Uiso   1.00
C1117  C     0.15399   0.11962   0.76566   0.00000  Uiso   1.00
C1118  C     0.13725   0.10136   0.71523   0.00000  Uiso   1.00
C1119  C     0.08720   0.09290   0.71460   0.00000  Uiso   1.00
C1120  C     0.30128   0.38125   0.94410   0.00000  Uiso   1.00
C1121  C     0.33191   0.35060   0.97723   0.00000  Uiso   1.00
C1122  C     0.22101   0.39508   0.80267   0.00000  Uiso   1.00
C1123  C     0.32524   0.36086   0.69849   0.00000  Uiso   1.00
C1124  C     0.03387   0.34679   0.75269   0.00000  Uiso   1.00
C1125  C     0.49810   0.38105   0.73233   0.00000  Uiso   1.00
C1126  C     0.45367   0.35574   0.72320   0.00000  Uiso   1.00
C1127  C     0.48065   0.20965   0.72574   0.00000  Uiso   1.00
C1128  C     0.44836   0.19148   0.68528   0.00000  Uiso   1.00
C1129  C     0.45460   0.21797   0.96997   0.00000  Uiso   1.00
C1130  C     0.46027   0.35442   0.91235   0.00000  Uiso   1.00
C1131  C     0.44810   0.39251   0.87308   0.00000  Uiso   1.00
C1132  C     0.42685   0.43647   0.89632   0.00000  Uiso   1.00
C1133  C     0.22416   0.10494   0.79936   0.00000  Uiso   1.00
C1134  C     0.04198   0.14277   0.90301   0.00000  Uiso   1.00
C1135  C     0.06043   0.09468   0.88515   0.00000  Uiso   1.00
C1136  C     0.02367   0.06146   0.86545   0.00000  Uiso   1.00
C1137  C     0.27907   0.39527   0.86375   0.00000  Uiso   1.00
C1138  C     0.27416   0.05402   0.86902   0.00000  Uiso   1.00
C1139  C     0.21884   0.44582   0.80455   0.00000  Uiso   1.00
C1140  C     0.22562   0.05419   0.79739   0.00000  Uiso   1.00
Cu1141 Cu    0.25000   0.29822   0.83333   0.00000  Uiso   1.00
Cu1142 Cu    0.25000   0.20178   0.83333   0.00000  Uiso   1.00
H1143  H     0.11079   0.32271   0.80575   0.00000  Uiso   1.00
H1144  H     0.35472   0.09243   0.86645   0.00000  Uiso   1.00
H1145  H     0.36429   0.12668   0.97478   0.00000  Uiso   1.00
H1146  H     0.34463   0.06763   0.95808   0.00000  Uiso   1.00
H1147  H     0.41470   0.05037   0.91553   0.00000  Uiso   1.00
H1148  H     0.42600   0.06814   0.97865   0.00000  Uiso   1.00
H1149  H     0.43475   0.11032   0.92918   0.00000  Uiso   1.00
H1150  H     0.20826   0.34877   0.70270   0.00000  Uiso   1.00
H1151  H     0.22154   0.41015   0.71516   0.00000  Uiso   1.00
H1152  H     0.12820   0.36547   0.70219   0.00000  Uiso   1.00
H1153  H     0.13856   0.42735   0.71874   0.00000  Uiso   1.00
H1154  H     0.38637   0.19119   0.78214   0.00000  Uiso   1.00
H1155  H     0.17878   0.43938   0.97329   0.00000  Uiso   1.00
H1156  H     0.12284   0.41832   0.96173   0.00000  Uiso   1.00
H1157  H     0.16873   0.37714   0.95694   0.00000  Uiso   1.00
H1158  H     0.13614   0.15343   0.77367   0.00000  Uiso   1.00
H1159  H     0.14505   0.09334   0.79492   0.00000  Uiso   1.00
H1160  H     0.14506   0.12824   0.68637   0.00000  Uiso   1.00
H1161  H     0.15422   0.06717   0.70633   0.00000  Uiso   1.00
H1162  H     0.07863   0.06559   0.74270   0.00000  Uiso   1.00
H1163  H     0.07597   0.07970   0.67765   0.00000  Uiso   1.00
H1164  H     0.06947   0.12691   0.72241   0.00000  Uiso   1.00
H1165  H     0.38847   0.30794   0.88466   0.00000  Uiso   1.00
H1166  H     0.26619   0.37375   0.95347   0.00000  Uiso   1.00
H1167  H     0.30893   0.41963   0.95207   0.00000  Uiso   1.00
H1168  H     0.32580   0.31190   0.96975   0.00000  Uiso   1.00
H1169  H     0.36678   0.35873   0.96883   0.00000  Uiso   1.00
H1170  H     0.33379   0.39881   0.70717   0.00000  Uiso   1.00
H1171  H     0.34699   0.33695   0.72140   0.00000  Uiso   1.00
H1172  H     0.29032   0.35414   0.70796   0.00000  Uiso   1.00
H1173  H     0.03745   0.31628   0.72640   0.00000  Uiso   1.00
H1174  H     0.06545   0.36727   0.75514   0.00000  Uiso   1.00
H1175  H     0.49369   0.41106   0.75878   0.00000  Uiso   1.00
H1176  H     0.11230   0.17747   0.85853   0.00000  Uiso   1.00
H1177  H     0.00913   0.39659   0.69693   0.00000  Uiso   1.00
H1178  H     0.45693   0.32742   0.69476   0.00000  Uiso   1.00
H1179  H     0.42863   0.38221   0.70960   0.00000  Uiso   1.00
H1180  H     0.44183   0.33934   0.75781   0.00000  Uiso   1.00
H1181  H     0.01494   0.20022   0.71543   0.00000  Uiso   1.00
H1182  H     0.47948   0.24971   0.72749   0.00000  Uiso   1.00
H1183  H     0.45389   0.15243   0.67969   0.00000  Uiso   1.00
H1184  H     0.41366   0.19680   0.69678   0.00000  Uiso   1.00
H1185  H     0.44552   0.25639   0.97396   0.00000  Uiso   1.00
H1186  H     0.43280   0.20188   0.94066   0.00000  Uiso   1.00
H1187  H     0.29212   0.03634   0.89883   0.00000  Uiso   1.00
H1188  H     0.48957   0.21550   0.95856   0.00000  Uiso   1.00
H1189  H     0.48476   0.37094   0.93865   0.00000  Uiso   1.00
H1190  H     0.43222   0.34411   0.93543   0.00000  Uiso   1.00
H1191  H     0.47864   0.40387   0.85429   0.00000  Uiso   1.00
H1192  H     0.42462   0.37766   0.84472   0.00000  Uiso   1.00
H1193  H     0.39564   0.42620   0.91433   0.00000  Uiso   1.00
H1194  H     0.41891   0.46352   0.86723   0.00000  Uiso   1.00
H1195  H     0.44996   0.45296   0.92416   0.00000  Uiso   1.00
H1196  H     0.01567   0.13521   0.92976   0.00000  Uiso   1.00
H1197  H     0.06781   0.16306   0.92462   0.00000  Uiso   1.00
H1198  H     0.19272   0.46329   0.78322   0.00000  Uiso   1.00
H1199  H     0.08441   0.10081   0.85553   0.00000  Uiso   1.00
H1200  H     0.07831   0.07658   0.91642   0.00000  Uiso   1.00
H1201  H     0.00021   0.05299   0.89505   0.00000  Uiso   1.00
H1202  H     0.03845   0.02734   0.85253   0.00000  Uiso   1.00
H1203  H     0.00531   0.07851   0.83389   0.00000  Uiso   1.00
H1204  H     0.20783   0.03666   0.76737   0.00000  Uiso   1.00
H1205  H     0.30786   0.46367   0.88162   0.00000  Uiso   1.00
H1206  H     0.36612   0.15151   0.88868   0.00000  Uiso   1.00
N1207  N     0.25000   0.12934   0.83333   0.00000  Uiso   1.00
N1208  N     0.25000   0.37066   0.83333   0.00000  Uiso   1.00
O1209  O     0.18573   0.29072   0.83334   0.00000  Uiso   1.00
O1210  O     0.19149   0.36952   0.77261   0.00000  Uiso   1.00
O1211  O     0.19987   0.13053   0.76400   0.00000  Uiso   1.00
O1212  O     0.30862   0.36996   0.89402   0.00000  Uiso   1.00
O1213  O     0.02241   0.33103   0.80024   0.00000  Uiso   1.00
O1214  O     0.47198   0.18650   0.77106   0.00000  Uiso   1.00
O1215  O     0.48108   0.31390   0.89180   0.00000  Uiso   1.00
O1216  O     0.02255   0.16882   0.86290   0.00000  Uiso   1.00
O1217  O     0.31427   0.20928   0.83333   0.00000  Uiso   1.00
O1218  O     0.31427   0.29072   0.83333   0.00000  Uiso   1.00
O1219  O     0.18573   0.20929   0.83334   0.00000  Uiso   1.00
O1220  O     0.25000   0.29071   0.76280   0.00000  Uiso   1.00
O1221  O     0.25000   0.20929   0.90387   0.00000  Uiso   1.00
O1222  O     0.25000   0.29071   0.90387   0.00000  Uiso   1.00
O1223  O     0.25000   0.20929   0.76280   0.00000  Uiso   1.00
O1224  O     0.30206   0.13021   0.90084   0.00000  Uiso   1.00
C1225  C     0.66489   0.24999   0.83296   0.00000  Uiso   1.00
C1226  C     0.78124   0.44597   0.86136   0.00000  Uiso   1.00
C1227  C     0.74986   0.25001   0.74023   0.00000  Uiso   1.00
C1228  C     0.74995   0.24998   0.92643   0.00000  Uiso   1.00
C1229  C     0.74983   0.02738   0.83318   0.00000  Uiso   1.00
C1230  C     0.74993   0.47262   0.83304   0.00000  Uiso   1.00
C1231  C     0.74978   0.24998   0.68854   0.00000  Uiso   1.00
C1232  C     0.74978   0.24994   0.97812   0.00000  Uiso   1.00
C1233  C     0.54659   0.29053   0.81433   0.00000  Uiso   1.00
C1234  C     0.95091   0.21811   0.80204   0.00000  Uiso   1.00
C1235  C     0.95388   0.28407   0.86226   0.00000  Uiso   1.00
C1236  C     0.83496   0.25001   0.83371   0.00000  Uiso   1.00
C1237  C     0.54707   0.20887   0.84882   0.00000  Uiso   1.00
C1238  C     0.59299   0.29077   0.81645   0.00000  Uiso   1.00
C1239  C     0.90502   0.21697   0.80437   0.00000  Uiso   1.00
C1240  C     0.90705   0.28357   0.86222   0.00000  Uiso   1.00
C1241  C     0.59359   0.20894   0.84734   0.00000  Uiso   1.00
C1242  C     0.61643   0.24993   0.83224   0.00000  Uiso   1.00
C1243  C     0.88312   0.25008   0.83359   0.00000  Uiso   1.00
C1244  C     0.52395   0.24984   0.83153   0.00000  Uiso   1.00
C1245  C     0.97532   0.25056   0.83207   0.00000  Uiso   1.00
C1246  C     0.84755   0.11812   0.89689   0.00000  Uiso   1.00
C1247  C     0.77599   0.10476   0.86697   0.00000  Uiso   1.00
C1248  C     0.86552   0.09814   0.94617   0.00000  Uiso   1.00
C1249  C     0.91324   0.08072   0.94201   0.00000  Uiso   1.00
C1250  C     0.69666   0.38134   0.72208   0.00000  Uiso   1.00
C1251  C     0.65185   0.39582   0.69885   0.00000  Uiso   1.00
C1252  C     0.65595   0.40843   0.97764   0.00000  Uiso   1.00
C1253  C     0.65399   0.11962   0.76566   0.00000  Uiso   1.00
C1254  C     0.63725   0.10136   0.71523   0.00000  Uiso   1.00
C1255  C     0.58720   0.09290   0.71460   0.00000  Uiso   1.00
C1256  C     0.80128   0.38125   0.94410   0.00000  Uiso   1.00
C1257  C     0.83191   0.35060   0.97723   0.00000  Uiso   1.00
C1258  C     0.72101   0.39508   0.80267   0.00000  Uiso   1.00
C1259  C     0.82524   0.36086   0.69849   0.00000  Uiso   1.00
C1260  C     0.53387   0.34679   0.75269   0.00000  Uiso   1.00
C1261  C     0.99810   0.38105   0.73233   0.00000  Uiso   1.00
C1262  C     0.95367   0.35574   0.72320   0.00000  Uiso   1.00
C1263  C     0.98065   0.20965   0.72574   0.00000  Uiso   1.00
C1264  C     0.94836   0.19148   0.68528   0.00000  Uiso   1.00
C1265  C     0.95460   0.21797   0.96997   0.00000  Uiso   1.00
C1266  C     0.96027   0.35442   0.91235   0.00000  Uiso   1.00
C1267  C     0.94810   0.39251   0.87308   0.00000  Uiso   1.00
C1268  C     0.92685   0.43647   0.89632   0.00000  Uiso   1.00
C1269  C     0.72416   0.10494   0.79936   0.00000  Uiso   1.00
C1270  C     0.54198   0.14277   0.90301   0.00000  Uiso   1.00
C1271  C     0.56043   0.09468   0.88515   0.00000  Uiso   1.00
C1272  C     0.52367   0.06146   0.86545   0.00000  Uiso   1.00
C1273  C     0.77907   0.39527   0.86375   0.00000  Uiso   1.00
C1274  C     0.77416   0.05402   0.86902   0.00000  Uiso   1.00
C1275  C     0.71884   0.44582   0.80455   0.00000  Uiso   1.00
C1276  C     0.72562   0.05419   0.79739   0.00000  Uiso   1.00
Cu1277 Cu    0.75000   0.29822   0.83333   0.00000  Uiso   1.00
Cu1278 Cu    0.75000   0.20178   0.83333   0.00000  Uiso   1.00
H1279  H     0.61079   0.32271   0.80575   0.00000  Uiso   1.00
H1280  H     0.85472   0.09243   0.86645   0.00000  Uiso   1.00
H1281  H     0.86429   0.12668   0.97478   0.00000  Uiso   1.00
H1282  H     0.84463   0.06763   0.95808   0.00000  Uiso   1.00
H1283  H     0.91470   0.05037   0.91553   0.00000  Uiso   1.00
H1284  H     0.92600   0.06814   0.97865   0.00000  Uiso   1.00
H1285  H     0.93475   0.11032   0.92918   0.00000  Uiso   1.00
H1286  H     0.70826   0.34877   0.70270   0.00000  Uiso   1.00
H1287  H     0.72154   0.41015   0.71516   0.00000  Uiso   1.00
H1288  H     0.62820   0.36547   0.70219   0.00000  Uiso   1.00
H1289  H     0.63856   0.42735   0.71874   0.00000  Uiso   1.00
H1290  H     0.88637   0.19119   0.78214   0.00000  Uiso   1.00
H1291  H     0.67878   0.43938   0.97329   0.00000  Uiso   1.00
H1292  H     0.62284   0.41832   0.96173   0.00000  Uiso   1.00
H1293  H     0.66873   0.37714   0.95694   0.00000  Uiso   1.00
H1294  H     0.63614   0.15343   0.77367   0.00000  Uiso   1.00
H1295  H     0.64505   0.09334   0.79492   0.00000  Uiso   1.00
H1296  H     0.64506   0.12824   0.68637   0.00000  Uiso   1.00
H1297  H     0.65422   0.06717   0.70633   0.00000  Uiso   1.00
H1298  H     0.57863   0.06559   0.74270   0.00000  Uiso   1.00
H1299  H     0.57597   0.07970   0.67765   0.00000  Uiso   1.00
H1300  H     0.56947   0.12691   0.72241   0.00000  Uiso   1.00
H1301  H     0.88847   0.30794   0.88466   0.00000  Uiso   1.00
H1302  H     0.76619   0.37375   0.95347   0.00000  Uiso   1.00
H1303  H     0.80893   0.41963   0.95207   0.00000  Uiso   1.00
H1304  H     0.82580   0.31190   0.96975   0.00000  Uiso   1.00
H1305  H     0.86678   0.35873   0.96883   0.00000  Uiso   1.00
H1306  H     0.83379   0.39881   0.70717   0.00000  Uiso   1.00
H1307  H     0.84699   0.33695   0.72140   0.00000  Uiso   1.00
H1308  H     0.79032   0.35414   0.70796   0.00000  Uiso   1.00
H1309  H     0.53745   0.31628   0.72640   0.00000  Uiso   1.00
H1310  H     0.56545   0.36727   0.75514   0.00000  Uiso   1.00
H1311  H     0.99369   0.41106   0.75878   0.00000  Uiso   1.00
H1312  H     0.61230   0.17747   0.85853   0.00000  Uiso   1.00
H1313  H     0.50913   0.39659   0.69693   0.00000  Uiso   1.00
H1314  H     0.95693   0.32742   0.69476   0.00000  Uiso   1.00
H1315  H     0.92863   0.38221   0.70960   0.00000  Uiso   1.00
H1316  H     0.94183   0.33934   0.75781   0.00000  Uiso   1.00
H1317  H     0.51494   0.20022   0.71543   0.00000  Uiso   1.00
H1318  H     0.97948   0.24971   0.72749   0.00000  Uiso   1.00
H1319  H     0.95389   0.15243   0.67969   0.00000  Uiso   1.00
H1320  H     0.91366   0.19680   0.69678   0.00000  Uiso   1.00
H1321  H     0.94552   0.25639   0.97396   0.00000  Uiso   1.00
H1322  H     0.93280   0.20188   0.94066   0.00000  Uiso   1.00
H1323  H     0.79212   0.03634   0.89883   0.00000  Uiso   1.00
H1324  H     0.98957   0.21550   0.95856   0.00000  Uiso   1.00
H1325  H     0.98476   0.37094   0.93865   0.00000  Uiso   1.00
H1326  H     0.93222   0.34411   0.93543   0.00000  Uiso   1.00
H1327  H     0.97864   0.40387   0.85429   0.00000  Uiso   1.00
H1328  H     0.92462   0.37766   0.84472   0.00000  Uiso   1.00
H1329  H     0.89564   0.42620   0.91433   0.00000  Uiso   1.00
H1330  H     0.91891   0.46352   0.86723   0.00000  Uiso   1.00
H1331  H     0.94996   0.45296   0.92416   0.00000  Uiso   1.00
H1332  H     0.51567   0.13521   0.92976   0.00000  Uiso   1.00
H1333  H     0.56781   0.16306   0.92462   0.00000  Uiso   1.00
H1334  H     0.69272   0.46329   0.78322   0.00000  Uiso   1.00
H1335  H     0.58441   0.10081   0.85553   0.00000  Uiso   1.00
H1336  H     0.57831   0.07658   0.91642   0.00000  Uiso   1.00
H1337  H     0.50021   0.05299   0.89505   0.00000  Uiso   1.00
H1338  H     0.53845   0.02734   0.85253   0.00000  Uiso   1.00
H1339  H     0.50531   0.07851   0.83389   0.00000  Uiso   1.00
H1340  H     0.70783   0.03666   0.76737   0.00000  Uiso   1.00
H1341  H     0.80786   0.46367   0.88162   0.00000  Uiso   1.00
H1342  H     0.86612   0.15151   0.88868   0.00000  Uiso   1.00
N1343  N     0.75000   0.12934   0.83333   0.00000  Uiso   1.00
N1344  N     0.75000   0.37066   0.83333   0.00000  Uiso   1.00
O1345  O     0.68573   0.29072   0.83334   0.00000  Uiso   1.00
O1346  O     0.69149   0.36952   0.77261   0.00000  Uiso   1.00
O1347  O     0.69987   0.13053   0.76400   0.00000  Uiso   1.00
O1348  O     0.80862   0.36996   0.89402   0.00000  Uiso   1.00
O1349  O     0.52241   0.33103   0.80024   0.00000  Uiso   1.00
O1350  O     0.97198   0.18650   0.77106   0.00000  Uiso   1.00
O1351  O     0.98108   0.31390   0.89180   0.00000  Uiso   1.00
O1352  O     0.52255   0.16882   0.86290   0.00000  Uiso   1.00
O1353  O     0.81427   0.20928   0.83333   0.00000  Uiso   1.00
O1354  O     0.81427   0.29072   0.83333   0.00000  Uiso   1.00
O1355  O     0.68573   0.20929   0.83334   0.00000  Uiso   1.00
O1356  O     0.75000   0.29071   0.76280   0.00000  Uiso   1.00
O1357  O     0.75000   0.20929   0.90387   0.00000  Uiso   1.00
O1358  O     0.75000   0.29071   0.90387   0.00000  Uiso   1.00
O1359  O     0.75000   0.20929   0.76280   0.00000  Uiso   1.00
O1360  O     0.80206   0.13021   0.90084   0.00000  Uiso   1.00
C1361  C     0.16489   0.74999   0.83296   0.00000  Uiso   1.00
C1362  C     0.28124   0.94597   0.86136   0.00000  Uiso   1.00
C1363  C     0.24986   0.75001   0.74023   0.00000  Uiso   1.00
C1364  C     0.24995   0.74998   0.92643   0.00000  Uiso   1.00
C1365  C     0.24983   0.52738   0.83318   0.00000  Uiso   1.00
C1366  C     0.24993   0.97262   0.83304   0.00000  Uiso   1.00
C1367  C     0.24978   0.74998   0.68854   0.00000  Uiso   1.00
C1368  C     0.24978   0.74994   0.97812   0.00000  Uiso   1.00
C1369  C     0.04659   0.79053   0.81433   0.00000  Uiso   1.00
C1370  C     0.45091   0.71811   0.80204   0.00000  Uiso   1.00
C1371  C     0.45388   0.78407   0.86226   0.00000  Uiso   1.00
C1372  C     0.33496   0.75001   0.83371   0.00000  Uiso   1.00
C1373  C     0.04707   0.70887   0.84882   0.00000  Uiso   1.00
C1374  C     0.09299   0.79077   0.81645   0.00000  Uiso   1.00
C1375  C     0.40502   0.71697   0.80437   0.00000  Uiso   1.00
C1376  C     0.40705   0.78357   0.86222   0.00000  Uiso   1.00
C1377  C     0.09359   0.70894   0.84734   0.00000  Uiso   1.00
C1378  C     0.11643   0.74993   0.83224   0.00000  Uiso   1.00
C1379  C     0.38312   0.75008   0.83359   0.00000  Uiso   1.00
C1380  C     0.02395   0.74984   0.83153   0.00000  Uiso   1.00
C1381  C     0.47532   0.75056   0.83207   0.00000  Uiso   1.00
C1382  C     0.34755   0.61812   0.89689   0.00000  Uiso   1.00
C1383  C     0.27599   0.60476   0.86697   0.00000  Uiso   1.00
C1384  C     0.36552   0.59814   0.94617   0.00000  Uiso   1.00
C1385  C     0.41324   0.58072   0.94201   0.00000  Uiso   1.00
C1386  C     0.19666   0.88134   0.72208   0.00000  Uiso   1.00
C1387  C     0.15185   0.89582   0.69885   0.00000  Uiso   1.00
C1388  C     0.15595   0.90843   0.97764   0.00000  Uiso   1.00
C1389  C     0.15399   0.61962   0.76566   0.00000  Uiso   1.00
C1390  C     0.13725   0.60136   0.71523   0.00000  Uiso   1.00
C1391  C     0.08720   0.59290   0.71460   0.00000  Uiso   1.00
C1392  C     0.30128   0.88125   0.94410   0.00000  Uiso   1.00
C1393  C     0.33191   0.85060   0.97723   0.00000  Uiso   1.00
C1394  C     0.22101   0.89508   0.80267   0.00000  Uiso   1.00
C1395  C     0.32524   0.86086   0.69849   0.00000  Uiso   1.00
C1396  C     0.03387   0.84679   0.75269   0.00000  Uiso   1.00
C1397  C     0.49810   0.88105   0.73233   0.00000  Uiso   1.00
C1398  C     0.45367   0.85574   0.72320   0.00000  Uiso   1.00
C1399  C     0.48065   0.70965   0.72574   0.00000  Uiso   1.00
C1400  C     0.44836   0.69148   0.68528   0.00000  Uiso   1.00
C1401  C     0.45460   0.71797   0.96997   0.00000  Uiso   1.00
C1402  C     0.46027   0.85442   0.91235   0.00000  Uiso   1.00
C1403  C     0.44810   0.89251   0.87308   0.00000  Uiso   1.00
C1404  C     0.42685   0.93647   0.89632   0.00000  Uiso   1.00
C1405  C     0.22416   0.60494   0.79936   0.00000  Uiso   1.00
C1406  C     0.04198   0.64277   0.90301   0.00000  Uiso   1.00
C1407  C     0.06043   0.59468   0.88515   0.00000  Uiso   1.00
C1408  C     0.02367   0.56146   0.86545   0.00000  Uiso   1.00
C1409  C     0.27907   0.89527   0.86375   0.00000  Uiso   1.00
C1410  C     0.27416   0.55402   0.86902   0.00000  Uiso   1.00
C1411  C     0.21884   0.94582   0.80455   0.00000  Uiso   1.00
C1412  C     0.22562   0.55419   0.79739   0.00000  Uiso   1.00
Cu1413 Cu    0.25000   0.79822   0.83333   0.00000  Uiso   1.00
Cu1414 Cu    0.25000   0.70178   0.83333   0.00000  Uiso   1.00
H1415  H     0.11079   0.82271   0.80575   0.00000  Uiso   1.00
H1416  H     0.35472   0.59243   0.86645   0.00000  Uiso   1.00
H1417  H     0.36429   0.62668   0.97478   0.00000  Uiso   1.00
H1418  H     0.34463   0.56763   0.95808   0.00000  Uiso   1.00
H1419  H     0.41470   0.55037   0.91553   0.00000  Uiso   1.00
H1420  H     0.42600   0.56814   0.97865   0.00000  Uiso   1.00
H1421  H     0.43475   0.61032   0.92918   0.00000  Uiso   1.00
H1422  H     0.20826   0.84877   0.70270   0.00000  Uiso   1.00
H1423  H     0.22154   0.91015   0.71516   0.00000  Uiso   1.00
H1424  H     0.12820   0.86547   0.70219   0.00000  Uiso   1.00
H1425  H     0.13856   0.92735   0.71874   0.00000  Uiso   1.00
H1426  H     0.38637   0.69119   0.78214   0.00000  Uiso   1.00
H1427  H     0.17878   0.93938   0.97329   0.00000  Uiso   1.00
H1428  H     0.12284   0.91832   0.96173   0.00000  Uiso   1.00
H1429  H     0.16873   0.87714   0.95694   0.00000  Uiso   1.00
H1430  H     0.13614   0.65343   0.77367   0.00000  Uiso   1.00
H1431  H     0.14505   0.59334   0.79492   0.00000  Uiso   1.00
H1432  H     0.14506   0.62824   0.68637   0.00000  Uiso   1.00
H1433  H     0.15422   0.56717   0.70633   0.00000  Uiso   1.00
H1434  H     0.07863   0.56559   0.74270   0.00000  Uiso   1.00
H1435  H     0.07597   0.57970   0.67765   0.00000  Uiso   1.00
H1436  H     0.06947   0.62691   0.72241   0.00000  Uiso   1.00
H1437  H     0.38847   0.80794   0.88466   0.00000  Uiso   1.00
H1438  H     0.26619   0.87375   0.95347   0.00000  Uiso   1.00
H1439  H     0.30893   0.91963   0.95207   0.00000  Uiso   1.00
H1440  H     0.32580   0.81190   0.96975   0.00000  Uiso   1.00
H1441  H     0.36678   0.85873   0.96883   0.00000  Uiso   1.00
H1442  H     0.33379   0.89881   0.70717   0.00000  Uiso   1.00
H1443  H     0.34699   0.83695   0.72140   0.00000  Uiso   1.00
H1444  H     0.29032   0.85414   0.70796   0.00000  Uiso   1.00
H1445  H     0.03745   0.81628   0.72640   0.00000  Uiso   1.00
H1446  H     0.06545   0.86727   0.75514   0.00000  Uiso   1.00
H1447  H     0.49369   0.91106   0.75878   0.00000  Uiso   1.00
H1448  H     0.11230   0.67747   0.85853   0.00000  Uiso   1.00
H1449  H     0.00913   0.89659   0.69693   0.00000  Uiso   1.00
H1450  H     0.45693   0.82742   0.69476   0.00000  Uiso   1.00
H1451  H     0.42863   0.88221   0.70960   0.00000  Uiso   1.00
H1452  H     0.44183   0.83934   0.75781   0.00000  Uiso   1.00
H1453  H     0.01494   0.70022   0.71543   0.00000  Uiso   1.00
H1454  H     0.47948   0.74971   0.72749   0.00000  Uiso   1.00
H1455  H     0.45389   0.65243   0.67969   0.00000  Uiso   1.00
H1456  H     0.41366   0.69680   0.69678   0.00000  Uiso   1.00
H1457  H     0.44552   0.75639   0.97396   0.00000  Uiso   1.00
H1458  H     0.43280   0.70188   0.94066   0.00000  Uiso   1.00
H1459  H     0.29212   0.53634   0.89883   0.00000  Uiso   1.00
H1460  H     0.48957   0.71550   0.95856   0.00000  Uiso   1.00
H1461  H     0.48476   0.87094   0.93865   0.00000  Uiso   1.00
H1462  H     0.43222   0.84411   0.93543   0.00000  Uiso   1.00
H1463  H     0.47864   0.90387   0.85429   0.00000  Uiso   1.00
H1464  H     0.42462   0.87766   0.84472   0.00000  Uiso   1.00
H1465  H     0.39564   0.92620   0.91433   0.00000  Uiso   1.00
H1466  H     0.41891   0.96352   0.86723   0.00000  Uiso   1.00
H1467  H     0.44996   0.95296   0.92416   0.00000  Uiso   1.00
H1468  H     0.01567   0.63521   0.92976   0.00000  Uiso   1.00
H1469  H     0.06781   0.66306   0.92462   0.00000  Uiso   1.00
H1470  H     0.19272   0.96329   0.78322   0.00000  Uiso   1.00
H1471  H     0.08441   0.60081   0.85553   0.00000  Uiso   1.00
H1472  H     0.07831   0.57658   0.91642   0.00000  Uiso   1.00
H1473  H     0.00021   0.55299   0.89505   0.00000  Uiso   1.00
H1474  H     0.03845   0.52734   0.85253   0.00000  Uiso   1.00
H1475  H     0.00531   0.57851   0.83389   0.00000  Uiso   1.00
H1476  H     0.20783   0.53666   0.76737   0.00000  Uiso   1.00
H1477  H     0.30786   0.96367   0.88162   0.00000  Uiso   1.00
H1478  H     0.36612   0.65151   0.88868   0.00000  Uiso   1.00
N1479  N     0.25000   0.62934   0.83333   0.00000  Uiso   1.00
N1480  N     0.25000   0.87066   0.83333   0.00000  Uiso   1.00
O1481  O     0.18573   0.79072   0.83334   0.00000  Uiso   1.00
O1482  O     0.19149   0.86952   0.77261   0.00000  Uiso   1.00
O1483  O     0.19987   0.63053   0.76400   0.00000  Uiso   1.00
O1484  O     0.30862   0.86996   0.89402   0.00000  Uiso   1.00
O1485  O     0.02241   0.83103   0.80024   0.00000  Uiso   1.00
O1486  O     0.47198   0.68650   0.77106   0.00000  Uiso   1.00
O1487  O     0.48108   0.81390   0.89180   0.00000  Uiso   1.00
O1488  O     0.02255   0.66882   0.86290   0.00000  Uiso   1.00
O1489  O     0.31427   0.70928   0.83333   0.00000  Uiso   1.00
O1490  O     0.31427   0.79072   0.83333   0.00000  Uiso   1.00
O1491  O     0.18573   0.70929   0.83334   0.00000  Uiso   1.00
O1492  O     0.25000   0.79071   0.76280   0.00000  Uiso   1.00
O1493  O     0.25000   0.70929   0.90387   0.00000  Uiso   1.00
O1494  O     0.25000   0.79071   0.90387   0.00000  Uiso   1.00
O1495  O     0.25000   0.70929   0.76280   0.00000  Uiso   1.00
O1496  O     0.30206   0.63021   0.90084   0.00000  Uiso   1.00
C1497  C     0.66489   0.74999   0.83296   0.00000  Uiso   1.00
C1498  C     0.78124   0.94597   0.86136   0.00000  Uiso   1.00
C1499  C     0.74986   0.75001   0.74023   0.00000  Uiso   1.00
C1500  C     0.74995   0.74998   0.92643   0.00000  Uiso   1.00
C1501  C     0.74983   0.52738   0.83318   0.00000  Uiso   1.00
C1502  C     0.74993   0.97262   0.83304   0.00000  Uiso   1.00
C1503  C     0.74978   0.74998   0.68854   0.00000  Uiso   1.00
C1504  C     0.74978   0.74994   0.97812   0.00000  Uiso   1.00
C1505  C     0.54659   0.79053   0.81433   0.00000  Uiso   1.00
C1506  C     0.95091   0.71811   0.80204   0.00000  Uiso   1.00
C1507  C     0.95388   0.78407   0.86226   0.00000  Uiso   1.00
C1508  C     0.83496   0.75001   0.83371   0.00000  Uiso   1.00
C1509  C     0.54707   0.70887   0.84882   0.00000  Uiso   1.00
C1510  C     0.59299   0.79077   0.81645   0.00000  Uiso   1.00
C1511  C     0.90502   0.71697   0.80437   0.00000  Uiso   1.00
C1512  C     0.90705   0.78357   0.86222   0.00000  Uiso   1.00
C1513  C     0.59359   0.70894   0.84734   0.00000  Uiso   1.00
C1514  C     0.61643   0.74993   0.83224   0.00000  Uiso   1.00
C1515  C     0.88312   0.75008   0.83359   0.00000  Uiso   1.00
C1516  C     0.52395   0.74984   0.83153   0.00000  Uiso   1.00
C1517  C     0.97532   0.75056   0.83207   0.00000  Uiso   1.00
C1518  C     0.84755   0.61812   0.89689   0.00000  Uiso   1.00
C1519  C     0.77599   0.60476   0.86697   0.00000  Uiso   1.00
C1520  C     0.86552   0.59814   0.94617   0.00000  Uiso   1.00
C1521  C     0.91324   0.58072   0.94201   0.00000  Uiso   1.00
C1522  C     0.69666   0.88134   0.72208   0.00000  Uiso   1.00
C1523  C     0.65185   0.89582   0.69885   0.00000  Uiso   1.00
C1524  C     0.65595   0.90843   0.97764   0.00000  Uiso   1.00
C1525  C     0.65399   0.61962   0.76566   0.00000  Uiso   1.00
C1526  C     0.63725   0.60136   0.71523   0.00000  Uiso   1.00
C1527  C     0.58720   0.59290   0.71460   0.00000  Uiso   1.00
C1528  C     0.80128   0.88125   0.94410   0.00000  Uiso   1.00
C1529  C     0.83191   0.85060   0.97723   0.00000  Uiso   1.00
C1530  C     0.72101   0.89508   0.80267   0.00000  Uiso   1.00
C1531  C     0.82524   0.86086   0.69849   0.00000  Uiso   1.00
C1532  C     0.53387   0.84679   0.75269   0.00000  Uiso   1.00
C1533  C     0.99810   0.88105   0.73233   0.00000  Uiso   1.00
C1534  C     0.95367   0.85574   0.72320   0.00000  Uiso   1.00
C1535  C     0.98065   0.70965   0.72574   0.00000  Uiso   1.00
C1536  C     0.94836   0.69148   0.68528   0.00000  Uiso   1.00
C1537  C     0.95460   0.71797   0.96997   0.00000  Uiso   1.00
C1538  C     0.96027   0.85442   0.91235   0.00000  Uiso   1.00
C1539  C     0.94810   0.89251   0.87308   0.00000  Uiso   1.00
C1540  C     0.92685   0.93647   0.89632   0.00000  Uiso   1.00
C1541  C     0.72416   0.60494   0.79936   0.00000  Uiso   1.00
C1542  C     0.54198   0.64277   0.90301   0.00000  Uiso   1.00
C1543  C     0.56043   0.59468   0.88515   0.00000  Uiso   1.00
C1544  C     0.52367   0.56146   0.86545   0.00000  Uiso   1.00
C1545  C     0.77907   0.89527   0.86375   0.00000  Uiso   1.00
C1546  C     0.77416   0.55402   0.86902   0.00000  Uiso   1.00
C1547  C     0.71884   0.94582   0.80455   0.00000  Uiso   1.00
C1548  C     0.72562   0.55419   0.79739   0.00000  Uiso   1.00
Cu1549 Cu    0.75000   0.79822   0.83333   0.00000  Uiso   1.00
Cu1550 Cu    0.75000   0.70178   0.83333   0.00000  Uiso   1.00
H1551  H     0.61079   0.82271   0.80575   0.00000  Uiso   1.00
H1552  H     0.85472   0.59243   0.86645   0.00000  Uiso   1.00
H1553  H     0.86429   0.62668   0.97478   0.00000  Uiso   1.00
H1554  H     0.84463   0.56763   0.95808   0.00000  Uiso   1.00
H1555  H     0.91470   0.55037   0.91553   0.00000  Uiso   1.00
H1556  H     0.92600   0.56814   0.97865   0.00000  Uiso   1.00
H1557  H     0.93475   0.61032   0.92918   0.00000  Uiso   1.00
H1558  H     0.70826   0.84877   0.70270   0.00000  Uiso   1.00
H1559  H     0.72154   0.91015   0.71516   0.00000  Uiso   1.00
H1560  H     0.62820   0.86547   0.70219   0.00000  Uiso   1.00
H1561  H     0.63856   0.92735   0.71874   0.00000  Uiso   1.00
H1562  H     0.88637   0.69119   0.78214   0.00000  Uiso   1.00
H1563  H     0.67878   0.93938   0.97329   0.00000  Uiso   1.00
H1564  H     0.62284   0.91832   0.96173   0.00000  Uiso   1.00
H1565  H     0.66873   0.87714   0.95694   0.00000  Uiso   1.00
H1566  H     0.63614   0.65343   0.77367   0.00000  Uiso   1.00
H1567  H     0.64505   0.59334   0.79492   0.00000  Uiso   1.00
H1568  H     0.64506   0.62824   0.68637   0.00000  Uiso   1.00
H1569  H     0.65422   0.56717   0.70633   0.00000  Uiso   1.00
H1570  H     0.57863   0.56559   0.74270   0.00000  Uiso   1.00
H1571  H     0.57597   0.57970   0.67765   0.00000  Uiso   1.00
H1572  H     0.56947   0.62691   0.72241   0.00000  Uiso   1.00
H1573  H     0.88847   0.80794   0.88466   0.00000  Uiso   1.00
H1574  H     0.76619   0.87375   0.95347   0.00000  Uiso   1.00
H1575  H     0.80893   0.91963   0.95207   0.00000  Uiso   1.00
H1576  H     0.82580   0.81190   0.96975   0.00000  Uiso   1.00
H1577  H     0.86678   0.85873   0.96883   0.00000  Uiso   1.00
H1578  H     0.83379   0.89881   0.70717   0.00000  Uiso   1.00
H1579  H     0.84699   0.83695   0.72140   0.00000  Uiso   1.00
H1580  H     0.79032   0.85414   0.70796   0.00000  Uiso   1.00
H1581  H     0.53745   0.81628   0.72640   0.00000  Uiso   1.00
H1582  H     0.56545   0.86727   0.75514   0.00000  Uiso   1.00
H1583  H     0.99369   0.91106   0.75878   0.00000  Uiso   1.00
H1584  H     0.61230   0.67747   0.85853   0.00000  Uiso   1.00
H1585  H     0.50913   0.89659   0.69693   0.00000  Uiso   1.00
H1586  H     0.95693   0.82742   0.69476   0.00000  Uiso   1.00
H1587  H     0.92863   0.88221   0.70960   0.00000  Uiso   1.00
H1588  H     0.94183   0.83934   0.75781   0.00000  Uiso   1.00
H1589  H     0.51494   0.70022   0.71543   0.00000  Uiso   1.00
H1590  H     0.97948   0.74971   0.72749   0.00000  Uiso   1.00
H1591  H     0.95389   0.65243   0.67969   0.00000  Uiso   1.00
H1592  H     0.91366   0.69680   0.69678   0.00000  Uiso   1.00
H1593  H     0.94552   0.75639   0.97396   0.00000  Uiso   1.00
H1594  H     0.93280   0.70188   0.94066   0.00000  Uiso   1.00
H1595  H     0.79212   0.53634   0.89883   0.00000  Uiso   1.00
H1596  H     0.98957   0.71550   0.95856   0.00000  Uiso   1.00
H1597  H     0.98476   0.87094   0.93865   0.00000  Uiso   1.00
H1598  H     0.93222   0.84411   0.93543   0.00000  Uiso   1.00
H1599  H     0.97864   0.90387   0.85429   0.00000  Uiso   1.00
H1600  H     0.92462   0.87766   0.84472   0.00000  Uiso   1.00
H1601  H     0.89564   0.92620   0.91433   0.00000  Uiso   1.00
H1602  H     0.91891   0.96352   0.86723   0.00000  Uiso   1.00
H1603  H     0.94996   0.95296   0.92416   0.00000  Uiso   1.00
H1604  H     0.51567   0.63521   0.92976   0.00000  Uiso   1.00
H1605  H     0.56781   0.66306   0.92462   0.00000  Uiso   1.00
H1606  H     0.69272   0.96329   0.78322   0.00000  Uiso   1.00
H1607  H     0.58441   0.60081   0.85553   0.00000  Uiso   1.00
H1608  H     0.57831   0.57658   0.91642   0.00000  Uiso   1.00
H1609  H     0.50021   0.55299   0.89505   0.00000  Uiso   1.00
H1610  H     0.53845   0.52734   0.85253   0.00000  Uiso   1.00
H1611  H     0.50531   0.57851   0.83389   0.00000  Uiso   1.00
H1612  H     0.70783   0.53666   0.76737   0.00000  Uiso   1.00
H1613  H     0.80786   0.96367   0.88162   0.00000  Uiso   1.00
H1614  H     0.86612   0.65151   0.88868   0.00000  Uiso   1.00
N1615  N     0.75000   0.62934   0.83333   0.00000  Uiso   1.00
N1616  N     0.75000   0.87066   0.83333   0.00000  Uiso   1.00
O1617  O     0.68573   0.79072   0.83334   0.00000  Uiso   1.00
O1618  O     0.69149   0.86952   0.77261   0.00000  Uiso   1.00
O1619  O     0.69987   0.63053   0.76400   0.00000  Uiso   1.00
O1620  O     0.80862   0.86996   0.89402   0.00000  Uiso   1.00
O1621  O     0.52241   0.83103   0.80024   0.00000  Uiso   1.00
O1622  O     0.97198   0.68650   0.77106   0.00000  Uiso   1.00
O1623  O     0.98108   0.81390   0.89180   0.00000  Uiso   1.00
O1624  O     0.52255   0.66882   0.86290   0.00000  Uiso   1.00
O1625  O     0.81427   0.70928   0.83333   0.00000  Uiso   1.00
O1626  O     0.81427   0.79072   0.83333   0.00000  Uiso   1.00
O1627  O     0.68573   0.70929   0.83334   0.00000  Uiso   1.00
O1628  O     0.75000   0.79071   0.76280   0.00000  Uiso   1.00
O1629  O     0.75000   0.70929   0.90387   0.00000  Uiso   1.00
O1630  O     0.75000   0.79071   0.90387   0.00000  Uiso   1.00
O1631  O     0.75000   0.70929   0.76280   0.00000  Uiso   1.00
O1632  O     0.80206   0.63021   0.90084   0.00000  Uiso   1.00
loop_
_geom_bond_atom_site_label_1
_geom_bond_atom_site_label_2
_geom_bond_distance
_geom_bond_site_symmetry_2
_ccdc_geom_bond_type
C1     C18     1.461   .     S
C1     O131    1.296   .     A
C1     O121    1.296   .     A
C2     C6      1.409   .     A
C2     H117    1.078   .     S
C2     C49     1.414   .     A
C3     C7      1.400   .     S
C3     O135    1.287   .     A
C3     O132    1.288   .     A
C4     C8      1.400   .     S
C4     O134    1.287   .     A
C4     O133    1.287   .     A
C5     C52     1.410   .     A
C5     C50     1.410   .     A
C5     C278    1.524   1_545 S
C6     C51     1.410   .     A
C6     C277    1.524   .     S
C7     C1096   1.185   1_554 S
C8     C551    1.185   .     S
C9     C14     1.399   .     A
C9     O125    1.389   .     S
C9     C20     1.408   .     A
C10    C15     1.388   .     A
C10    C21     1.409   .     A
C10    O126    1.384   .     S
C11    C21     1.411   .     A
C11    O127    1.402   .     S
C11    C16     1.412   .     A
C12    O130    1.293   .     A
C12    O129    1.294   .     A
C12    C19     1.453   .     S
C13    O128    1.396   .     S
C13    C20     1.409   .     A
C13    C17     1.405   .     A
C14    C18     1.399   .     A
C14    H55     1.082   .     S
C15    C19     1.394   .     A
C15    H66     1.084   .     S
C16    H77     1.079   .     S
C16    C19     1.399   .     A
C17    H88     1.080   .     S
C17    C18     1.400   .     A
C20    C157    1.467   1_455 S
C21    C156    1.467   .     S
C22    H118    1.111   .     S
C22    H56     1.118   .     S
C22    O136    1.420   .     S
C22    C24     1.530   .     S
C23    O136    1.386   .     S
C23    N119    1.367   .     A
C23    C50     1.414   .     A
C24    H57     1.112   .     S
C24    C25     1.526   .     S
C24    H58     1.111   .     S
C25    H60     1.110   .     S
C25    H61     1.110   .     S
C25    H59     1.111   .     S
C26    H63     1.117   .     S
C26    C27     1.528   .     S
C26    H62     1.110   .     S
C26    O122    1.420   .     S
C27    H65     1.111   .     S
C27    H64     1.111   .     S
C27    C1116   1.527   1_554 S
C28    H68     1.110   .     S
C28    H69     1.111   .     S
C28    H67     1.111   .     S
C28    C571    1.527   .     S
C29    C30     1.530   .     S
C29    H70     1.109   .     S
C29    O123    1.418   .     S
C29    H71     1.117   .     S
C30    C31     1.527   .     S
C30    H73     1.111   .     S
C30    H72     1.112   .     S
C31    H75     1.110   .     S
C31    H74     1.111   .     S
C31    H76     1.111   .     S
C32    O124    1.417   .     S
C32    C33     1.528   .     S
C32    H79     1.112   .     S
C32    H78     1.115   .     S
C33    H80     1.110   .     S
C33    H81     1.106   .     S
C33    C579    1.526   .     S
C34    C51     1.414   .     A
C34    O122    1.385   .     S
C34    N120    1.369   .     A
C35    H82     1.111   .     S
C35    H83     1.111   .     S
C35    H84     1.107   .     S
C35    C1121   1.526   1_554 S
C36    O125    1.413   .     S
C36    H86     1.110   .     S
C36    H85     1.116   .     S
C36    C173    1.530   1_455 S
C37    C38     1.527   .     S
C37    H87     1.112   .     S
C37    C172    1.530   .     S
C37    H225    1.112   .     S
C38    H92     1.111   .     S
C38    H91     1.110   .     S
C38    H90     1.109   .     S
C39    O126    1.417   .     S
C39    C40     1.530   .     S
C39    H94     1.116   .     S
C39    H229    1.111   .     S
C40    H96     1.111   .     S
C40    H95     1.111   .     S
C40    C1129   1.526   1_554 S
C41    H100    1.110   .     S
C41    H97     1.110   .     S
C41    H98     1.110   .     S
C41    C584    1.526   .     S
C42    H102    1.105   .     S
C42    O127    1.413   .     S
C42    C43     1.538   .     S
C42    H101    1.111   .     S
C43    H104    1.109   .     S
C43    H103    1.111   .     S
C43    C44     1.526   .     S
C44    H105    1.110   .     S
C44    H107    1.111   .     S
C44    H106    1.110   .     S
C45    O123    1.385   .     S
C45    N119    1.369   .     A
C45    C52     1.414   .     A
C46    O128    1.418   .     S
C46    H108    1.110   .     S
C46    C47     1.534   .     S
C46    H109    1.114   .     S
C47    H111    1.109   .     S
C47    H112    1.111   .     S
C47    C48     1.527   .     S
C48    H114    1.110   .     S
C48    H115    1.111   .     S
C48    H113    1.110   .     S
C49    N120    1.369   .     A
C49    O124    1.385   .     S
C50    H99     1.077   .     S
C51    H110    1.079   .     S
C52    H116    1.078   .     S
Cu53   N120    2.016   .     S
Cu53   Cu54    2.684   .     S
Cu53   O132    1.922   .     S
Cu53   O134    1.922   .     S
Cu53   O121    1.950   .     S
Cu53   O130    1.950   .     S
Cu54   O131    1.950   .     S
Cu54   N119    2.016   .     S
Cu54   O133    1.922   .     S
Cu54   O129    1.950   .     S
Cu54   O135    1.922   .     S
H89    C173    1.112   1_455 S
H93    C175    1.111   1_455 S
C137   C154    1.461   .     S
C137   O267    1.296   .     A
C137   O257    1.296   .     A
C138   C142    1.409   .     A
C138   H253    1.078   .     S
C138   C185    1.414   .     A
C139   C143    1.400   .     S
C139   O271    1.287   .     A
C139   O268    1.288   .     A
C140   C144    1.400   .     S
C140   O270    1.287   .     A
C140   O269    1.287   .     A
C141   C188    1.410   .     A
C141   C186    1.410   .     A
C141   C414    1.524   1_545 S
C142   C187    1.410   .     A
C142   C413    1.524   .     S
C143   C1232   1.185   1_554 S
C144   C687    1.185   .     S
C145   C150    1.399   .     A
C145   O261    1.389   .     S
C145   C156    1.408   .     A
C146   C151    1.388   .     A
C146   C157    1.409   .     A
C146   O262    1.384   .     S
C147   C157    1.411   .     A
C147   O263    1.402   .     S
C147   C152    1.412   .     A
C148   O266    1.293   .     A
C148   O265    1.294   .     A
C148   C155    1.453   .     S
C149   O264    1.396   .     S
C149   C156    1.409   .     A
C149   C153    1.405   .     A
C150   C154    1.399   .     A
C150   H191    1.082   .     S
C151   C155    1.394   .     A
C151   H202    1.084   .     S
C152   H213    1.079   .     S
C152   C155    1.399   .     A
C153   H224    1.080   .     S
C153   C154    1.400   .     A
C157   C20     1.467   1_655 S
C158   H254    1.111   .     S
C158   H192    1.118   .     S
C158   O272    1.420   .     S
C158   C160    1.530   .     S
C159   O272    1.386   .     S
C159   N255    1.367   .     A
C159   C186    1.414   .     A
C160   H193    1.112   .     S
C160   C161    1.526   .     S
C160   H194    1.111   .     S
C161   H196    1.110   .     S
C161   H197    1.110   .     S
C161   H195    1.111   .     S
C162   H199    1.117   .     S
C162   C163    1.528   .     S
C162   H198    1.110   .     S
C162   O258    1.420   .     S
C163   H201    1.111   .     S
C163   H200    1.111   .     S
C163   C1252   1.527   1_554 S
C164   H204    1.110   .     S
C164   H205    1.111   .     S
C164   H203    1.111   .     S
C164   C707    1.527   .     S
C165   C166    1.530   .     S
C165   H206    1.109   .     S
C165   O259    1.418   .     S
C165   H207    1.117   .     S
C166   C167    1.527   .     S
C166   H209    1.111   .     S
C166   H208    1.112   .     S
C167   H211    1.110   .     S
C167   H210    1.111   .     S
C167   H212    1.111   .     S
C168   O260    1.417   .     S
C168   C169    1.528   .     S
C168   H215    1.112   .     S
C168   H214    1.115   .     S
C169   H216    1.110   .     S
C169   H217    1.106   .     S
C169   C715    1.526   .     S
C170   C187    1.414   .     A
C170   O258    1.385   .     S
C170   N256    1.369   .     A
C171   H218    1.111   .     S
C171   H219    1.111   .     S
C171   H220    1.107   .     S
C171   C1257   1.526   1_554 S
C172   O261    1.413   .     S
C172   H222    1.110   .     S
C172   H221    1.116   .     S
C173   C174    1.527   .     S
C173   H223    1.112   .     S
C173   C36     1.530   1_655 S
C173   H89     1.112   1_655 S
C174   H228    1.111   .     S
C174   H227    1.110   .     S
C174   H226    1.109   .     S
C175   O262    1.417   .     S
C175   C176    1.530   .     S
C175   H230    1.116   .     S
C175   H93     1.111   1_655 S
C176   H232    1.111   .     S
C176   H231    1.111   .     S
C176   C1265   1.526   1_554 S
C177   H236    1.110   .     S
C177   H233    1.110   .     S
C177   H234    1.110   .     S
C177   C720    1.526   .     S
C178   H238    1.105   .     S
C178   O263    1.413   .     S
C178   C179    1.538   .     S
C178   H237    1.111   .     S
C179   H240    1.109   .     S
C179   H239    1.111   .     S
C179   C180    1.526   .     S
C180   H241    1.110   .     S
C180   H243    1.111   .     S
C180   H242    1.110   .     S
C181   O259    1.385   .     S
C181   N255    1.369   .     A
C181   C188    1.414   .     A
C182   O264    1.418   .     S
C182   H244    1.110   .     S
C182   C183    1.534   .     S
C182   H245    1.114   .     S
C183   H247    1.109   .     S
C183   H248    1.111   .     S
C183   C184    1.527   .     S
C184   H250    1.110   .     S
C184   H251    1.111   .     S
C184   H249    1.110   .     S
C185   N256    1.369   .     A
C185   O260    1.385   .     S
C186   H235    1.077   .     S
C187   H246    1.079   .     S
C188   H252    1.078   .     S
Cu189  N256    2.016   .     S
Cu189  Cu190   2.684   .     S
Cu189  O268    1.922   .     S
Cu189  O270    1.922   .     S
Cu189  O257    1.950   .     S
Cu189  O266    1.950   .     S
Cu190  O267    1.950   .     S
Cu190  N255    2.016   .     S
Cu190  O269    1.922   .     S
Cu190  O265    1.950   .     S
Cu190  O271    1.922   .     S
C273   C290    1.461   .     S
C273   O403    1.296   .     A
C273   O393    1.296   .     A
C274   C278    1.409   .     A
C274   H389    1.078   .     S
C274   C321    1.414   .     A
C275   C279    1.400   .     S
C275   O407    1.287   .     A
C275   O404    1.288   .     A
C276   C280    1.400   .     S
C276   O406    1.287   .     A
C276   O405    1.287   .     A
C277   C324    1.410   .     A
C277   C322    1.410   .     A
C278   C323    1.410   .     A
C278   C5      1.524   1_565 S
C279   C1368   1.185   1_554 S
C280   C823    1.185   .     S
C281   C286    1.399   .     A
C281   O397    1.389   .     S
C281   C292    1.408   .     A
C282   C287    1.388   .     A
C282   C293    1.409   .     A
C282   O398    1.384   .     S
C283   C293    1.411   .     A
C283   O399    1.402   .     S
C283   C288    1.412   .     A
C284   O402    1.293   .     A
C284   O401    1.294   .     A
C284   C291    1.453   .     S
C285   O400    1.396   .     S
C285   C292    1.409   .     A
C285   C289    1.405   .     A
C286   C290    1.399   .     A
C286   H327    1.082   .     S
C287   C291    1.394   .     A
C287   H338    1.084   .     S
C288   H349    1.079   .     S
C288   C291    1.399   .     A
C289   H360    1.080   .     S
C289   C290    1.400   .     A
C292   C429    1.467   1_455 S
C293   C428    1.467   .     S
C294   H390    1.111   .     S
C294   H328    1.118   .     S
C294   O408    1.420   .     S
C294   C296    1.530   .     S
C295   O408    1.386   .     S
C295   N391    1.367   .     A
C295   C322    1.414   .     A
C296   H329    1.112   .     S
C296   C297    1.526   .     S
C296   H330    1.111   .     S
C297   H332    1.110   .     S
C297   H333    1.110   .     S
C297   H331    1.111   .     S
C298   H335    1.117   .     S
C298   C299    1.528   .     S
C298   H334    1.110   .     S
C298   O394    1.420   .     S
C299   H337    1.111   .     S
C299   H336    1.111   .     S
C299   C1388   1.527   1_554 S
C300   H340    1.110   .     S
C300   H341    1.111   .     S
C300   H339    1.111   .     S
C300   C843    1.527   .     S
C301   C302    1.530   .     S
C301   H342    1.109   .     S
C301   O395    1.418   .     S
C301   H343    1.117   .     S
C302   C303    1.527   .     S
C302   H345    1.111   .     S
C302   H344    1.112   .     S
C303   H347    1.110   .     S
C303   H346    1.111   .     S
C303   H348    1.111   .     S
C304   O396    1.417   .     S
C304   C305    1.528   .     S
C304   H351    1.112   .     S
C304   H350    1.115   .     S
C305   H352    1.110   .     S
C305   H353    1.106   .     S
C305   C851    1.526   .     S
C306   C323    1.414   .     A
C306   O394    1.385   .     S
C306   N392    1.369   .     A
C307   H354    1.111   .     S
C307   H355    1.111   .     S
C307   H356    1.107   .     S
C307   C1393   1.526   1_554 S
C308   O397    1.413   .     S
C308   H358    1.110   .     S
C308   H357    1.116   .     S
C308   C445    1.530   1_455 S
C309   C310    1.527   .     S
C309   H359    1.112   .     S
C309   C444    1.530   .     S
C309   H497    1.112   .     S
C310   H364    1.111   .     S
C310   H363    1.110   .     S
C310   H362    1.109   .     S
C311   O398    1.417   .     S
C311   C312    1.530   .     S
C311   H366    1.116   .     S
C311   H501    1.111   .     S
C312   H368    1.111   .     S
C312   H367    1.111   .     S
C312   C1401   1.526   1_554 S
C313   H372    1.110   .     S
C313   H369    1.110   .     S
C313   H370    1.110   .     S
C313   C856    1.526   .     S
C314   H374    1.105   .     S
C314   O399    1.413   .     S
C314   C315    1.538   .     S
C314   H373    1.111   .     S
C315   H376    1.109   .     S
C315   H375    1.111   .     S
C315   C316    1.526   .     S
C316   H377    1.110   .     S
C316   H379    1.111   .     S
C316   H378    1.110   .     S
C317   O395    1.385   .     S
C317   N391    1.369   .     A
C317   C324    1.414   .     A
C318   O400    1.418   .     S
C318   H380    1.110   .     S
C318   C319    1.534   .     S
C318   H381    1.114   .     S
C319   H383    1.109   .     S
C319   H384    1.111   .     S
C319   C320    1.527   .     S
C320   H386    1.110   .     S
C320   H387    1.111   .     S
C320   H385    1.110   .     S
C321   N392    1.369   .     A
C321   O396    1.385   .     S
C322   H371    1.077   .     S
C323   H382    1.079   .     S
C324   H388    1.078   .     S
Cu325  N392    2.016   .     S
Cu325  Cu326   2.684   .     S
Cu325  O404    1.922   .     S
Cu325  O406    1.922   .     S
Cu325  O393    1.950   .     S
Cu325  O402    1.950   .     S
Cu326  O403    1.950   .     S
Cu326  N391    2.016   .     S
Cu326  O405    1.922   .     S
Cu326  O401    1.950   .     S
Cu326  O407    1.922   .     S
H361   C445    1.112   1_455 S
H365   C447    1.111   1_455 S
C409   C426    1.461   .     S
C409   O539    1.296   .     A
C409   O529    1.296   .     A
C410   C414    1.409   .     A
C410   H525    1.078   .     S
C410   C457    1.414   .     A
C411   C415    1.400   .     S
C411   O543    1.287   .     A
C411   O540    1.288   .     A
C412   C416    1.400   .     S
C412   O542    1.287   .     A
C412   O541    1.287   .     A
C413   C460    1.410   .     A
C413   C458    1.410   .     A
C414   C459    1.410   .     A
C414   C141    1.524   1_565 S
C415   C1504   1.185   1_554 S
C416   C959    1.185   .     S
C417   C422    1.399   .     A
C417   O533    1.389   .     S
C417   C428    1.408   .     A
C418   C423    1.388   .     A
C418   C429    1.409   .     A
C418   O534    1.384   .     S
C419   C429    1.411   .     A
C419   O535    1.402   .     S
C419   C424    1.412   .     A
C420   O538    1.293   .     A
C420   O537    1.294   .     A
C420   C427    1.453   .     S
C421   O536    1.396   .     S
C421   C428    1.409   .     A
C421   C425    1.405   .     A
C422   C426    1.399   .     A
C422   H463    1.082   .     S
C423   C427    1.394   .     A
C423   H474    1.084   .     S
C424   H485    1.079   .     S
C424   C427    1.399   .     A
C425   H496    1.080   .     S
C425   C426    1.400   .     A
C429   C292    1.467   1_655 S
C430   H526    1.111   .     S
C430   H464    1.118   .     S
C430   O544    1.420   .     S
C430   C432    1.530   .     S
C431   O544    1.386   .     S
C431   N527    1.367   .     A
C431   C458    1.414   .     A
C432   H465    1.112   .     S
C432   C433    1.526   .     S
C432   H466    1.111   .     S
C433   H468    1.110   .     S
C433   H469    1.110   .     S
C433   H467    1.111   .     S
C434   H471    1.117   .     S
C434   C435    1.528   .     S
C434   H470    1.110   .     S
C434   O530    1.420   .     S
C435   H473    1.111   .     S
C435   H472    1.111   .     S
C435   C1524   1.527   1_554 S
C436   H476    1.110   .     S
C436   H477    1.111   .     S
C436   H475    1.111   .     S
C436   C979    1.527   .     S
C437   C438    1.530   .     S
C437   H478    1.109   .     S
C437   O531    1.418   .     S
C437   H479    1.117   .     S
C438   C439    1.527   .     S
C438   H481    1.111   .     S
C438   H480    1.112   .     S
C439   H483    1.110   .     S
C439   H482    1.111   .     S
C439   H484    1.111   .     S
C440   O532    1.417   .     S
C440   C441    1.528   .     S
C440   H487    1.112   .     S
C440   H486    1.115   .     S
C441   H488    1.110   .     S
C441   H489    1.106   .     S
C441   C987    1.526   .     S
C442   C459    1.414   .     A
C442   O530    1.385   .     S
C442   N528    1.369   .     A
C443   H490    1.111   .     S
C443   H491    1.111   .     S
C443   H492    1.107   .     S
C443   C1529   1.526   1_554 S
C444   O533    1.413   .     S
C444   H494    1.110   .     S
C444   H493    1.116   .     S
C445   C446    1.527   .     S
C445   H495    1.112   .     S
C445   C308    1.530   1_655 S
C445   H361    1.112   1_655 S
C446   H500    1.111   .     S
C446   H499    1.110   .     S
C446   H498    1.109   .     S
C447   O534    1.417   .     S
C447   C448    1.530   .     S
C447   H502    1.116   .     S
C447   H365    1.111   1_655 S
C448   H504    1.111   .     S
C448   H503    1.111   .     S
C448   C1537   1.526   1_554 S
C449   H508    1.110   .     S
C449   H505    1.110   .     S
C449   H506    1.110   .     S
C449   C992    1.526   .     S
C450   H510    1.105   .     S
C450   O535    1.413   .     S
C450   C451    1.538   .     S
C450   H509    1.111   .     S
C451   H512    1.109   .     S
C451   H511    1.111   .     S
C451   C452    1.526   .     S
C452   H513    1.110   .     S
C452   H515    1.111   .     S
C452   H514    1.110   .     S
C453   O531    1.385   .     S
C453   N527    1.369   .     A
C453   C460    1.414   .     A
C454   O536    1.418   .     S
C454   H516    1.110   .     S
C454   C455    1.534   .     S
C454   H517    1.114   .     S
C455   H519    1.109   .     S
C455   H520    1.111   .     S
C455   C456    1.527   .     S
C456   H522    1.110   .     S
C456   H523    1.111   .     S
C456   H521    1.110   .     S
C457   N528    1.369   .     A
C457   O532    1.385   .     S
C458   H507    1.077   .     S
C459   H518    1.079   .     S
C460   H524    1.078   .     S
Cu461  N528    2.016   .     S
Cu461  Cu462   2.684   .     S
Cu461  O540    1.922   .     S
Cu461  O542    1.922   .     S
Cu461  O529    1.950   .     S
Cu461  O538    1.950   .     S
Cu462  O539    1.950   .     S
Cu462  N527    2.016   .     S
Cu462  O541    1.922   .     S
Cu462  O537    1.950   .     S
Cu462  O543    1.922   .     S
C545   C562    1.461   .     S
C545   O675    1.296   .     A
C545   O665    1.296   .     A
C546   C550    1.409   .     A
C546   H661    1.078   .     S
C546   C593    1.414   .     A
C547   C551    1.400   .     S
C547   O679    1.287   .     A
C547   O676    1.288   .     A
C548   C552    1.400   .     S
C548   O678    1.287   .     A
C548   O677    1.287   .     A
C549   C596    1.410   .     A
C549   C594    1.410   .     A
C549   C822    1.524   1_545 S
C550   C595    1.410   .     A
C550   C821    1.524   .     S
C552   C1095   1.185   .     S
C553   C558    1.399   .     A
C553   O669    1.389   .     S
C553   C564    1.408   .     A
C554   C559    1.388   .     A
C554   C565    1.409   .     A
C554   O670    1.384   .     S
C555   C565    1.411   .     A
C555   O671    1.402   .     S
C555   C560    1.412   .     A
C556   O674    1.293   .     A
C556   O673    1.294   .     A
C556   C563    1.453   .     S
C557   O672    1.396   .     S
C557   C564    1.409   .     A
C557   C561    1.405   .     A
C558   C562    1.399   .     A
C558   H599    1.082   .     S
C559   C563    1.394   .     A
C559   H610    1.084   .     S
C560   H621    1.079   .     S
C560   C563    1.399   .     A
C561   H632    1.080   .     S
C561   C562    1.400   .     A
C564   C701    1.467   1_455 S
C565   C700    1.467   .     S
C566   H662    1.111   .     S
C566   H600    1.118   .     S
C566   O680    1.420   .     S
C566   C568    1.530   .     S
C567   O680    1.386   .     S
C567   N663    1.367   .     A
C567   C594    1.414   .     A
C568   H601    1.112   .     S
C568   C569    1.526   .     S
C568   H602    1.111   .     S
C569   H604    1.110   .     S
C569   H605    1.110   .     S
C569   H603    1.111   .     S
C570   H607    1.117   .     S
C570   C571    1.528   .     S
C570   H606    1.110   .     S
C570   O666    1.420   .     S
C571   H609    1.111   .     S
C571   H608    1.111   .     S
C572   H612    1.110   .     S
C572   H613    1.111   .     S
C572   H611    1.111   .     S
C572   C1115   1.527   .     S
C573   C574    1.530   .     S
C573   H614    1.109   .     S
C573   O667    1.418   .     S
C573   H615    1.117   .     S
C574   C575    1.527   .     S
C574   H617    1.111   .     S
C574   H616    1.112   .     S
C575   H619    1.110   .     S
C575   H618    1.111   .     S
C575   H620    1.111   .     S
C576   O668    1.417   .     S
C576   C577    1.528   .     S
C576   H623    1.112   .     S
C576   H622    1.115   .     S
C577   H624    1.110   .     S
C577   H625    1.106   .     S
C577   C1123   1.526   .     S
C578   C595    1.414   .     A
C578   O666    1.385   .     S
C578   N664    1.369   .     A
C579   H626    1.111   .     S
C579   H627    1.111   .     S
C579   H628    1.107   .     S
C580   O669    1.413   .     S
C580   H630    1.110   .     S
C580   H629    1.116   .     S
C580   C717    1.530   1_455 S
C581   C582    1.527   .     S
C581   H631    1.112   .     S
C581   C716    1.530   .     S
C581   H769    1.112   .     S
C582   H636    1.111   .     S
C582   H635    1.110   .     S
C582   H634    1.109   .     S
C583   O670    1.417   .     S
C583   C584    1.530   .     S
C583   H638    1.116   .     S
C583   H773    1.111   .     S
C584   H640    1.111   .     S
C584   H639    1.111   .     S
C585   H644    1.110   .     S
C585   H641    1.110   .     S
C585   H642    1.110   .     S
C585   C1128   1.526   .     S
C586   H646    1.105   .     S
C586   O671    1.413   .     S
C586   C587    1.538   .     S
C586   H645    1.111   .     S
C587   H648    1.109   .     S
C587   H647    1.111   .     S
C587   C588    1.526   .     S
C588   H649    1.110   .     S
C588   H651    1.111   .     S
C588   H650    1.110   .     S
C589   O667    1.385   .     S
C589   N663    1.369   .     A
C589   C596    1.414   .     A
C590   O672    1.418   .     S
C590   H652    1.110   .     S
C590   C591    1.534   .     S
C590   H653    1.114   .     S
C591   H655    1.109   .     S
C591   H656    1.111   .     S
C591   C592    1.527   .     S
C592   H658    1.110   .     S
C592   H659    1.111   .     S
C592   H657    1.110   .     S
C593   N664    1.369   .     A
C593   O668    1.385   .     S
C594   H643    1.077   .     S
C595   H654    1.079   .     S
C596   H660    1.078   .     S
Cu597  N664    2.016   .     S
Cu597  Cu598   2.684   .     S
Cu597  O676    1.922   .     S
Cu597  O678    1.922   .     S
Cu597  O665    1.950   .     S
Cu597  O674    1.950   .     S
Cu598  O675    1.950   .     S
Cu598  N663    2.016   .     S
Cu598  O677    1.922   .     S
Cu598  O673    1.950   .     S
Cu598  O679    1.922   .     S
H633   C717    1.112   1_455 S
H637   C719    1.111   1_455 S
C681   C698    1.461   .     S
C681   O811    1.296   .     A
C681   O801    1.296   .     A
C682   C686    1.409   .     A
C682   H797    1.078   .     S
C682   C729    1.414   .     A
C683   C687    1.400   .     S
C683   O815    1.287   .     A
C683   O812    1.288   .     A
C684   C688    1.400   .     S
C684   O814    1.287   .     A
C684   O813    1.287   .     A
C685   C732    1.410   .     A
C685   C730    1.410   .     A
C685   C958    1.524   1_545 S
C686   C731    1.410   .     A
C686   C957    1.524   .     S
C688   C1231   1.185   .     S
C689   C694    1.399   .     A
C689   O805    1.389   .     S
C689   C700    1.408   .     A
C690   C695    1.388   .     A
C690   C701    1.409   .     A
C690   O806    1.384   .     S
C691   C701    1.411   .     A
C691   O807    1.402   .     S
C691   C696    1.412   .     A
C692   O810    1.293   .     A
C692   O809    1.294   .     A
C692   C699    1.453   .     S
C693   O808    1.396   .     S
C693   C700    1.409   .     A
C693   C697    1.405   .     A
C694   C698    1.399   .     A
C694   H735    1.082   .     S
C695   C699    1.394   .     A
C695   H746    1.084   .     S
C696   H757    1.079   .     S
C696   C699    1.399   .     A
C697   H768    1.080   .     S
C697   C698    1.400   .     A
C701   C564    1.467   1_655 S
C702   H798    1.111   .     S
C702   H736    1.118   .     S
C702   O816    1.420   .     S
C702   C704    1.530   .     S
C703   O816    1.386   .     S
C703   N799    1.367   .     A
C703   C730    1.414   .     A
C704   H737    1.112   .     S
C704   C705    1.526   .     S
C704   H738    1.111   .     S
C705   H740    1.110   .     S
C705   H741    1.110   .     S
C705   H739    1.111   .     S
C706   H743    1.117   .     S
C706   C707    1.528   .     S
C706   H742    1.110   .     S
C706   O802    1.420   .     S
C707   H745    1.111   .     S
C707   H744    1.111   .     S
C708   H748    1.110   .     S
C708   H749    1.111   .     S
C708   H747    1.111   .     S
C708   C1251   1.527   .     S
C709   C710    1.530   .     S
C709   H750    1.109   .     S
C709   O803    1.418   .     S
C709   H751    1.117   .     S
C710   C711    1.527   .     S
C710   H753    1.111   .     S
C710   H752    1.112   .     S
C711   H755    1.110   .     S
C711   H754    1.111   .     S
C711   H756    1.111   .     S
C712   O804    1.417   .     S
C712   C713    1.528   .     S
C712   H759    1.112   .     S
C712   H758    1.115   .     S
C713   H760    1.110   .     S
C713   H761    1.106   .     S
C713   C1259   1.526   .     S
C714   C731    1.414   .     A
C714   O802    1.385   .     S
C714   N800    1.369   .     A
C715   H762    1.111   .     S
C715   H763    1.111   .     S
C715   H764    1.107   .     S
C716   O805    1.413   .     S
C716   H766    1.110   .     S
C716   H765    1.116   .     S
C717   C718    1.527   .     S
C717   H767    1.112   .     S
C717   C580    1.530   1_655 S
C717   H633    1.112   1_655 S
C718   H772    1.111   .     S
C718   H771    1.110   .     S
C718   H770    1.109   .     S
C719   O806    1.417   .     S
C719   C720    1.530   .     S
C719   H774    1.116   .     S
C719   H637    1.111   1_655 S
C720   H776    1.111   .     S
C720   H775    1.111   .     S
C721   H780    1.110   .     S
C721   H777    1.110   .     S
C721   H778    1.110   .     S
C721   C1264   1.526   .     S
C722   H782    1.105   .     S
C722   O807    1.413   .     S
C722   C723    1.538   .     S
C722   H781    1.111   .     S
C723   H784    1.109   .     S
C723   H783    1.111   .     S
C723   C724    1.526   .     S
C724   H785    1.110   .     S
C724   H787    1.111   .     S
C724   H786    1.110   .     S
C725   O803    1.385   .     S
C725   N799    1.369   .     A
C725   C732    1.414   .     A
C726   O808    1.418   .     S
C726   H788    1.110   .     S
C726   C727    1.534   .     S
C726   H789    1.114   .     S
C727   H791    1.109   .     S
C727   H792    1.111   .     S
C727   C728    1.527   .     S
C728   H794    1.110   .     S
C728   H795    1.111   .     S
C728   H793    1.110   .     S
C729   N800    1.369   .     A
C729   O804    1.385   .     S
C730   H779    1.077   .     S
C731   H790    1.079   .     S
C732   H796    1.078   .     S
Cu733  N800    2.016   .     S
Cu733  Cu734   2.684   .     S
Cu733  O812    1.922   .     S
Cu733  O814    1.922   .     S
Cu733  O801    1.950   .     S
Cu733  O810    1.950   .     S
Cu734  O811    1.950   .     S
Cu734  N799    2.016   .     S
Cu734  O813    1.922   .     S
Cu734  O809    1.950   .     S
Cu734  O815    1.922   .     S
C817   C834    1.461   .     S
C817   O947    1.296   .     A
C817   O937    1.296   .     A
C818   C822    1.409   .     A
C818   H933    1.078   .     S
C818   C865    1.414   .     A
C819   C823    1.400   .     S
C819   O951    1.287   .     A
C819   O948    1.288   .     A
C820   C824    1.400   .     S
C820   O950    1.287   .     A
C820   O949    1.287   .     A
C821   C868    1.410   .     A
C821   C866    1.410   .     A
C822   C867    1.410   .     A
C822   C549    1.524   1_565 S
C824   C1367   1.185   .     S
C825   C830    1.399   .     A
C825   O941    1.389   .     S
C825   C836    1.408   .     A
C826   C831    1.388   .     A
C826   C837    1.409   .     A
C826   O942    1.384   .     S
C827   C837    1.411   .     A
C827   O943    1.402   .     S
C827   C832    1.412   .     A
C828   O946    1.293   .     A
C828   O945    1.294   .     A
C828   C835    1.453   .     S
C829   O944    1.396   .     S
C829   C836    1.409   .     A
C829   C833    1.405   .     A
C830   C834    1.399   .     A
C830   H871    1.082   .     S
C831   C835    1.394   .     A
C831   H882    1.084   .     S
C832   H893    1.079   .     S
C832   C835    1.399   .     A
C833   H904    1.080   .     S
C833   C834    1.400   .     A
C836   C973    1.467   1_455 S
C837   C972    1.467   .     S
C838   H934    1.111   .     S
C838   H872    1.118   .     S
C838   O952    1.420   .     S
C838   C840    1.530   .     S
C839   O952    1.386   .     S
C839   N935    1.367   .     A
C839   C866    1.414   .     A
C840   H873    1.112   .     S
C840   C841    1.526   .     S
C840   H874    1.111   .     S
C841   H876    1.110   .     S
C841   H877    1.110   .     S
C841   H875    1.111   .     S
C842   H879    1.117   .     S
C842   C843    1.528   .     S
C842   H878    1.110   .     S
C842   O938    1.420   .     S
C843   H881    1.111   .     S
C843   H880    1.111   .     S
C844   H884    1.110   .     S
C844   H885    1.111   .     S
C844   H883    1.111   .     S
C844   C1387   1.527   .     S
C845   C846    1.530   .     S
C845   H886    1.109   .     S
C845   O939    1.418   .     S
C845   H887    1.117   .     S
C846   C847    1.527   .     S
C846   H889    1.111   .     S
C846   H888    1.112   .     S
C847   H891    1.110   .     S
C847   H890    1.111   .     S
C847   H892    1.111   .     S
C848   O940    1.417   .     S
C848   C849    1.528   .     S
C848   H895    1.112   .     S
C848   H894    1.115   .     S
C849   H896    1.110   .     S
C849   H897    1.106   .     S
C849   C1395   1.526   .     S
C850   C867    1.414   .     A
C850   O938    1.385   .     S
C850   N936    1.369   .     A
C851   H898    1.111   .     S
C851   H899    1.111   .     S
C851   H900    1.107   .     S
C852   O941    1.413   .     S
C852   H902    1.110   .     S
C852   H901    1.116   .     S
C852   C989    1.530   1_455 S
C853   C854    1.527   .     S
C853   H903    1.112   .     S
C853   C988    1.530   .     S
C853   H1041   1.112   .     S
C854   H908    1.111   .     S
C854   H907    1.110   .     S
C854   H906    1.109   .     S
C855   O942    1.417   .     S
C855   C856    1.530   .     S
C855   H910    1.116   .     S
C855   H1045   1.111   .     S
C856   H912    1.111   .     S
C856   H911    1.111   .     S
C857   H916    1.110   .     S
C857   H913    1.110   .     S
C857   H914    1.110   .     S
C857   C1400   1.526   .     S
C858   H918    1.105   .     S
C858   O943    1.413   .     S
C858   C859    1.538   .     S
C858   H917    1.111   .     S
C859   H920    1.109   .     S
C859   H919    1.111   .     S
C859   C860    1.526   .     S
C860   H921    1.110   .     S
C860   H923    1.111   .     S
C860   H922    1.110   .     S
C861   O939    1.385   .     S
C861   N935    1.369   .     A
C861   C868    1.414   .     A
C862   O944    1.418   .     S
C862   H924    1.110   .     S
C862   C863    1.534   .     S
C862   H925    1.114   .     S
C863   H927    1.109   .     S
C863   H928    1.111   .     S
C863   C864    1.527   .     S
C864   H930    1.110   .     S
C864   H931    1.111   .     S
C864   H929    1.110   .     S
C865   N936    1.369   .     A
C865   O940    1.385   .     S
C866   H915    1.077   .     S
C867   H926    1.079   .     S
C868   H932    1.078   .     S
Cu869  N936    2.016   .     S
Cu869  Cu870   2.684   .     S
Cu869  O948    1.922   .     S
Cu869  O950    1.922   .     S
Cu869  O937    1.950   .     S
Cu869  O946    1.950   .     S
Cu870  O947    1.950   .     S
Cu870  N935    2.016   .     S
Cu870  O949    1.922   .     S
Cu870  O945    1.950   .     S
Cu870  O951    1.922   .     S
H905   C989    1.112   1_455 S
H909   C991    1.111   1_455 S
C953   C970    1.461   .     S
C953   O1083   1.296   .     A
C953   O1073   1.296   .     A
C954   C958    1.409   .     A
C954   H1069   1.078   .     S
C954   C1001   1.414   .     A
C955   C959    1.400   .     S
C955   O1087   1.287   .     A
C955   O1084   1.288   .     A
C956   C960    1.400   .     S
C956   O1086   1.287   .     A
C956   O1085   1.287   .     A
C957   C1004   1.410   .     A
C957   C1002   1.410   .     A
C958   C1003   1.410   .     A
C958   C685    1.524   1_565 S
C960   C1503   1.185   .     S
C961   C966    1.399   .     A
C961   O1077   1.389   .     S
C961   C972    1.408   .     A
C962   C967    1.388   .     A
C962   C973    1.409   .     A
C962   O1078   1.384   .     S
C963   C973    1.411   .     A
C963   O1079   1.402   .     S
C963   C968    1.412   .     A
C964   O1082   1.293   .     A
C964   O1081   1.294   .     A
C964   C971    1.453   .     S
C965   O1080   1.396   .     S
C965   C972    1.409   .     A
C965   C969    1.405   .     A
C966   C970    1.399   .     A
C966   H1007   1.082   .     S
C967   C971    1.394   .     A
C967   H1018   1.084   .     S
C968   H1029   1.079   .     S
C968   C971    1.399   .     A
C969   H1040   1.080   .     S
C969   C970    1.400   .     A
C973   C836    1.467   1_655 S
C974   H1070   1.111   .     S
C974   H1008   1.118   .     S
C974   O1088   1.420   .     S
C974   C976    1.530   .     S
C975   O1088   1.386   .     S
C975   N1071   1.367   .     A
C975   C1002   1.414   .     A
C976   H1009   1.112   .     S
C976   C977    1.526   .     S
C976   H1010   1.111   .     S
C977   H1012   1.110   .     S
C977   H1013   1.110   .     S
C977   H1011   1.111   .     S
C978   H1015   1.117   .     S
C978   C979    1.528   .     S
C978   H1014   1.110   .     S
C978   O1074   1.420   .     S
C979   H1017   1.111   .     S
C979   H1016   1.111   .     S
C980   H1020   1.110   .     S
C980   H1021   1.111   .     S
C980   H1019   1.111   .     S
C980   C1523   1.527   .     S
C981   C982    1.530   .     S
C981   H1022   1.109   .     S
C981   O1075   1.418   .     S
C981   H1023   1.117   .     S
C982   C983    1.527   .     S
C982   H1025   1.111   .     S
C982   H1024   1.112   .     S
C983   H1027   1.110   .     S
C983   H1026   1.111   .     S
C983   H1028   1.111   .     S
C984   O1076   1.417   .     S
C984   C985    1.528   .     S
C984   H1031   1.112   .     S
C984   H1030   1.115   .     S
C985   H1032   1.110   .     S
C985   H1033   1.106   .     S
C985   C1531   1.526   .     S
C986   C1003   1.414   .     A
C986   O1074   1.385   .     S
C986   N1072   1.369   .     A
C987   H1034   1.111   .     S
C987   H1035   1.111   .     S
C987   H1036   1.107   .     S
C988   O1077   1.413   .     S
C988   H1038   1.110   .     S
C988   H1037   1.116   .     S
C989   C990    1.527   .     S
C989   H1039   1.112   .     S
C989   C852    1.530   1_655 S
C989   H905    1.112   1_655 S
C990   H1044   1.111   .     S
C990   H1043   1.110   .     S
C990   H1042   1.109   .     S
C991   O1078   1.417   .     S
C991   C992    1.530   .     S
C991   H1046   1.116   .     S
C991   H909    1.111   1_655 S
C992   H1048   1.111   .     S
C992   H1047   1.111   .     S
C993   H1052   1.110   .     S
C993   H1049   1.110   .     S
C993   H1050   1.110   .     S
C993   C1536   1.526   .     S
C994   H1054   1.105   .     S
C994   O1079   1.413   .     S
C994   C995    1.538   .     S
C994   H1053   1.111   .     S
C995   H1056   1.109   .     S
C995   H1055   1.111   .     S
C995   C996    1.526   .     S
C996   H1057   1.110   .     S
C996   H1059   1.111   .     S
C996   H1058   1.110   .     S
C997   O1075   1.385   .     S
C997   N1071   1.369   .     A
C997   C1004   1.414   .     A
C998   O1080   1.418   .     S
C998   H1060   1.110   .     S
C998   C999    1.534   .     S
C998   H1061   1.114   .     S
C999   H1063   1.109   .     S
C999   H1064   1.111   .     S
C999   C1000   1.527   .     S
C1000  H1066   1.110   .     S
C1000  H1067   1.111   .     S
C1000  H1065   1.110   .     S
C1001  N1072   1.369   .     A
C1001  O1076   1.385   .     S
C1002  H1051   1.077   .     S
C1003  H1062   1.079   .     S
C1004  H1068   1.078   .     S
Cu1005 N1072   2.016   .     S
Cu1005 Cu1006  2.684   .     S
Cu1005 O1084   1.922   .     S
Cu1005 O1086   1.922   .     S
Cu1005 O1073   1.950   .     S
Cu1005 O1082   1.950   .     S
Cu1006 O1083   1.950   .     S
Cu1006 N1071   2.016   .     S
Cu1006 O1085   1.922   .     S
Cu1006 O1081   1.950   .     S
Cu1006 O1087   1.922   .     S
C1089  C1106   1.461   .     S
C1089  O1219   1.296   .     A
C1089  O1209   1.296   .     A
C1090  C1094   1.409   .     A
C1090  H1205   1.078   .     S
C1090  C1137   1.414   .     A
C1091  C1095   1.400   .     S
C1091  O1223   1.287   .     A
C1091  O1220   1.288   .     A
C1092  C1096   1.400   .     S
C1092  O1222   1.287   .     A
C1092  O1221   1.287   .     A
C1093  C1140   1.410   .     A
C1093  C1138   1.410   .     A
C1093  C1366   1.524   1_545 S
C1094  C1139   1.410   .     A
C1094  C1365   1.524   .     S
C1096  C7      1.185   1_556 S
C1097  C1102   1.399   .     A
C1097  O1213   1.389   .     S
C1097  C1108   1.408   .     A
C1098  C1103   1.388   .     A
C1098  C1109   1.409   .     A
C1098  O1214   1.384   .     S
C1099  C1109   1.411   .     A
C1099  O1215   1.402   .     S
C1099  C1104   1.412   .     A
C1100  O1218   1.293   .     A
C1100  O1217   1.294   .     A
C1100  C1107   1.453   .     S
C1101  O1216   1.396   .     S
C1101  C1108   1.409   .     A
C1101  C1105   1.405   .     A
C1102  C1106   1.399   .     A
C1102  H1143   1.082   .     S
C1103  C1107   1.394   .     A
C1103  H1154   1.084   .     S
C1104  H1165   1.079   .     S
C1104  C1107   1.399   .     A
C1105  H1176   1.080   .     S
C1105  C1106   1.400   .     A
C1108  C1245   1.467   1_455 S
C1109  C1244   1.467   .     S
C1110  H1206   1.111   .     S
C1110  H1144   1.118   .     S
C1110  O1224   1.420   .     S
C1110  C1112   1.530   .     S
C1111  O1224   1.386   .     S
C1111  N1207   1.367   .     A
C1111  C1138   1.414   .     A
C1112  H1145   1.112   .     S
C1112  C1113   1.526   .     S
C1112  H1146   1.111   .     S
C1113  H1148   1.110   .     S
C1113  H1149   1.110   .     S
C1113  H1147   1.111   .     S
C1114  H1151   1.117   .     S
C1114  C1115   1.528   .     S
C1114  H1150   1.110   .     S
C1114  O1210   1.420   .     S
C1115  H1153   1.111   .     S
C1115  H1152   1.111   .     S
C1116  H1156   1.110   .     S
C1116  H1157   1.111   .     S
C1116  H1155   1.111   .     S
C1116  C27     1.527   1_556 S
C1117  C1118   1.530   .     S
C1117  H1158   1.109   .     S
C1117  O1211   1.418   .     S
C1117  H1159   1.117   .     S
C1118  C1119   1.527   .     S
C1118  H1161   1.111   .     S
C1118  H1160   1.112   .     S
C1119  H1163   1.110   .     S
C1119  H1162   1.111   .     S
C1119  H1164   1.111   .     S
C1120  O1212   1.417   .     S
C1120  C1121   1.528   .     S
C1120  H1167   1.112   .     S
C1120  H1166   1.115   .     S
C1121  H1168   1.110   .     S
C1121  H1169   1.106   .     S
C1121  C35     1.526   1_556 S
C1122  C1139   1.414   .     A
C1122  O1210   1.385   .     S
C1122  N1208   1.369   .     A
C1123  H1170   1.111   .     S
C1123  H1171   1.111   .     S
C1123  H1172   1.107   .     S
C1124  O1213   1.413   .     S
C1124  H1174   1.110   .     S
C1124  H1173   1.116   .     S
C1124  C1261   1.530   1_455 S
C1125  C1126   1.527   .     S
C1125  H1175   1.112   .     S
C1125  C1260   1.530   .     S
C1125  H1313   1.112   .     S
C1126  H1180   1.111   .     S
C1126  H1179   1.110   .     S
C1126  H1178   1.109   .     S
C1127  O1214   1.417   .     S
C1127  C1128   1.530   .     S
C1127  H1182   1.116   .     S
C1127  H1317   1.111   .     S
C1128  H1184   1.111   .     S
C1128  H1183   1.111   .     S
C1129  H1188   1.110   .     S
C1129  H1185   1.110   .     S
C1129  H1186   1.110   .     S
C1129  C40     1.526   1_556 S
C1130  H1190   1.105   .     S
C1130  O1215   1.413   .     S
C1130  C1131   1.538   .     S
C1130  H1189   1.111   .     S
C1131  H1192   1.109   .     S
C1131  H1191   1.111   .     S
C1131  C1132   1.526   .     S
C1132  H1193   1.110   .     S
C1132  H1195   1.111   .     S
C1132  H1194   1.110   .     S
C1133  O1211   1.385   .     S
C1133  N1207   1.369   .     A
C1133  C1140   1.414   .     A
C1134  O1216   1.418   .     S
C1134  H1196   1.110   .     S
C1134  C1135   1.534   .     S
C1134  H1197   1.114   .     S
C1135  H1199   1.109   .     S
C1135  H1200   1.111   .     S
C1135  C1136   1.527   .     S
C1136  H1202   1.110   .     S
C1136  H1203   1.111   .     S
C1136  H1201   1.110   .     S
C1137  N1208   1.369   .     A
C1137  O1212   1.385   .     S
C1138  H1187   1.077   .     S
C1139  H1198   1.079   .     S
C1140  H1204   1.078   .     S
Cu1141 N1208   2.016   .     S
Cu1141 Cu1142  2.684   .     S
Cu1141 O1220   1.922   .     S
Cu1141 O1222   1.922   .     S
Cu1141 O1209   1.950   .     S
Cu1141 O1218   1.950   .     S
Cu1142 O1219   1.950   .     S
Cu1142 N1207   2.016   .     S
Cu1142 O1221   1.922   .     S
Cu1142 O1217   1.950   .     S
Cu1142 O1223   1.922   .     S
H1177  C1261   1.112   1_455 S
H1181  C1263   1.111   1_455 S
C1225  C1242   1.461   .     S
C1225  O1355   1.296   .     A
C1225  O1345   1.296   .     A
C1226  C1230   1.409   .     A
C1226  H1341   1.078   .     S
C1226  C1273   1.414   .     A
C1227  C1231   1.400   .     S
C1227  O1359   1.287   .     A
C1227  O1356   1.288   .     A
C1228  C1232   1.400   .     S
C1228  O1358   1.287   .     A
C1228  O1357   1.287   .     A
C1229  C1276   1.410   .     A
C1229  C1274   1.410   .     A
C1229  C1502   1.524   1_545 S
C1230  C1275   1.410   .     A
C1230  C1501   1.524   .     S
C1232  C143    1.185   1_556 S
C1233  C1238   1.399   .     A
C1233  O1349   1.389   .     S
C1233  C1244   1.408   .     A
C1234  C1239   1.388   .     A
C1234  C1245   1.409   .     A
C1234  O1350   1.384   .     S
C1235  C1245   1.411   .     A
C1235  O1351   1.402   .     S
C1235  C1240   1.412   .     A
C1236  O1354   1.293   .     A
C1236  O1353   1.294   .     A
C1236  C1243   1.453   .     S
C1237  O1352   1.396   .     S
C1237  C1244   1.409   .     A
C1237  C1241   1.405   .     A
C1238  C1242   1.399   .     A
C1238  H1279   1.082   .     S
C1239  C1243   1.394   .     A
C1239  H1290   1.084   .     S
C1240  H1301   1.079   .     S
C1240  C1243   1.399   .     A
C1241  H1312   1.080   .     S
C1241  C1242   1.400   .     A
C1245  C1108   1.467   1_655 S
C1246  H1342   1.111   .     S
C1246  H1280   1.118   .     S
C1246  O1360   1.420   .     S
C1246  C1248   1.530   .     S
C1247  O1360   1.386   .     S
C1247  N1343   1.367   .     A
C1247  C1274   1.414   .     A
C1248  H1281   1.112   .     S
C1248  C1249   1.526   .     S
C1248  H1282   1.111   .     S
C1249  H1284   1.110   .     S
C1249  H1285   1.110   .     S
C1249  H1283   1.111   .     S
C1250  H1287   1.117   .     S
C1250  C1251   1.528   .     S
C1250  H1286   1.110   .     S
C1250  O1346   1.420   .     S
C1251  H1289   1.111   .     S
C1251  H1288   1.111   .     S
C1252  H1292   1.110   .     S
C1252  H1293   1.111   .     S
C1252  H1291   1.111   .     S
C1252  C163    1.527   1_556 S
C1253  C1254   1.530   .     S
C1253  H1294   1.109   .     S
C1253  O1347   1.418   .     S
C1253  H1295   1.117   .     S
C1254  C1255   1.527   .     S
C1254  H1297   1.111   .     S
C1254  H1296   1.112   .     S
C1255  H1299   1.110   .     S
C1255  H1298   1.111   .     S
C1255  H1300   1.111   .     S
C1256  O1348   1.417   .     S
C1256  C1257   1.528   .     S
C1256  H1303   1.112   .     S
C1256  H1302   1.115   .     S
C1257  H1304   1.110   .     S
C1257  H1305   1.106   .     S
C1257  C171    1.526   1_556 S
C1258  C1275   1.414   .     A
C1258  O1346   1.385   .     S
C1258  N1344   1.369   .     A
C1259  H1306   1.111   .     S
C1259  H1307   1.111   .     S
C1259  H1308   1.107   .     S
C1260  O1349   1.413   .     S
C1260  H1310   1.110   .     S
C1260  H1309   1.116   .     S
C1261  C1262   1.527   .     S
C1261  H1311   1.112   .     S
C1261  C1124   1.530   1_655 S
C1261  H1177   1.112   1_655 S
C1262  H1316   1.111   .     S
C1262  H1315   1.110   .     S
C1262  H1314   1.109   .     S
C1263  O1350   1.417   .     S
C1263  C1264   1.530   .     S
C1263  H1318   1.116   .     S
C1263  H1181   1.111   1_655 S
C1264  H1320   1.111   .     S
C1264  H1319   1.111   .     S
C1265  H1324   1.110   .     S
C1265  H1321   1.110   .     S
C1265  H1322   1.110   .     S
C1265  C176    1.526   1_556 S
C1266  H1326   1.105   .     S
C1266  O1351   1.413   .     S
C1266  C1267   1.538   .     S
C1266  H1325   1.111   .     S
C1267  H1328   1.109   .     S
C1267  H1327   1.111   .     S
C1267  C1268   1.526   .     S
C1268  H1329   1.110   .     S
C1268  H1331   1.111   .     S
C1268  H1330   1.110   .     S
C1269  O1347   1.385   .     S
C1269  N1343   1.369   .     A
C1269  C1276   1.414   .     A
C1270  O1352   1.418   .     S
C1270  H1332   1.110   .     S
C1270  C1271   1.534   .     S
C1270  H1333   1.114   .     S
C1271  H1335   1.109   .     S
C1271  H1336   1.111   .     S
C1271  C1272   1.527   .     S
C1272  H1338   1.110   .     S
C1272  H1339   1.111   .     S
C1272  H1337   1.110   .     S
C1273  N1344   1.369   .     A
C1273  O1348   1.385   .     S
C1274  H1323   1.077   .     S
C1275  H1334   1.079   .     S
C1276  H1340   1.078   .     S
Cu1277 N1344   2.016   .     S
Cu1277 Cu1278  2.684   .     S
Cu1277 O1356   1.922   .     S
Cu1277 O1358   1.922   .     S
Cu1277 O1345   1.950   .     S
Cu1277 O1354   1.950   .     S
Cu1278 O1355   1.950   .     S
Cu1278 N1343   2.016   .     S
Cu1278 O1357   1.922   .     S
Cu1278 O1353   1.950   .     S
Cu1278 O1359   1.922   .     S
C1361  C1378   1.461   .     S
C1361  O1491   1.296   .     A
C1361  O1481   1.296   .     A
C1362  C1366   1.409   .     A
C1362  H1477   1.078   .     S
C1362  C1409   1.414   .     A
C1363  C1367   1.400   .     S
C1363  O1495   1.287   .     A
C1363  O1492   1.288   .     A
C1364  C1368   1.400   .     S
C1364  O1494   1.287   .     A
C1364  O1493   1.287   .     A
C1365  C1412   1.410   .     A
C1365  C1410   1.410   .     A
C1366  C1411   1.410   .     A
C1366  C1093   1.524   1_565 S
C1368  C279    1.185   1_556 S
C1369  C1374   1.399   .     A
C1369  O1485   1.389   .     S
C1369  C1380   1.408   .     A
C1370  C1375   1.388   .     A
C1370  C1381   1.409   .     A
C1370  O1486   1.384   .     S
C1371  C1381   1.411   .     A
C1371  O1487   1.402   .     S
C1371  C1376   1.412   .     A
C1372  O1490   1.293   .     A
C1372  O1489   1.294   .     A
C1372  C1379   1.453   .     S
C1373  O1488   1.396   .     S
C1373  C1380   1.409   .     A
C1373  C1377   1.405   .     A
C1374  C1378   1.399   .     A
C1374  H1415   1.082   .     S
C1375  C1379   1.394   .     A
C1375  H1426   1.084   .     S
C1376  H1437   1.079   .     S
C1376  C1379   1.399   .     A
C1377  H1448   1.080   .     S
C1377  C1378   1.400   .     A
C1380  C1517   1.467   1_455 S
C1381  C1516   1.467   .     S
C1382  H1478   1.111   .     S
C1382  H1416   1.118   .     S
C1382  O1496   1.420   .     S
C1382  C1384   1.530   .     S
C1383  O1496   1.386   .     S
C1383  N1479   1.367   .     A
C1383  C1410   1.414   .     A
C1384  H1417   1.112   .     S
C1384  C1385   1.526   .     S
C1384  H1418   1.111   .     S
C1385  H1420   1.110   .     S
C1385  H1421   1.110   .     S
C1385  H1419   1.111   .     S
C1386  H1423   1.117   .     S
C1386  C1387   1.528   .     S
C1386  H1422   1.110   .     S
C1386  O1482   1.420   .     S
C1387  H1425   1.111   .     S
C1387  H1424   1.111   .     S
C1388  H1428   1.110   .     S
C1388  H1429   1.111   .     S
C1388  H1427   1.111   .     S
C1388  C299    1.527   1_556 S
C1389  C1390   1.530   .     S
C1389  H1430   1.109   .     S
C1389  O1483   1.418   .     S
C1389  H1431   1.117   .     S
C1390  C1391   1.527   .     S
C1390  H1433   1.111   .     S
C1390  H1432   1.112   .     S
C1391  H1435   1.110   .     S
C1391  H1434   1.111   .     S
C1391  H1436   1.111   .     S
C1392  O1484   1.417   .     S
C1392  C1393   1.528   .     S
C1392  H1439   1.112   .     S
C1392  H1438   1.115   .     S
C1393  H1440   1.110   .     S
C1393  H1441   1.106   .     S
C1393  C307    1.526   1_556 S
C1394  C1411   1.414   .     A
C1394  O1482   1.385   .     S
C1394  N1480   1.369   .     A
C1395  H1442   1.111   .     S
C1395  H1443   1.111   .     S
C1395  H1444   1.107   .     S
C1396  O1485   1.413   .     S
C1396  H1446   1.110   .     S
C1396  H1445   1.116   .     S
C1396  C1533   1.530   1_455 S
C1397  C1398   1.527   .     S
C1397  H1447   1.112   .     S
C1397  C1532   1.530   .     S
C1397  H1585   1.112   .     S
C1398  H1452   1.111   .     S
C1398  H1451   1.110   .     S
C1398  H1450   1.109   .     S
C1399  O1486   1.417   .     S
C1399  C1400   1.530   .     S
C1399  H1454   1.116   .     S
C1399  H1589   1.111   .     S
C1400  H1456   1.111   .     S
C1400  H1455   1.111   .     S
C1401  H1460   1.110   .     S
C1401  H1457   1.110   .     S
C1401  H1458   1.110   .     S
C1401  C312    1.526   1_556 S
C1402  H1462   1.105   .     S
C1402  O1487   1.413   .     S
C1402  C1403   1.538   .     S
C1402  H1461   1.111   .     S
C1403  H1464   1.109   .     S
C1403  H1463   1.111   .     S
C1403  C1404   1.526   .     S
C1404  H1465   1.110   .     S
C1404  H1467   1.111   .     S
C1404  H1466   1.110   .     S
C1405  O1483   1.385   .     S
C1405  N1479   1.369   .     A
C1405  C1412   1.414   .     A
C1406  O1488   1.418   .     S
C1406  H1468   1.110   .     S
C1406  C1407   1.534   .     S
C1406  H1469   1.114   .     S
C1407  H1471   1.109   .     S
C1407  H1472   1.111   .     S
C1407  C1408   1.527   .     S
C1408  H1474   1.110   .     S
C1408  H1475   1.111   .     S
C1408  H1473   1.110   .     S
C1409  N1480   1.369   .     A
C1409  O1484   1.385   .     S
C1410  H1459   1.077   .     S
C1411  H1470   1.079   .     S
C1412  H1476   1.078   .     S
Cu1413 N1480   2.016   .     S
Cu1413 Cu1414  2.684   .     S
Cu1413 O1492   1.922   .     S
Cu1413 O1494   1.922   .     S
Cu1413 O1481   1.950   .     S
Cu1413 O1490   1.950   .     S
Cu1414 O1491   1.950   .     S
Cu1414 N1479   2.016   .     S
Cu1414 O1493   1.922   .     S
Cu1414 O1489   1.950   .     S
Cu1414 O1495   1.922   .     S
H1449  C1533   1.112   1_455 S
H1453  C1535   1.111   1_455 S
C1497  C1514   1.461   .     S
C1497  O1627   1.296   .     A
C1497  O1617   1.296   .     A
C1498  C1502   1.409   .     A
C1498  H1613   1.078   .     S
C1498  C1545   1.414   .     A
C1499  C1503   1.400   .     S
C1499  O1631   1.287   .     A
C1499  O1628   1.288   .     A
C1500  C1504   1.400   .     S
C1500  O1630   1.287   .     A
C1500  O1629   1.287   .     A
C1501  C1548   1.410   .     A
C1501  C1546   1.410   .     A
C1502  C1547   1.410   .     A
C1502  C1229   1.524   1_565 S
C1504  C415    1.185   1_556 S
C1505  C1510   1.399   .     A
C1505  O1621   1.389   .     S
C1505  C1516   1.408   .     A
C1506  C1511   1.388   .     A
C1506  C1517   1.409   .     A
C1506  O1622   1.384   .     S
C1507  C1517   1.411   .     A
C1507  O1623   1.402   .     S
C1507  C1512   1.412   .     A
C1508  O1626   1.293   .     A
C1508  O1625   1.294   .     A
C1508  C1515   1.453   .     S
C1509  O1624   1.396   .     S
C1509  C1516   1.409   .     A
C1509  C1513   1.405   .     A
C1510  C1514   1.399   .     A
C1510  H1551   1.082   .     S
C1511  C1515   1.394   .     A
C1511  H1562   1.084   .     S
C1512  H1573   1.079   .     S
C1512  C1515   1.399   .     A
C1513  H1584   1.080   .     S
C1513  C1514   1.400   .     A
C1517  C1380   1.467   1_655 S
C1518  H1614   1.111   .     S
C1518  H1552   1.118   .     S
C1518  O1632   1.420   .     S
C1518  C1520   1.530   .     S
C1519  O1632   1.386   .     S
C1519  N1615   1.367   .     A
C1519  C1546   1.414   .     A
C1520  H1553   1.112   .     S
C1520  C1521   1.526   .     S
C1520  H1554   1.111   .     S
C1521  H1556   1.110   .     S
C1521  H1557   1.110   .     S
C1521  H1555   1.111   .     S
C1522  H1559   1.117   .     S
C1522  C1523   1.528   .     S
C1522  H1558   1.110   .     S
C1522  O1618   1.420   .     S
C1523  H1561   1.111   .     S
C1523  H1560   1.111   .     S
C1524  H1564   1.110   .     S
C1524  H1565   1.111   .     S
C1524  H1563   1.111   .     S
C1524  C435    1.527   1_556 S
C1525  C1526   1.530   .     S
C1525  H1566   1.109   .     S
C1525  O1619   1.418   .     S
C1525  H1567   1.117   .     S
C1526  C1527   1.527   .     S
C1526  H1569   1.111   .     S
C1526  H1568   1.112   .     S
C1527  H1571   1.110   .     S
C1527  H1570   1.111   .     S
C1527  H1572   1.111   .     S
C1528  O1620   1.417   .     S
C1528  C1529   1.528   .     S
C1528  H1575   1.112   .     S
C1528  H1574   1.115   .     S
C1529  H1576   1.110   .     S
C1529  H1577   1.106   .     S
C1529  C443    1.526   1_556 S
C1530  C1547   1.414   .     A
C1530  O1618   1.385   .     S
C1530  N1616   1.369   .     A
C1531  H1578   1.111   .     S
C1531  H1579   1.111   .     S
C1531  H1580   1.107   .     S
C1532  O1621   1.413   .     S
C1532  H1582   1.110   .     S
C1532  H1581   1.116   .     S
C1533  C1534   1.527   .     S
C1533  H1583   1.112   .     S
C1533  C1396   1.530   1_655 S
C1533  H1449   1.112   1_655 S
C1534  H1588   1.111   .     S
C1534  H1587   1.110   .     S
C1534  H1586   1.109   .     S
C1535  O1622   1.417   .     S
C1535  C1536   1.530   .     S
C1535  H1590   1.116   .     S
C1535  H1453   1.111   1_655 S
C1536  H1592   1.111   .     S
C1536  H1591   1.111   .     S
C1537  H1596   1.110   .     S
C1537  H1593   1.110   .     S
C1537  H1594   1.110   .     S
C1537  C448    1.526   1_556 S
C1538  H1598   1.105   .     S
C1538  O1623   1.413   .     S
C1538  C1539   1.538   .     S
C1538  H1597   1.111   .     S
C1539  H1600   1.109   .     S
C1539  H1599   1.111   .     S
C1539  C1540   1.526   .     S
C1540  H1601   1.110   .     S
C1540  H1603   1.111   .     S
C1540  H1602   1.110   .     S
C1541  O1619   1.385   .     S
C1541  N1615   1.369   .     A
C1541  C1548   1.414   .     A
C1542  O1624   1.418   .     S
C1542  H1604   1.110   .     S
C1542  C1543   1.534   .     S
C1542  H1605   1.114   .     S
C1543  H1607   1.109   .     S
C1543  H1608   1.111   .     S
C1543  C1544   1.527   .     S
C1544  H1610   1.110   .     S
C1544  H1611   1.111   .     S
C1544  H1609   1.110   .     S
C1545  N1616   1.369   .     A
C1545  O1620   1.385   .     S
C1546  H1595   1.077   .     S
C1547  H1606   1.079   .     S
C1548  H1612   1.078   .     S
Cu1549 N1616   2.016   .     S
Cu1549 Cu1550  2.684   .     S
Cu1549 O1628   1.922   .     S
Cu1549 O1630   1.922   .     S
Cu1549 O1617   1.950   .     S
Cu1549 O1626   1.950   .     S
Cu1550 O1627   1.950   .     S
Cu1550 N1615   2.016   .     S
Cu1550 O1629   1.922   .     S
Cu1550 O1625   1.950   .     S
Cu1550 O1631   1.922   .     S
