data_str_m2_o10_o17_pcu_sym.207
_audit_creation_date              2020-01-03
_audit_creation_method            'Materials Studio'
_symmetry_space_group_name_H-M    'P1'
_symmetry_Int_Tables_number       1
_symmetry_cell_setting            triclinic
loop_
_symmetry_equiv_pos_as_xyz
  x,y,z
_cell_length_a                    29.8951
_cell_length_b                    26.0078
_cell_length_c                    22.5992
_cell_angle_alpha                 103.5906
_cell_angle_beta                  93.9942
_cell_angle_gamma                 93.1555
loop_
_atom_site_label
_atom_site_type_symbol
_atom_site_fract_x
_atom_site_fract_y
_atom_site_fract_z
_atom_site_U_iso_or_equiv
_atom_site_adp_type
_atom_site_occupancy
C1     C     0.24852   0.06659   0.15096   0.00000  Uiso   1.00
C2     C     0.25148   0.26674   0.18238   0.00000  Uiso   1.00
C3     C     0.01877   0.07058   0.13764   0.00000  Uiso   1.00
C4     C     0.48123   0.26276   0.19570   0.00000  Uiso   1.00
C5     C     0.24776   0.01037   0.14241   0.00000  Uiso   1.00
C6     C     0.25224   0.32297   0.19093   0.00000  Uiso   1.00
C7     C     0.16478   0.16711   0.16759   0.00000  Uiso   1.00
C8     C     0.33522   0.16622   0.16575   0.00000  Uiso   1.00
C9     C     0.40889   0.21323   0.17875   0.00000  Uiso   1.00
C10    C     0.09111   0.12011   0.15458   0.00000  Uiso   1.00
C11    C     0.38318   0.16493   0.16366   0.00000  Uiso   1.00
C12    C     0.11682   0.16840   0.16967   0.00000  Uiso   1.00
C13    C     0.40330   0.11628   0.14970   0.00000  Uiso   1.00
C14    C     0.09670   0.21705   0.18363   0.00000  Uiso   1.00
C15    C     0.45042   0.11684   0.15051   0.00000  Uiso   1.00
C16    C     0.04958   0.21650   0.18282   0.00000  Uiso   1.00
C17    C     0.47644   0.16609   0.16598   0.00000  Uiso   1.00
C18    C     0.02356   0.16725   0.16736   0.00000  Uiso   1.00
C19    C     0.45544   0.21425   0.18008   0.00000  Uiso   1.00
C20    C     0.04456   0.11909   0.15325   0.00000  Uiso   1.00
C21    C     0.47213   0.06940   0.13598   0.00000  Uiso   1.00
C22    C     0.02787   0.26393   0.19735   0.00000  Uiso   1.00
Cu23   Cu    0.25500   0.17246   0.22813   0.00000  Uiso   1.00
Cu24   Cu    0.24499   0.16087   0.10521   0.00000  Uiso   1.00
H25    H     0.39243   0.25005   0.18985   0.00000  Uiso   1.00
H26    H     0.10757   0.08328   0.14349   0.00000  Uiso   1.00
H27    H     0.45328   0.03113   0.12322   0.00000  Uiso   1.00
H28    H     0.04672   0.30221   0.21011   0.00000  Uiso   1.00
H29    H     0.03469   0.03346   0.12652   0.00000  Uiso   1.00
H30    H     0.46531   0.29988   0.20682   0.00000  Uiso   1.00
H31    H     0.24345   0.31931   0.09591   0.00000  Uiso   1.00
H32    H     0.25655   0.01403   0.23742   0.00000  Uiso   1.00
N33    N     0.23744   0.15214   0.01284   0.00000  Uiso   1.00
N34    N     0.26255   0.18119   0.32049   0.00000  Uiso   1.00
O35    O     0.25325   0.09538   0.20659   0.00000  Uiso   1.00
O36    O     0.24674   0.23796   0.12674   0.00000  Uiso   1.00
O37    O     0.24480   0.08559   0.10279   0.00000  Uiso   1.00
O38    O     0.25520   0.24774   0.23055   0.00000  Uiso   1.00
O39    O     0.18935   0.17155   0.21857   0.00000  Uiso   1.00
O40    O     0.31064   0.16179   0.11476   0.00000  Uiso   1.00
O41    O     0.18090   0.16176   0.11477   0.00000  Uiso   1.00
O42    O     0.31910   0.17157   0.21857   0.00000  Uiso   1.00
N43    N     0.37649   0.06712   0.13505   0.00000  Uiso   1.00
H44    H     0.34687   0.06708   0.10878   0.00000  Uiso   1.00
C45    C     0.37018   0.04413   0.18657   0.00000  Uiso   1.00
H46    H     0.34987   0.06948   0.21953   0.00000  Uiso   1.00
H47    H     0.40311   0.03966   0.21011   0.00000  Uiso   1.00
H48    H     0.35224   0.00422   0.17024   0.00000  Uiso   1.00
N49    N     0.12351   0.26621   0.19828   0.00000  Uiso   1.00
H50    H     0.15313   0.26625   0.22455   0.00000  Uiso   1.00
C51    C     0.12981   0.28920   0.14676   0.00000  Uiso   1.00
H52    H     0.15012   0.26385   0.11380   0.00000  Uiso   1.00
H53    H     0.14776   0.32911   0.16309   0.00000  Uiso   1.00
H54    H     0.09689   0.29368   0.12323   0.00000  Uiso   1.00
C55    C     0.19454   0.13268   0.31674   0.00000  Uiso   1.00
O56    O     0.18865   0.08698   0.28627   0.00000  Uiso   1.00
O57    O     0.15830   0.16454   0.32659   0.00000  Uiso   1.00
H58    H     0.12901   0.14579   0.30469   0.00000  Uiso   1.00
C59    C     0.30546   0.20066   0.01659   0.00000  Uiso   1.00
O60    O     0.31135   0.24635   0.04706   0.00000  Uiso   1.00
O61    O     0.34170   0.16879   0.00675   0.00000  Uiso   1.00
H62    H     0.37099   0.18754   0.02864   0.00000  Uiso   1.00
C63    C     0.74852   0.06659   0.15096   0.00000  Uiso   1.00
C64    C     0.75148   0.26674   0.18238   0.00000  Uiso   1.00
C65    C     0.51877   0.07058   0.13764   0.00000  Uiso   1.00
C66    C     0.98123   0.26276   0.19570   0.00000  Uiso   1.00
C67    C     0.74776   0.01037   0.14241   0.00000  Uiso   1.00
C68    C     0.75224   0.32297   0.19093   0.00000  Uiso   1.00
C69    C     0.66478   0.16711   0.16759   0.00000  Uiso   1.00
C70    C     0.83522   0.16622   0.16575   0.00000  Uiso   1.00
C71    C     0.90889   0.21323   0.17875   0.00000  Uiso   1.00
C72    C     0.59111   0.12011   0.15458   0.00000  Uiso   1.00
C73    C     0.88318   0.16493   0.16366   0.00000  Uiso   1.00
C74    C     0.61682   0.16840   0.16967   0.00000  Uiso   1.00
C75    C     0.90330   0.11628   0.14970   0.00000  Uiso   1.00
C76    C     0.59670   0.21705   0.18363   0.00000  Uiso   1.00
C77    C     0.95042   0.11684   0.15051   0.00000  Uiso   1.00
C78    C     0.54958   0.21650   0.18282   0.00000  Uiso   1.00
C79    C     0.97644   0.16609   0.16598   0.00000  Uiso   1.00
C80    C     0.52356   0.16725   0.16736   0.00000  Uiso   1.00
C81    C     0.95544   0.21425   0.18008   0.00000  Uiso   1.00
C82    C     0.54456   0.11909   0.15325   0.00000  Uiso   1.00
C83    C     0.97213   0.06940   0.13598   0.00000  Uiso   1.00
C84    C     0.52787   0.26393   0.19735   0.00000  Uiso   1.00
Cu85   Cu    0.75500   0.17246   0.22813   0.00000  Uiso   1.00
Cu86   Cu    0.74499   0.16087   0.10521   0.00000  Uiso   1.00
H87    H     0.89243   0.25005   0.18985   0.00000  Uiso   1.00
H88    H     0.60757   0.08328   0.14349   0.00000  Uiso   1.00
H89    H     0.95328   0.03113   0.12322   0.00000  Uiso   1.00
H90    H     0.54672   0.30221   0.21011   0.00000  Uiso   1.00
H91    H     0.53469   0.03346   0.12652   0.00000  Uiso   1.00
H92    H     0.96531   0.29988   0.20682   0.00000  Uiso   1.00
H93    H     0.74345   0.31931   0.09591   0.00000  Uiso   1.00
H94    H     0.75655   0.01403   0.23742   0.00000  Uiso   1.00
N95    N     0.73744   0.15214   0.01284   0.00000  Uiso   1.00
N96    N     0.76255   0.18119   0.32049   0.00000  Uiso   1.00
O97    O     0.75325   0.09538   0.20659   0.00000  Uiso   1.00
O98    O     0.74674   0.23796   0.12674   0.00000  Uiso   1.00
O99    O     0.74480   0.08559   0.10279   0.00000  Uiso   1.00
O100   O     0.75520   0.24774   0.23055   0.00000  Uiso   1.00
O101   O     0.68935   0.17155   0.21857   0.00000  Uiso   1.00
O102   O     0.81064   0.16179   0.11476   0.00000  Uiso   1.00
O103   O     0.68090   0.16176   0.11477   0.00000  Uiso   1.00
O104   O     0.81910   0.17157   0.21857   0.00000  Uiso   1.00
N105   N     0.87649   0.06712   0.13505   0.00000  Uiso   1.00
H106   H     0.84687   0.06708   0.10878   0.00000  Uiso   1.00
C107   C     0.87018   0.04413   0.18657   0.00000  Uiso   1.00
H108   H     0.84987   0.06948   0.21953   0.00000  Uiso   1.00
H109   H     0.90311   0.03966   0.21011   0.00000  Uiso   1.00
H110   H     0.85224   0.00422   0.17024   0.00000  Uiso   1.00
N111   N     0.62351   0.26621   0.19828   0.00000  Uiso   1.00
H112   H     0.65313   0.26625   0.22455   0.00000  Uiso   1.00
C113   C     0.62981   0.28920   0.14676   0.00000  Uiso   1.00
H114   H     0.65012   0.26385   0.11380   0.00000  Uiso   1.00
H115   H     0.64776   0.32911   0.16309   0.00000  Uiso   1.00
H116   H     0.59689   0.29368   0.12323   0.00000  Uiso   1.00
C117   C     0.69454   0.13268   0.31674   0.00000  Uiso   1.00
O118   O     0.68865   0.08698   0.28627   0.00000  Uiso   1.00
O119   O     0.65830   0.16454   0.32659   0.00000  Uiso   1.00
H120   H     0.62901   0.14579   0.30469   0.00000  Uiso   1.00
C121   C     0.80546   0.20066   0.01659   0.00000  Uiso   1.00
O122   O     0.81135   0.24635   0.04706   0.00000  Uiso   1.00
O123   O     0.84170   0.16879   0.00675   0.00000  Uiso   1.00
H124   H     0.87099   0.18754   0.02864   0.00000  Uiso   1.00
C125   C     0.24852   0.39993   0.15096   0.00000  Uiso   1.00
C126   C     0.25148   0.60007   0.18238   0.00000  Uiso   1.00
C127   C     0.01877   0.40391   0.13764   0.00000  Uiso   1.00
C128   C     0.48123   0.59609   0.19570   0.00000  Uiso   1.00
C129   C     0.24776   0.34370   0.14241   0.00000  Uiso   1.00
C130   C     0.25224   0.65630   0.19093   0.00000  Uiso   1.00
C131   C     0.16478   0.50045   0.16759   0.00000  Uiso   1.00
C132   C     0.33522   0.49955   0.16575   0.00000  Uiso   1.00
C133   C     0.40889   0.54656   0.17875   0.00000  Uiso   1.00
C134   C     0.09111   0.45344   0.15458   0.00000  Uiso   1.00
C135   C     0.38318   0.49827   0.16366   0.00000  Uiso   1.00
C136   C     0.11682   0.50173   0.16967   0.00000  Uiso   1.00
C137   C     0.40330   0.44961   0.14970   0.00000  Uiso   1.00
C138   C     0.09670   0.55039   0.18363   0.00000  Uiso   1.00
C139   C     0.45042   0.45017   0.15051   0.00000  Uiso   1.00
C140   C     0.04958   0.54983   0.18282   0.00000  Uiso   1.00
C141   C     0.47644   0.49942   0.16598   0.00000  Uiso   1.00
C142   C     0.02356   0.50058   0.16736   0.00000  Uiso   1.00
C143   C     0.45544   0.54758   0.18008   0.00000  Uiso   1.00
C144   C     0.04456   0.45242   0.15325   0.00000  Uiso   1.00
C145   C     0.47213   0.40273   0.13598   0.00000  Uiso   1.00
C146   C     0.02787   0.59727   0.19735   0.00000  Uiso   1.00
Cu147  Cu    0.25500   0.50579   0.22813   0.00000  Uiso   1.00
Cu148  Cu    0.24499   0.49421   0.10521   0.00000  Uiso   1.00
H149   H     0.39243   0.58339   0.18985   0.00000  Uiso   1.00
H150   H     0.10757   0.41661   0.14349   0.00000  Uiso   1.00
H151   H     0.45328   0.36446   0.12322   0.00000  Uiso   1.00
H152   H     0.04672   0.63554   0.21011   0.00000  Uiso   1.00
H153   H     0.03469   0.36679   0.12652   0.00000  Uiso   1.00
H154   H     0.46531   0.63321   0.20682   0.00000  Uiso   1.00
H155   H     0.24345   0.65264   0.09591   0.00000  Uiso   1.00
H156   H     0.25655   0.34736   0.23742   0.00000  Uiso   1.00
N157   N     0.23744   0.48547   0.01284   0.00000  Uiso   1.00
N158   N     0.26255   0.51453   0.32049   0.00000  Uiso   1.00
O159   O     0.25325   0.42871   0.20659   0.00000  Uiso   1.00
O160   O     0.24674   0.57129   0.12674   0.00000  Uiso   1.00
O161   O     0.24480   0.41892   0.10279   0.00000  Uiso   1.00
O162   O     0.25520   0.58108   0.23055   0.00000  Uiso   1.00
O163   O     0.18935   0.50488   0.21857   0.00000  Uiso   1.00
O164   O     0.31064   0.49512   0.11476   0.00000  Uiso   1.00
O165   O     0.18090   0.49510   0.11477   0.00000  Uiso   1.00
O166   O     0.31910   0.50490   0.21857   0.00000  Uiso   1.00
N167   N     0.37649   0.40046   0.13505   0.00000  Uiso   1.00
H168   H     0.34687   0.40042   0.10878   0.00000  Uiso   1.00
C169   C     0.37018   0.37747   0.18657   0.00000  Uiso   1.00
H170   H     0.34987   0.40282   0.21953   0.00000  Uiso   1.00
H171   H     0.40311   0.37299   0.21011   0.00000  Uiso   1.00
H172   H     0.35224   0.33755   0.17024   0.00000  Uiso   1.00
N173   N     0.12351   0.59954   0.19828   0.00000  Uiso   1.00
H174   H     0.15313   0.59958   0.22455   0.00000  Uiso   1.00
C175   C     0.12981   0.62253   0.14676   0.00000  Uiso   1.00
H176   H     0.15012   0.59718   0.11380   0.00000  Uiso   1.00
H177   H     0.14776   0.66245   0.16309   0.00000  Uiso   1.00
H178   H     0.09689   0.62701   0.12323   0.00000  Uiso   1.00
C179   C     0.19454   0.46601   0.31674   0.00000  Uiso   1.00
O180   O     0.18865   0.42032   0.28627   0.00000  Uiso   1.00
O181   O     0.15830   0.49787   0.32659   0.00000  Uiso   1.00
H182   H     0.12901   0.47913   0.30469   0.00000  Uiso   1.00
C183   C     0.30546   0.53399   0.01659   0.00000  Uiso   1.00
O184   O     0.31135   0.57968   0.04706   0.00000  Uiso   1.00
O185   O     0.34170   0.50213   0.00675   0.00000  Uiso   1.00
H186   H     0.37099   0.52087   0.02864   0.00000  Uiso   1.00
C187   C     0.74852   0.39993   0.15096   0.00000  Uiso   1.00
C188   C     0.75148   0.60007   0.18238   0.00000  Uiso   1.00
C189   C     0.51877   0.40391   0.13764   0.00000  Uiso   1.00
C190   C     0.98123   0.59609   0.19570   0.00000  Uiso   1.00
C191   C     0.74776   0.34370   0.14241   0.00000  Uiso   1.00
C192   C     0.75224   0.65630   0.19093   0.00000  Uiso   1.00
C193   C     0.66478   0.50045   0.16759   0.00000  Uiso   1.00
C194   C     0.83522   0.49955   0.16575   0.00000  Uiso   1.00
C195   C     0.90889   0.54656   0.17875   0.00000  Uiso   1.00
C196   C     0.59111   0.45344   0.15458   0.00000  Uiso   1.00
C197   C     0.88318   0.49827   0.16366   0.00000  Uiso   1.00
C198   C     0.61682   0.50173   0.16967   0.00000  Uiso   1.00
C199   C     0.90330   0.44961   0.14970   0.00000  Uiso   1.00
C200   C     0.59670   0.55039   0.18363   0.00000  Uiso   1.00
C201   C     0.95042   0.45017   0.15051   0.00000  Uiso   1.00
C202   C     0.54958   0.54983   0.18282   0.00000  Uiso   1.00
C203   C     0.97644   0.49942   0.16598   0.00000  Uiso   1.00
C204   C     0.52356   0.50058   0.16736   0.00000  Uiso   1.00
C205   C     0.95544   0.54758   0.18008   0.00000  Uiso   1.00
C206   C     0.54456   0.45242   0.15325   0.00000  Uiso   1.00
C207   C     0.97213   0.40273   0.13598   0.00000  Uiso   1.00
C208   C     0.52787   0.59727   0.19735   0.00000  Uiso   1.00
Cu209  Cu    0.75500   0.50579   0.22813   0.00000  Uiso   1.00
Cu210  Cu    0.74499   0.49421   0.10521   0.00000  Uiso   1.00
H211   H     0.89243   0.58339   0.18985   0.00000  Uiso   1.00
H212   H     0.60757   0.41661   0.14349   0.00000  Uiso   1.00
H213   H     0.95328   0.36446   0.12322   0.00000  Uiso   1.00
H214   H     0.54672   0.63554   0.21011   0.00000  Uiso   1.00
H215   H     0.53469   0.36679   0.12652   0.00000  Uiso   1.00
H216   H     0.96531   0.63321   0.20682   0.00000  Uiso   1.00
H217   H     0.74345   0.65264   0.09591   0.00000  Uiso   1.00
H218   H     0.75655   0.34736   0.23742   0.00000  Uiso   1.00
N219   N     0.73744   0.48547   0.01284   0.00000  Uiso   1.00
N220   N     0.76255   0.51453   0.32049   0.00000  Uiso   1.00
O221   O     0.75325   0.42871   0.20659   0.00000  Uiso   1.00
O222   O     0.74674   0.57129   0.12674   0.00000  Uiso   1.00
O223   O     0.74480   0.41892   0.10279   0.00000  Uiso   1.00
O224   O     0.75520   0.58108   0.23055   0.00000  Uiso   1.00
O225   O     0.68935   0.50488   0.21857   0.00000  Uiso   1.00
O226   O     0.81064   0.49512   0.11476   0.00000  Uiso   1.00
O227   O     0.68090   0.49510   0.11477   0.00000  Uiso   1.00
O228   O     0.81910   0.50490   0.21857   0.00000  Uiso   1.00
N229   N     0.87649   0.40046   0.13505   0.00000  Uiso   1.00
H230   H     0.84687   0.40042   0.10878   0.00000  Uiso   1.00
C231   C     0.87018   0.37747   0.18657   0.00000  Uiso   1.00
H232   H     0.84987   0.40282   0.21953   0.00000  Uiso   1.00
H233   H     0.90311   0.37299   0.21011   0.00000  Uiso   1.00
H234   H     0.85224   0.33755   0.17024   0.00000  Uiso   1.00
N235   N     0.62351   0.59954   0.19828   0.00000  Uiso   1.00
H236   H     0.65313   0.59958   0.22455   0.00000  Uiso   1.00
C237   C     0.62981   0.62253   0.14676   0.00000  Uiso   1.00
H238   H     0.65012   0.59718   0.11380   0.00000  Uiso   1.00
H239   H     0.64776   0.66245   0.16309   0.00000  Uiso   1.00
H240   H     0.59689   0.62701   0.12323   0.00000  Uiso   1.00
C241   C     0.69454   0.46601   0.31674   0.00000  Uiso   1.00
O242   O     0.68865   0.42032   0.28627   0.00000  Uiso   1.00
O243   O     0.65830   0.49787   0.32659   0.00000  Uiso   1.00
H244   H     0.62901   0.47913   0.30469   0.00000  Uiso   1.00
C245   C     0.80546   0.53399   0.01659   0.00000  Uiso   1.00
O246   O     0.81135   0.57968   0.04706   0.00000  Uiso   1.00
O247   O     0.84170   0.50213   0.00675   0.00000  Uiso   1.00
H248   H     0.87099   0.52087   0.02864   0.00000  Uiso   1.00
C249   C     0.24852   0.73326   0.15096   0.00000  Uiso   1.00
C250   C     0.25148   0.93341   0.18238   0.00000  Uiso   1.00
C251   C     0.01877   0.73725   0.13764   0.00000  Uiso   1.00
C252   C     0.48123   0.92942   0.19570   0.00000  Uiso   1.00
C253   C     0.24776   0.67704   0.14241   0.00000  Uiso   1.00
C254   C     0.25224   0.98963   0.19093   0.00000  Uiso   1.00
C255   C     0.16478   0.83378   0.16759   0.00000  Uiso   1.00
C256   C     0.33522   0.83289   0.16575   0.00000  Uiso   1.00
C257   C     0.40889   0.87989   0.17875   0.00000  Uiso   1.00
C258   C     0.09111   0.78677   0.15458   0.00000  Uiso   1.00
C259   C     0.38318   0.83160   0.16366   0.00000  Uiso   1.00
C260   C     0.11682   0.83507   0.16967   0.00000  Uiso   1.00
C261   C     0.40330   0.78295   0.14970   0.00000  Uiso   1.00
C262   C     0.09670   0.88372   0.18363   0.00000  Uiso   1.00
C263   C     0.45042   0.78350   0.15051   0.00000  Uiso   1.00
C264   C     0.04958   0.88316   0.18282   0.00000  Uiso   1.00
C265   C     0.47644   0.83275   0.16598   0.00000  Uiso   1.00
C266   C     0.02356   0.83391   0.16736   0.00000  Uiso   1.00
C267   C     0.45544   0.88091   0.18008   0.00000  Uiso   1.00
C268   C     0.04456   0.78576   0.15325   0.00000  Uiso   1.00
C269   C     0.47213   0.73607   0.13598   0.00000  Uiso   1.00
C270   C     0.02787   0.93060   0.19735   0.00000  Uiso   1.00
Cu271  Cu    0.25500   0.83913   0.22813   0.00000  Uiso   1.00
Cu272  Cu    0.24499   0.82754   0.10521   0.00000  Uiso   1.00
H273   H     0.39243   0.91672   0.18985   0.00000  Uiso   1.00
H274   H     0.10757   0.74995   0.14349   0.00000  Uiso   1.00
H275   H     0.45328   0.69779   0.12322   0.00000  Uiso   1.00
H276   H     0.04672   0.96887   0.21011   0.00000  Uiso   1.00
H277   H     0.03469   0.70012   0.12652   0.00000  Uiso   1.00
H278   H     0.46531   0.96654   0.20682   0.00000  Uiso   1.00
H279   H     0.24345   0.98598   0.09591   0.00000  Uiso   1.00
H280   H     0.25655   0.68069   0.23742   0.00000  Uiso   1.00
N281   N     0.23744   0.81881   0.01284   0.00000  Uiso   1.00
N282   N     0.26255   0.84786   0.32049   0.00000  Uiso   1.00
O283   O     0.25325   0.76204   0.20659   0.00000  Uiso   1.00
O284   O     0.24674   0.90462   0.12674   0.00000  Uiso   1.00
O285   O     0.24480   0.75226   0.10279   0.00000  Uiso   1.00
O286   O     0.25520   0.91441   0.23055   0.00000  Uiso   1.00
O287   O     0.18935   0.83821   0.21857   0.00000  Uiso   1.00
O288   O     0.31064   0.82845   0.11476   0.00000  Uiso   1.00
O289   O     0.18090   0.82843   0.11477   0.00000  Uiso   1.00
O290   O     0.31910   0.83824   0.21857   0.00000  Uiso   1.00
N291   N     0.37649   0.73379   0.13505   0.00000  Uiso   1.00
H292   H     0.34687   0.73375   0.10878   0.00000  Uiso   1.00
C293   C     0.37018   0.71080   0.18657   0.00000  Uiso   1.00
H294   H     0.34987   0.73615   0.21953   0.00000  Uiso   1.00
H295   H     0.40311   0.70632   0.21011   0.00000  Uiso   1.00
H296   H     0.35224   0.67089   0.17024   0.00000  Uiso   1.00
N297   N     0.12351   0.93288   0.19828   0.00000  Uiso   1.00
H298   H     0.15313   0.93292   0.22455   0.00000  Uiso   1.00
C299   C     0.12981   0.95587   0.14676   0.00000  Uiso   1.00
H300   H     0.15012   0.93052   0.11380   0.00000  Uiso   1.00
H301   H     0.14776   0.99578   0.16309   0.00000  Uiso   1.00
H302   H     0.09689   0.96035   0.12323   0.00000  Uiso   1.00
C303   C     0.19454   0.79934   0.31674   0.00000  Uiso   1.00
O304   O     0.18865   0.75365   0.28627   0.00000  Uiso   1.00
O305   O     0.15830   0.83121   0.32659   0.00000  Uiso   1.00
H306   H     0.12901   0.81246   0.30469   0.00000  Uiso   1.00
C307   C     0.30546   0.86733   0.01659   0.00000  Uiso   1.00
O308   O     0.31135   0.91302   0.04706   0.00000  Uiso   1.00
O309   O     0.34170   0.83546   0.00675   0.00000  Uiso   1.00
H310   H     0.37099   0.85421   0.02864   0.00000  Uiso   1.00
C311   C     0.74852   0.73326   0.15096   0.00000  Uiso   1.00
C312   C     0.75148   0.93341   0.18238   0.00000  Uiso   1.00
C313   C     0.51877   0.73725   0.13764   0.00000  Uiso   1.00
C314   C     0.98123   0.92942   0.19570   0.00000  Uiso   1.00
C315   C     0.74776   0.67704   0.14241   0.00000  Uiso   1.00
C316   C     0.75224   0.98963   0.19093   0.00000  Uiso   1.00
C317   C     0.66478   0.83378   0.16759   0.00000  Uiso   1.00
C318   C     0.83522   0.83289   0.16575   0.00000  Uiso   1.00
C319   C     0.90889   0.87989   0.17875   0.00000  Uiso   1.00
C320   C     0.59111   0.78677   0.15458   0.00000  Uiso   1.00
C321   C     0.88318   0.83160   0.16366   0.00000  Uiso   1.00
C322   C     0.61682   0.83507   0.16967   0.00000  Uiso   1.00
C323   C     0.90330   0.78295   0.14970   0.00000  Uiso   1.00
C324   C     0.59670   0.88372   0.18363   0.00000  Uiso   1.00
C325   C     0.95042   0.78350   0.15051   0.00000  Uiso   1.00
C326   C     0.54958   0.88316   0.18282   0.00000  Uiso   1.00
C327   C     0.97644   0.83275   0.16598   0.00000  Uiso   1.00
C328   C     0.52356   0.83391   0.16736   0.00000  Uiso   1.00
C329   C     0.95544   0.88091   0.18008   0.00000  Uiso   1.00
C330   C     0.54456   0.78576   0.15325   0.00000  Uiso   1.00
C331   C     0.97213   0.73607   0.13598   0.00000  Uiso   1.00
C332   C     0.52787   0.93060   0.19735   0.00000  Uiso   1.00
Cu333  Cu    0.75500   0.83913   0.22813   0.00000  Uiso   1.00
Cu334  Cu    0.74499   0.82754   0.10521   0.00000  Uiso   1.00
H335   H     0.89243   0.91672   0.18985   0.00000  Uiso   1.00
H336   H     0.60757   0.74995   0.14349   0.00000  Uiso   1.00
H337   H     0.95328   0.69779   0.12322   0.00000  Uiso   1.00
H338   H     0.54672   0.96887   0.21011   0.00000  Uiso   1.00
H339   H     0.53469   0.70012   0.12652   0.00000  Uiso   1.00
H340   H     0.96531   0.96654   0.20682   0.00000  Uiso   1.00
H341   H     0.74345   0.98598   0.09591   0.00000  Uiso   1.00
H342   H     0.75655   0.68069   0.23742   0.00000  Uiso   1.00
N343   N     0.73744   0.81881   0.01284   0.00000  Uiso   1.00
N344   N     0.76255   0.84786   0.32049   0.00000  Uiso   1.00
O345   O     0.75325   0.76204   0.20659   0.00000  Uiso   1.00
O346   O     0.74674   0.90462   0.12674   0.00000  Uiso   1.00
O347   O     0.74480   0.75226   0.10279   0.00000  Uiso   1.00
O348   O     0.75520   0.91441   0.23055   0.00000  Uiso   1.00
O349   O     0.68935   0.83821   0.21857   0.00000  Uiso   1.00
O350   O     0.81064   0.82845   0.11476   0.00000  Uiso   1.00
O351   O     0.68090   0.82843   0.11477   0.00000  Uiso   1.00
O352   O     0.81910   0.83824   0.21857   0.00000  Uiso   1.00
N353   N     0.87649   0.73379   0.13505   0.00000  Uiso   1.00
H354   H     0.84687   0.73375   0.10878   0.00000  Uiso   1.00
C355   C     0.87018   0.71080   0.18657   0.00000  Uiso   1.00
H356   H     0.84987   0.73615   0.21953   0.00000  Uiso   1.00
H357   H     0.90311   0.70632   0.21011   0.00000  Uiso   1.00
H358   H     0.85224   0.67089   0.17024   0.00000  Uiso   1.00
N359   N     0.62351   0.93288   0.19828   0.00000  Uiso   1.00
H360   H     0.65313   0.93292   0.22455   0.00000  Uiso   1.00
C361   C     0.62981   0.95587   0.14676   0.00000  Uiso   1.00
H362   H     0.65012   0.93052   0.11380   0.00000  Uiso   1.00
H363   H     0.64776   0.99578   0.16309   0.00000  Uiso   1.00
H364   H     0.59689   0.96035   0.12323   0.00000  Uiso   1.00
C365   C     0.69454   0.79934   0.31674   0.00000  Uiso   1.00
O366   O     0.68865   0.75365   0.28627   0.00000  Uiso   1.00
O367   O     0.65830   0.83121   0.32659   0.00000  Uiso   1.00
H368   H     0.62901   0.81246   0.30469   0.00000  Uiso   1.00
C369   C     0.80546   0.86733   0.01659   0.00000  Uiso   1.00
O370   O     0.81135   0.91302   0.04706   0.00000  Uiso   1.00
O371   O     0.84170   0.83546   0.00675   0.00000  Uiso   1.00
H372   H     0.87099   0.85421   0.02864   0.00000  Uiso   1.00
C373   C     0.24852   0.06659   0.48429   0.00000  Uiso   1.00
C374   C     0.25148   0.26674   0.51571   0.00000  Uiso   1.00
C375   C     0.01877   0.07058   0.47097   0.00000  Uiso   1.00
C376   C     0.48123   0.26276   0.52903   0.00000  Uiso   1.00
C377   C     0.24776   0.01037   0.47574   0.00000  Uiso   1.00
C378   C     0.25224   0.32297   0.52426   0.00000  Uiso   1.00
C379   C     0.16478   0.16711   0.50092   0.00000  Uiso   1.00
C380   C     0.33522   0.16622   0.49908   0.00000  Uiso   1.00
C381   C     0.40889   0.21323   0.51208   0.00000  Uiso   1.00
C382   C     0.09111   0.12011   0.48792   0.00000  Uiso   1.00
C383   C     0.38318   0.16493   0.49699   0.00000  Uiso   1.00
C384   C     0.11682   0.16840   0.50301   0.00000  Uiso   1.00
C385   C     0.40330   0.11628   0.48304   0.00000  Uiso   1.00
C386   C     0.09670   0.21705   0.51696   0.00000  Uiso   1.00
C387   C     0.45042   0.11684   0.48384   0.00000  Uiso   1.00
C388   C     0.04958   0.21650   0.51616   0.00000  Uiso   1.00
C389   C     0.47644   0.16609   0.49931   0.00000  Uiso   1.00
C390   C     0.02356   0.16725   0.50069   0.00000  Uiso   1.00
C391   C     0.45544   0.21425   0.51342   0.00000  Uiso   1.00
C392   C     0.04456   0.11909   0.48658   0.00000  Uiso   1.00
C393   C     0.47213   0.06940   0.46932   0.00000  Uiso   1.00
C394   C     0.02787   0.26393   0.53068   0.00000  Uiso   1.00
Cu395  Cu    0.25500   0.17246   0.56146   0.00000  Uiso   1.00
Cu396  Cu    0.24499   0.16087   0.43854   0.00000  Uiso   1.00
H397   H     0.39243   0.25005   0.52318   0.00000  Uiso   1.00
H398   H     0.10757   0.08328   0.47682   0.00000  Uiso   1.00
H399   H     0.45328   0.03113   0.45656   0.00000  Uiso   1.00
H400   H     0.04672   0.30221   0.54344   0.00000  Uiso   1.00
H401   H     0.03469   0.03346   0.45985   0.00000  Uiso   1.00
H402   H     0.46531   0.29988   0.54015   0.00000  Uiso   1.00
H403   H     0.24345   0.31931   0.42924   0.00000  Uiso   1.00
H404   H     0.25655   0.01403   0.57076   0.00000  Uiso   1.00
N405   N     0.23744   0.15214   0.34617   0.00000  Uiso   1.00
N406   N     0.26255   0.18119   0.65383   0.00000  Uiso   1.00
O407   O     0.25325   0.09538   0.53992   0.00000  Uiso   1.00
O408   O     0.24674   0.23796   0.46008   0.00000  Uiso   1.00
O409   O     0.24480   0.08559   0.43612   0.00000  Uiso   1.00
O410   O     0.25520   0.24774   0.56388   0.00000  Uiso   1.00
O411   O     0.18935   0.17155   0.55191   0.00000  Uiso   1.00
O412   O     0.31064   0.16179   0.44809   0.00000  Uiso   1.00
O413   O     0.18090   0.16176   0.44810   0.00000  Uiso   1.00
O414   O     0.31910   0.17157   0.55190   0.00000  Uiso   1.00
N415   N     0.37649   0.06712   0.46839   0.00000  Uiso   1.00
H416   H     0.34687   0.06708   0.44212   0.00000  Uiso   1.00
C417   C     0.37018   0.04413   0.51990   0.00000  Uiso   1.00
H418   H     0.34987   0.06948   0.55287   0.00000  Uiso   1.00
H419   H     0.40311   0.03966   0.54344   0.00000  Uiso   1.00
H420   H     0.35224   0.00422   0.50358   0.00000  Uiso   1.00
N421   N     0.12351   0.26621   0.53161   0.00000  Uiso   1.00
H422   H     0.15313   0.26625   0.55788   0.00000  Uiso   1.00
C423   C     0.12981   0.28920   0.48010   0.00000  Uiso   1.00
H424   H     0.15012   0.26385   0.44713   0.00000  Uiso   1.00
H425   H     0.14776   0.32911   0.49642   0.00000  Uiso   1.00
H426   H     0.09689   0.29368   0.45656   0.00000  Uiso   1.00
C427   C     0.19454   0.13268   0.65008   0.00000  Uiso   1.00
O428   O     0.18865   0.08698   0.61960   0.00000  Uiso   1.00
O429   O     0.15830   0.16454   0.65992   0.00000  Uiso   1.00
H430   H     0.12901   0.14579   0.63803   0.00000  Uiso   1.00
C431   C     0.30546   0.20066   0.34992   0.00000  Uiso   1.00
O432   O     0.31135   0.24635   0.38040   0.00000  Uiso   1.00
O433   O     0.34170   0.16879   0.34008   0.00000  Uiso   1.00
H434   H     0.37099   0.18754   0.36197   0.00000  Uiso   1.00
C435   C     0.74852   0.06659   0.48429   0.00000  Uiso   1.00
C436   C     0.75148   0.26674   0.51571   0.00000  Uiso   1.00
C437   C     0.51877   0.07058   0.47097   0.00000  Uiso   1.00
C438   C     0.98123   0.26276   0.52903   0.00000  Uiso   1.00
C439   C     0.74776   0.01037   0.47574   0.00000  Uiso   1.00
C440   C     0.75224   0.32297   0.52426   0.00000  Uiso   1.00
C441   C     0.66478   0.16711   0.50092   0.00000  Uiso   1.00
C442   C     0.83522   0.16622   0.49908   0.00000  Uiso   1.00
C443   C     0.90889   0.21323   0.51208   0.00000  Uiso   1.00
C444   C     0.59111   0.12011   0.48792   0.00000  Uiso   1.00
C445   C     0.88318   0.16493   0.49699   0.00000  Uiso   1.00
C446   C     0.61682   0.16840   0.50301   0.00000  Uiso   1.00
C447   C     0.90330   0.11628   0.48304   0.00000  Uiso   1.00
C448   C     0.59670   0.21705   0.51696   0.00000  Uiso   1.00
C449   C     0.95042   0.11684   0.48384   0.00000  Uiso   1.00
C450   C     0.54958   0.21650   0.51616   0.00000  Uiso   1.00
C451   C     0.97644   0.16609   0.49931   0.00000  Uiso   1.00
C452   C     0.52356   0.16725   0.50069   0.00000  Uiso   1.00
C453   C     0.95544   0.21425   0.51342   0.00000  Uiso   1.00
C454   C     0.54456   0.11909   0.48658   0.00000  Uiso   1.00
C455   C     0.97213   0.06940   0.46932   0.00000  Uiso   1.00
C456   C     0.52787   0.26393   0.53068   0.00000  Uiso   1.00
Cu457  Cu    0.75500   0.17246   0.56146   0.00000  Uiso   1.00
Cu458  Cu    0.74499   0.16087   0.43854   0.00000  Uiso   1.00
H459   H     0.89243   0.25005   0.52318   0.00000  Uiso   1.00
H460   H     0.60757   0.08328   0.47682   0.00000  Uiso   1.00
H461   H     0.95328   0.03113   0.45656   0.00000  Uiso   1.00
H462   H     0.54672   0.30221   0.54344   0.00000  Uiso   1.00
H463   H     0.53469   0.03346   0.45985   0.00000  Uiso   1.00
H464   H     0.96531   0.29988   0.54015   0.00000  Uiso   1.00
H465   H     0.74345   0.31931   0.42924   0.00000  Uiso   1.00
H466   H     0.75655   0.01403   0.57076   0.00000  Uiso   1.00
N467   N     0.73744   0.15214   0.34617   0.00000  Uiso   1.00
N468   N     0.76255   0.18119   0.65383   0.00000  Uiso   1.00
O469   O     0.75325   0.09538   0.53992   0.00000  Uiso   1.00
O470   O     0.74674   0.23796   0.46008   0.00000  Uiso   1.00
O471   O     0.74480   0.08559   0.43612   0.00000  Uiso   1.00
O472   O     0.75520   0.24774   0.56388   0.00000  Uiso   1.00
O473   O     0.68935   0.17155   0.55191   0.00000  Uiso   1.00
O474   O     0.81064   0.16179   0.44809   0.00000  Uiso   1.00
O475   O     0.68090   0.16176   0.44810   0.00000  Uiso   1.00
O476   O     0.81910   0.17157   0.55190   0.00000  Uiso   1.00
N477   N     0.87649   0.06712   0.46839   0.00000  Uiso   1.00
H478   H     0.84687   0.06708   0.44212   0.00000  Uiso   1.00
C479   C     0.87018   0.04413   0.51990   0.00000  Uiso   1.00
H480   H     0.84987   0.06948   0.55287   0.00000  Uiso   1.00
H481   H     0.90311   0.03966   0.54344   0.00000  Uiso   1.00
H482   H     0.85224   0.00422   0.50358   0.00000  Uiso   1.00
N483   N     0.62351   0.26621   0.53161   0.00000  Uiso   1.00
H484   H     0.65313   0.26625   0.55788   0.00000  Uiso   1.00
C485   C     0.62981   0.28920   0.48010   0.00000  Uiso   1.00
H486   H     0.65012   0.26385   0.44713   0.00000  Uiso   1.00
H487   H     0.64776   0.32911   0.49642   0.00000  Uiso   1.00
H488   H     0.59689   0.29368   0.45656   0.00000  Uiso   1.00
C489   C     0.69454   0.13268   0.65008   0.00000  Uiso   1.00
O490   O     0.68865   0.08698   0.61960   0.00000  Uiso   1.00
O491   O     0.65830   0.16454   0.65992   0.00000  Uiso   1.00
H492   H     0.62901   0.14579   0.63803   0.00000  Uiso   1.00
C493   C     0.80546   0.20066   0.34992   0.00000  Uiso   1.00
O494   O     0.81135   0.24635   0.38040   0.00000  Uiso   1.00
O495   O     0.84170   0.16879   0.34008   0.00000  Uiso   1.00
H496   H     0.87099   0.18754   0.36197   0.00000  Uiso   1.00
C497   C     0.24852   0.39993   0.48429   0.00000  Uiso   1.00
C498   C     0.25148   0.60007   0.51571   0.00000  Uiso   1.00
C499   C     0.01877   0.40391   0.47097   0.00000  Uiso   1.00
C500   C     0.48123   0.59609   0.52903   0.00000  Uiso   1.00
C501   C     0.24776   0.34370   0.47574   0.00000  Uiso   1.00
C502   C     0.25224   0.65630   0.52426   0.00000  Uiso   1.00
C503   C     0.16478   0.50045   0.50092   0.00000  Uiso   1.00
C504   C     0.33522   0.49955   0.49908   0.00000  Uiso   1.00
C505   C     0.40889   0.54656   0.51208   0.00000  Uiso   1.00
C506   C     0.09111   0.45344   0.48792   0.00000  Uiso   1.00
C507   C     0.38318   0.49827   0.49699   0.00000  Uiso   1.00
C508   C     0.11682   0.50173   0.50301   0.00000  Uiso   1.00
C509   C     0.40330   0.44961   0.48304   0.00000  Uiso   1.00
C510   C     0.09670   0.55039   0.51696   0.00000  Uiso   1.00
C511   C     0.45042   0.45017   0.48384   0.00000  Uiso   1.00
C512   C     0.04958   0.54983   0.51616   0.00000  Uiso   1.00
C513   C     0.47644   0.49942   0.49931   0.00000  Uiso   1.00
C514   C     0.02356   0.50058   0.50069   0.00000  Uiso   1.00
C515   C     0.45544   0.54758   0.51342   0.00000  Uiso   1.00
C516   C     0.04456   0.45242   0.48658   0.00000  Uiso   1.00
C517   C     0.47213   0.40273   0.46932   0.00000  Uiso   1.00
C518   C     0.02787   0.59727   0.53068   0.00000  Uiso   1.00
Cu519  Cu    0.25500   0.50579   0.56146   0.00000  Uiso   1.00
Cu520  Cu    0.24499   0.49421   0.43854   0.00000  Uiso   1.00
H521   H     0.39243   0.58339   0.52318   0.00000  Uiso   1.00
H522   H     0.10757   0.41661   0.47682   0.00000  Uiso   1.00
H523   H     0.45328   0.36446   0.45656   0.00000  Uiso   1.00
H524   H     0.04672   0.63554   0.54344   0.00000  Uiso   1.00
H525   H     0.03469   0.36679   0.45985   0.00000  Uiso   1.00
H526   H     0.46531   0.63321   0.54015   0.00000  Uiso   1.00
H527   H     0.24345   0.65264   0.42924   0.00000  Uiso   1.00
H528   H     0.25655   0.34736   0.57076   0.00000  Uiso   1.00
N529   N     0.23744   0.48547   0.34617   0.00000  Uiso   1.00
N530   N     0.26255   0.51453   0.65383   0.00000  Uiso   1.00
O531   O     0.25325   0.42871   0.53992   0.00000  Uiso   1.00
O532   O     0.24674   0.57129   0.46008   0.00000  Uiso   1.00
O533   O     0.24480   0.41892   0.43612   0.00000  Uiso   1.00
O534   O     0.25520   0.58108   0.56388   0.00000  Uiso   1.00
O535   O     0.18935   0.50488   0.55191   0.00000  Uiso   1.00
O536   O     0.31064   0.49512   0.44809   0.00000  Uiso   1.00
O537   O     0.18090   0.49510   0.44810   0.00000  Uiso   1.00
O538   O     0.31910   0.50490   0.55190   0.00000  Uiso   1.00
N539   N     0.37649   0.40046   0.46839   0.00000  Uiso   1.00
H540   H     0.34687   0.40042   0.44212   0.00000  Uiso   1.00
C541   C     0.37018   0.37747   0.51990   0.00000  Uiso   1.00
H542   H     0.34987   0.40282   0.55287   0.00000  Uiso   1.00
H543   H     0.40311   0.37299   0.54344   0.00000  Uiso   1.00
H544   H     0.35224   0.33755   0.50358   0.00000  Uiso   1.00
N545   N     0.12351   0.59954   0.53161   0.00000  Uiso   1.00
H546   H     0.15313   0.59958   0.55788   0.00000  Uiso   1.00
C547   C     0.12981   0.62253   0.48010   0.00000  Uiso   1.00
H548   H     0.15012   0.59718   0.44713   0.00000  Uiso   1.00
H549   H     0.14776   0.66245   0.49642   0.00000  Uiso   1.00
H550   H     0.09689   0.62701   0.45656   0.00000  Uiso   1.00
C551   C     0.19454   0.46601   0.65008   0.00000  Uiso   1.00
O552   O     0.18865   0.42032   0.61960   0.00000  Uiso   1.00
O553   O     0.15830   0.49787   0.65992   0.00000  Uiso   1.00
H554   H     0.12901   0.47913   0.63803   0.00000  Uiso   1.00
C555   C     0.30546   0.53399   0.34992   0.00000  Uiso   1.00
O556   O     0.31135   0.57968   0.38040   0.00000  Uiso   1.00
O557   O     0.34170   0.50213   0.34008   0.00000  Uiso   1.00
H558   H     0.37099   0.52087   0.36197   0.00000  Uiso   1.00
C559   C     0.74852   0.39993   0.48429   0.00000  Uiso   1.00
C560   C     0.75148   0.60007   0.51571   0.00000  Uiso   1.00
C561   C     0.51877   0.40391   0.47097   0.00000  Uiso   1.00
C562   C     0.98123   0.59609   0.52903   0.00000  Uiso   1.00
C563   C     0.74776   0.34370   0.47574   0.00000  Uiso   1.00
C564   C     0.75224   0.65630   0.52426   0.00000  Uiso   1.00
C565   C     0.66478   0.50045   0.50092   0.00000  Uiso   1.00
C566   C     0.83522   0.49955   0.49908   0.00000  Uiso   1.00
C567   C     0.90889   0.54656   0.51208   0.00000  Uiso   1.00
C568   C     0.59111   0.45344   0.48792   0.00000  Uiso   1.00
C569   C     0.88318   0.49827   0.49699   0.00000  Uiso   1.00
C570   C     0.61682   0.50173   0.50301   0.00000  Uiso   1.00
C571   C     0.90330   0.44961   0.48304   0.00000  Uiso   1.00
C572   C     0.59670   0.55039   0.51696   0.00000  Uiso   1.00
C573   C     0.95042   0.45017   0.48384   0.00000  Uiso   1.00
C574   C     0.54958   0.54983   0.51616   0.00000  Uiso   1.00
C575   C     0.97644   0.49942   0.49931   0.00000  Uiso   1.00
C576   C     0.52356   0.50058   0.50069   0.00000  Uiso   1.00
C577   C     0.95544   0.54758   0.51342   0.00000  Uiso   1.00
C578   C     0.54456   0.45242   0.48658   0.00000  Uiso   1.00
C579   C     0.97213   0.40273   0.46932   0.00000  Uiso   1.00
C580   C     0.52787   0.59727   0.53068   0.00000  Uiso   1.00
Cu581  Cu    0.75500   0.50579   0.56146   0.00000  Uiso   1.00
Cu582  Cu    0.74499   0.49421   0.43854   0.00000  Uiso   1.00
H583   H     0.89243   0.58339   0.52318   0.00000  Uiso   1.00
H584   H     0.60757   0.41661   0.47682   0.00000  Uiso   1.00
H585   H     0.95328   0.36446   0.45656   0.00000  Uiso   1.00
H586   H     0.54672   0.63554   0.54344   0.00000  Uiso   1.00
H587   H     0.53469   0.36679   0.45985   0.00000  Uiso   1.00
H588   H     0.96531   0.63321   0.54015   0.00000  Uiso   1.00
H589   H     0.74345   0.65264   0.42924   0.00000  Uiso   1.00
H590   H     0.75655   0.34736   0.57076   0.00000  Uiso   1.00
N591   N     0.73744   0.48547   0.34617   0.00000  Uiso   1.00
N592   N     0.76255   0.51453   0.65383   0.00000  Uiso   1.00
O593   O     0.75325   0.42871   0.53992   0.00000  Uiso   1.00
O594   O     0.74674   0.57129   0.46008   0.00000  Uiso   1.00
O595   O     0.74480   0.41892   0.43612   0.00000  Uiso   1.00
O596   O     0.75520   0.58108   0.56388   0.00000  Uiso   1.00
O597   O     0.68935   0.50488   0.55191   0.00000  Uiso   1.00
O598   O     0.81064   0.49512   0.44809   0.00000  Uiso   1.00
O599   O     0.68090   0.49510   0.44810   0.00000  Uiso   1.00
O600   O     0.81910   0.50490   0.55190   0.00000  Uiso   1.00
N601   N     0.87649   0.40046   0.46839   0.00000  Uiso   1.00
H602   H     0.84687   0.40042   0.44212   0.00000  Uiso   1.00
C603   C     0.87018   0.37747   0.51990   0.00000  Uiso   1.00
H604   H     0.84987   0.40282   0.55287   0.00000  Uiso   1.00
H605   H     0.90311   0.37299   0.54344   0.00000  Uiso   1.00
H606   H     0.85224   0.33755   0.50358   0.00000  Uiso   1.00
N607   N     0.62351   0.59954   0.53161   0.00000  Uiso   1.00
H608   H     0.65313   0.59958   0.55788   0.00000  Uiso   1.00
C609   C     0.62981   0.62253   0.48010   0.00000  Uiso   1.00
H610   H     0.65012   0.59718   0.44713   0.00000  Uiso   1.00
H611   H     0.64776   0.66245   0.49642   0.00000  Uiso   1.00
H612   H     0.59689   0.62701   0.45656   0.00000  Uiso   1.00
C613   C     0.69454   0.46601   0.65008   0.00000  Uiso   1.00
O614   O     0.68865   0.42032   0.61960   0.00000  Uiso   1.00
O615   O     0.65830   0.49787   0.65992   0.00000  Uiso   1.00
H616   H     0.62901   0.47913   0.63803   0.00000  Uiso   1.00
C617   C     0.80546   0.53399   0.34992   0.00000  Uiso   1.00
O618   O     0.81135   0.57968   0.38040   0.00000  Uiso   1.00
O619   O     0.84170   0.50213   0.34008   0.00000  Uiso   1.00
H620   H     0.87099   0.52087   0.36197   0.00000  Uiso   1.00
C621   C     0.24852   0.73326   0.48429   0.00000  Uiso   1.00
C622   C     0.25148   0.93341   0.51571   0.00000  Uiso   1.00
C623   C     0.01877   0.73725   0.47097   0.00000  Uiso   1.00
C624   C     0.48123   0.92942   0.52903   0.00000  Uiso   1.00
C625   C     0.24776   0.67704   0.47574   0.00000  Uiso   1.00
C626   C     0.25224   0.98963   0.52426   0.00000  Uiso   1.00
C627   C     0.16478   0.83378   0.50092   0.00000  Uiso   1.00
C628   C     0.33522   0.83289   0.49908   0.00000  Uiso   1.00
C629   C     0.40889   0.87989   0.51208   0.00000  Uiso   1.00
C630   C     0.09111   0.78677   0.48792   0.00000  Uiso   1.00
C631   C     0.38318   0.83160   0.49699   0.00000  Uiso   1.00
C632   C     0.11682   0.83507   0.50301   0.00000  Uiso   1.00
C633   C     0.40330   0.78295   0.48304   0.00000  Uiso   1.00
C634   C     0.09670   0.88372   0.51696   0.00000  Uiso   1.00
C635   C     0.45042   0.78350   0.48384   0.00000  Uiso   1.00
C636   C     0.04958   0.88316   0.51616   0.00000  Uiso   1.00
C637   C     0.47644   0.83275   0.49931   0.00000  Uiso   1.00
C638   C     0.02356   0.83391   0.50069   0.00000  Uiso   1.00
C639   C     0.45544   0.88091   0.51342   0.00000  Uiso   1.00
C640   C     0.04456   0.78576   0.48658   0.00000  Uiso   1.00
C641   C     0.47213   0.73607   0.46932   0.00000  Uiso   1.00
C642   C     0.02787   0.93060   0.53068   0.00000  Uiso   1.00
Cu643  Cu    0.25500   0.83913   0.56146   0.00000  Uiso   1.00
Cu644  Cu    0.24499   0.82754   0.43854   0.00000  Uiso   1.00
H645   H     0.39243   0.91672   0.52318   0.00000  Uiso   1.00
H646   H     0.10757   0.74995   0.47682   0.00000  Uiso   1.00
H647   H     0.45328   0.69779   0.45656   0.00000  Uiso   1.00
H648   H     0.04672   0.96887   0.54344   0.00000  Uiso   1.00
H649   H     0.03469   0.70012   0.45985   0.00000  Uiso   1.00
H650   H     0.46531   0.96654   0.54015   0.00000  Uiso   1.00
H651   H     0.24345   0.98598   0.42924   0.00000  Uiso   1.00
H652   H     0.25655   0.68069   0.57076   0.00000  Uiso   1.00
N653   N     0.23744   0.81881   0.34617   0.00000  Uiso   1.00
N654   N     0.26255   0.84786   0.65383   0.00000  Uiso   1.00
O655   O     0.25325   0.76204   0.53992   0.00000  Uiso   1.00
O656   O     0.24674   0.90462   0.46008   0.00000  Uiso   1.00
O657   O     0.24480   0.75226   0.43612   0.00000  Uiso   1.00
O658   O     0.25520   0.91441   0.56388   0.00000  Uiso   1.00
O659   O     0.18935   0.83821   0.55191   0.00000  Uiso   1.00
O660   O     0.31064   0.82845   0.44809   0.00000  Uiso   1.00
O661   O     0.18090   0.82843   0.44810   0.00000  Uiso   1.00
O662   O     0.31910   0.83824   0.55190   0.00000  Uiso   1.00
N663   N     0.37649   0.73379   0.46839   0.00000  Uiso   1.00
H664   H     0.34687   0.73375   0.44212   0.00000  Uiso   1.00
C665   C     0.37018   0.71080   0.51990   0.00000  Uiso   1.00
H666   H     0.34987   0.73615   0.55287   0.00000  Uiso   1.00
H667   H     0.40311   0.70632   0.54344   0.00000  Uiso   1.00
H668   H     0.35224   0.67089   0.50358   0.00000  Uiso   1.00
N669   N     0.12351   0.93288   0.53161   0.00000  Uiso   1.00
H670   H     0.15313   0.93292   0.55788   0.00000  Uiso   1.00
C671   C     0.12981   0.95587   0.48010   0.00000  Uiso   1.00
H672   H     0.15012   0.93052   0.44713   0.00000  Uiso   1.00
H673   H     0.14776   0.99578   0.49642   0.00000  Uiso   1.00
H674   H     0.09689   0.96035   0.45656   0.00000  Uiso   1.00
C675   C     0.19454   0.79934   0.65008   0.00000  Uiso   1.00
O676   O     0.18865   0.75365   0.61960   0.00000  Uiso   1.00
O677   O     0.15830   0.83121   0.65992   0.00000  Uiso   1.00
H678   H     0.12901   0.81246   0.63803   0.00000  Uiso   1.00
C679   C     0.30546   0.86733   0.34992   0.00000  Uiso   1.00
O680   O     0.31135   0.91302   0.38040   0.00000  Uiso   1.00
O681   O     0.34170   0.83546   0.34008   0.00000  Uiso   1.00
H682   H     0.37099   0.85421   0.36197   0.00000  Uiso   1.00
C683   C     0.74852   0.73326   0.48429   0.00000  Uiso   1.00
C684   C     0.75148   0.93341   0.51571   0.00000  Uiso   1.00
C685   C     0.51877   0.73725   0.47097   0.00000  Uiso   1.00
C686   C     0.98123   0.92942   0.52903   0.00000  Uiso   1.00
C687   C     0.74776   0.67704   0.47574   0.00000  Uiso   1.00
C688   C     0.75224   0.98963   0.52426   0.00000  Uiso   1.00
C689   C     0.66478   0.83378   0.50092   0.00000  Uiso   1.00
C690   C     0.83522   0.83289   0.49908   0.00000  Uiso   1.00
C691   C     0.90889   0.87989   0.51208   0.00000  Uiso   1.00
C692   C     0.59111   0.78677   0.48792   0.00000  Uiso   1.00
C693   C     0.88318   0.83160   0.49699   0.00000  Uiso   1.00
C694   C     0.61682   0.83507   0.50301   0.00000  Uiso   1.00
C695   C     0.90330   0.78295   0.48304   0.00000  Uiso   1.00
C696   C     0.59670   0.88372   0.51696   0.00000  Uiso   1.00
C697   C     0.95042   0.78350   0.48384   0.00000  Uiso   1.00
C698   C     0.54958   0.88316   0.51616   0.00000  Uiso   1.00
C699   C     0.97644   0.83275   0.49931   0.00000  Uiso   1.00
C700   C     0.52356   0.83391   0.50069   0.00000  Uiso   1.00
C701   C     0.95544   0.88091   0.51342   0.00000  Uiso   1.00
C702   C     0.54456   0.78576   0.48658   0.00000  Uiso   1.00
C703   C     0.97213   0.73607   0.46932   0.00000  Uiso   1.00
C704   C     0.52787   0.93060   0.53068   0.00000  Uiso   1.00
Cu705  Cu    0.75500   0.83913   0.56146   0.00000  Uiso   1.00
Cu706  Cu    0.74499   0.82754   0.43854   0.00000  Uiso   1.00
H707   H     0.89243   0.91672   0.52318   0.00000  Uiso   1.00
H708   H     0.60757   0.74995   0.47682   0.00000  Uiso   1.00
H709   H     0.95328   0.69779   0.45656   0.00000  Uiso   1.00
H710   H     0.54672   0.96887   0.54344   0.00000  Uiso   1.00
H711   H     0.53469   0.70012   0.45985   0.00000  Uiso   1.00
H712   H     0.96531   0.96654   0.54015   0.00000  Uiso   1.00
H713   H     0.74345   0.98598   0.42924   0.00000  Uiso   1.00
H714   H     0.75655   0.68069   0.57076   0.00000  Uiso   1.00
N715   N     0.73744   0.81881   0.34617   0.00000  Uiso   1.00
N716   N     0.76255   0.84786   0.65383   0.00000  Uiso   1.00
O717   O     0.75325   0.76204   0.53992   0.00000  Uiso   1.00
O718   O     0.74674   0.90462   0.46008   0.00000  Uiso   1.00
O719   O     0.74480   0.75226   0.43612   0.00000  Uiso   1.00
O720   O     0.75520   0.91441   0.56388   0.00000  Uiso   1.00
O721   O     0.68935   0.83821   0.55191   0.00000  Uiso   1.00
O722   O     0.81064   0.82845   0.44809   0.00000  Uiso   1.00
O723   O     0.68090   0.82843   0.44810   0.00000  Uiso   1.00
O724   O     0.81910   0.83824   0.55190   0.00000  Uiso   1.00
N725   N     0.87649   0.73379   0.46839   0.00000  Uiso   1.00
H726   H     0.84687   0.73375   0.44212   0.00000  Uiso   1.00
C727   C     0.87018   0.71080   0.51990   0.00000  Uiso   1.00
H728   H     0.84987   0.73615   0.55287   0.00000  Uiso   1.00
H729   H     0.90311   0.70632   0.54344   0.00000  Uiso   1.00
H730   H     0.85224   0.67089   0.50358   0.00000  Uiso   1.00
N731   N     0.62351   0.93288   0.53161   0.00000  Uiso   1.00
H732   H     0.65313   0.93292   0.55788   0.00000  Uiso   1.00
C733   C     0.62981   0.95587   0.48010   0.00000  Uiso   1.00
H734   H     0.65012   0.93052   0.44713   0.00000  Uiso   1.00
H735   H     0.64776   0.99578   0.49642   0.00000  Uiso   1.00
H736   H     0.59689   0.96035   0.45656   0.00000  Uiso   1.00
C737   C     0.69454   0.79934   0.65008   0.00000  Uiso   1.00
O738   O     0.68865   0.75365   0.61960   0.00000  Uiso   1.00
O739   O     0.65830   0.83121   0.65992   0.00000  Uiso   1.00
H740   H     0.62901   0.81246   0.63803   0.00000  Uiso   1.00
C741   C     0.80546   0.86733   0.34992   0.00000  Uiso   1.00
O742   O     0.81135   0.91302   0.38040   0.00000  Uiso   1.00
O743   O     0.84170   0.83546   0.34008   0.00000  Uiso   1.00
H744   H     0.87099   0.85421   0.36197   0.00000  Uiso   1.00
C745   C     0.24852   0.06659   0.81762   0.00000  Uiso   1.00
C746   C     0.25148   0.26674   0.84904   0.00000  Uiso   1.00
C747   C     0.01877   0.07058   0.80430   0.00000  Uiso   1.00
C748   C     0.48123   0.26276   0.86236   0.00000  Uiso   1.00
C749   C     0.24776   0.01037   0.80907   0.00000  Uiso   1.00
C750   C     0.25224   0.32297   0.85759   0.00000  Uiso   1.00
C751   C     0.16478   0.16711   0.83425   0.00000  Uiso   1.00
C752   C     0.33522   0.16622   0.83241   0.00000  Uiso   1.00
C753   C     0.40889   0.21323   0.84542   0.00000  Uiso   1.00
C754   C     0.09111   0.12011   0.82125   0.00000  Uiso   1.00
C755   C     0.38318   0.16493   0.83033   0.00000  Uiso   1.00
C756   C     0.11682   0.16840   0.83634   0.00000  Uiso   1.00
C757   C     0.40330   0.11628   0.81637   0.00000  Uiso   1.00
C758   C     0.09670   0.21705   0.85030   0.00000  Uiso   1.00
C759   C     0.45042   0.11684   0.81718   0.00000  Uiso   1.00
C760   C     0.04958   0.21650   0.84949   0.00000  Uiso   1.00
C761   C     0.47644   0.16609   0.83264   0.00000  Uiso   1.00
C762   C     0.02356   0.16725   0.83402   0.00000  Uiso   1.00
C763   C     0.45544   0.21425   0.84675   0.00000  Uiso   1.00
C764   C     0.04456   0.11909   0.81992   0.00000  Uiso   1.00
C765   C     0.47213   0.06940   0.80265   0.00000  Uiso   1.00
C766   C     0.02787   0.26393   0.86402   0.00000  Uiso   1.00
Cu767  Cu    0.25500   0.17246   0.89479   0.00000  Uiso   1.00
Cu768  Cu    0.24499   0.16087   0.77187   0.00000  Uiso   1.00
H769   H     0.39243   0.25005   0.85651   0.00000  Uiso   1.00
H770   H     0.10757   0.08328   0.81015   0.00000  Uiso   1.00
H771   H     0.45328   0.03113   0.78989   0.00000  Uiso   1.00
H772   H     0.04672   0.30221   0.87678   0.00000  Uiso   1.00
H773   H     0.03469   0.03346   0.79318   0.00000  Uiso   1.00
H774   H     0.46531   0.29988   0.87348   0.00000  Uiso   1.00
H775   H     0.24345   0.31931   0.76258   0.00000  Uiso   1.00
H776   H     0.25655   0.01403   0.90409   0.00000  Uiso   1.00
N777   N     0.23744   0.15214   0.67951   0.00000  Uiso   1.00
N778   N     0.26255   0.18119   0.98716   0.00000  Uiso   1.00
O779   O     0.25325   0.09538   0.87326   0.00000  Uiso   1.00
O780   O     0.24674   0.23796   0.79341   0.00000  Uiso   1.00
O781   O     0.24480   0.08559   0.76945   0.00000  Uiso   1.00
O782   O     0.25520   0.24774   0.89721   0.00000  Uiso   1.00
O783   O     0.18935   0.17155   0.88524   0.00000  Uiso   1.00
O784   O     0.31064   0.16179   0.78143   0.00000  Uiso   1.00
O785   O     0.18090   0.16176   0.78143   0.00000  Uiso   1.00
O786   O     0.31910   0.17157   0.88523   0.00000  Uiso   1.00
N787   N     0.37649   0.06712   0.80172   0.00000  Uiso   1.00
H788   H     0.34687   0.06708   0.77545   0.00000  Uiso   1.00
C789   C     0.37018   0.04413   0.85324   0.00000  Uiso   1.00
H790   H     0.34987   0.06948   0.88620   0.00000  Uiso   1.00
H791   H     0.40311   0.03966   0.87677   0.00000  Uiso   1.00
H792   H     0.35224   0.00422   0.83691   0.00000  Uiso   1.00
N793   N     0.12351   0.26621   0.86495   0.00000  Uiso   1.00
H794   H     0.15313   0.26625   0.89122   0.00000  Uiso   1.00
C795   C     0.12981   0.28920   0.81343   0.00000  Uiso   1.00
H796   H     0.15012   0.26385   0.78047   0.00000  Uiso   1.00
H797   H     0.14776   0.32911   0.82976   0.00000  Uiso   1.00
H798   H     0.09689   0.29368   0.78989   0.00000  Uiso   1.00
C799   C     0.19454   0.13268   0.98341   0.00000  Uiso   1.00
O800   O     0.18865   0.08698   0.95294   0.00000  Uiso   1.00
O801   O     0.15830   0.16454   0.99326   0.00000  Uiso   1.00
H802   H     0.12901   0.14579   0.97136   0.00000  Uiso   1.00
C803   C     0.30546   0.20066   0.68326   0.00000  Uiso   1.00
O804   O     0.31135   0.24635   0.71373   0.00000  Uiso   1.00
O805   O     0.34170   0.16879   0.67341   0.00000  Uiso   1.00
H806   H     0.37099   0.18754   0.69531   0.00000  Uiso   1.00
C807   C     0.74852   0.06659   0.81762   0.00000  Uiso   1.00
C808   C     0.75148   0.26674   0.84904   0.00000  Uiso   1.00
C809   C     0.51877   0.07058   0.80430   0.00000  Uiso   1.00
C810   C     0.98123   0.26276   0.86236   0.00000  Uiso   1.00
C811   C     0.74776   0.01037   0.80907   0.00000  Uiso   1.00
C812   C     0.75224   0.32297   0.85759   0.00000  Uiso   1.00
C813   C     0.66478   0.16711   0.83425   0.00000  Uiso   1.00
C814   C     0.83522   0.16622   0.83241   0.00000  Uiso   1.00
C815   C     0.90889   0.21323   0.84542   0.00000  Uiso   1.00
C816   C     0.59111   0.12011   0.82125   0.00000  Uiso   1.00
C817   C     0.88318   0.16493   0.83033   0.00000  Uiso   1.00
C818   C     0.61682   0.16840   0.83634   0.00000  Uiso   1.00
C819   C     0.90330   0.11628   0.81637   0.00000  Uiso   1.00
C820   C     0.59670   0.21705   0.85030   0.00000  Uiso   1.00
C821   C     0.95042   0.11684   0.81718   0.00000  Uiso   1.00
C822   C     0.54958   0.21650   0.84949   0.00000  Uiso   1.00
C823   C     0.97644   0.16609   0.83264   0.00000  Uiso   1.00
C824   C     0.52356   0.16725   0.83402   0.00000  Uiso   1.00
C825   C     0.95544   0.21425   0.84675   0.00000  Uiso   1.00
C826   C     0.54456   0.11909   0.81992   0.00000  Uiso   1.00
C827   C     0.97213   0.06940   0.80265   0.00000  Uiso   1.00
C828   C     0.52787   0.26393   0.86402   0.00000  Uiso   1.00
Cu829  Cu    0.75500   0.17246   0.89479   0.00000  Uiso   1.00
Cu830  Cu    0.74499   0.16087   0.77187   0.00000  Uiso   1.00
H831   H     0.89243   0.25005   0.85651   0.00000  Uiso   1.00
H832   H     0.60757   0.08328   0.81015   0.00000  Uiso   1.00
H833   H     0.95328   0.03113   0.78989   0.00000  Uiso   1.00
H834   H     0.54672   0.30221   0.87678   0.00000  Uiso   1.00
H835   H     0.53469   0.03346   0.79318   0.00000  Uiso   1.00
H836   H     0.96531   0.29988   0.87348   0.00000  Uiso   1.00
H837   H     0.74345   0.31931   0.76258   0.00000  Uiso   1.00
H838   H     0.75655   0.01403   0.90409   0.00000  Uiso   1.00
N839   N     0.73744   0.15214   0.67951   0.00000  Uiso   1.00
N840   N     0.76255   0.18119   0.98716   0.00000  Uiso   1.00
O841   O     0.75325   0.09538   0.87326   0.00000  Uiso   1.00
O842   O     0.74674   0.23796   0.79341   0.00000  Uiso   1.00
O843   O     0.74480   0.08559   0.76945   0.00000  Uiso   1.00
O844   O     0.75520   0.24774   0.89721   0.00000  Uiso   1.00
O845   O     0.68935   0.17155   0.88524   0.00000  Uiso   1.00
O846   O     0.81064   0.16179   0.78143   0.00000  Uiso   1.00
O847   O     0.68090   0.16176   0.78143   0.00000  Uiso   1.00
O848   O     0.81910   0.17157   0.88523   0.00000  Uiso   1.00
N849   N     0.87649   0.06712   0.80172   0.00000  Uiso   1.00
H850   H     0.84687   0.06708   0.77545   0.00000  Uiso   1.00
C851   C     0.87018   0.04413   0.85324   0.00000  Uiso   1.00
H852   H     0.84987   0.06948   0.88620   0.00000  Uiso   1.00
H853   H     0.90311   0.03966   0.87677   0.00000  Uiso   1.00
H854   H     0.85224   0.00422   0.83691   0.00000  Uiso   1.00
N855   N     0.62351   0.26621   0.86495   0.00000  Uiso   1.00
H856   H     0.65313   0.26625   0.89122   0.00000  Uiso   1.00
C857   C     0.62981   0.28920   0.81343   0.00000  Uiso   1.00
H858   H     0.65012   0.26385   0.78047   0.00000  Uiso   1.00
H859   H     0.64776   0.32911   0.82976   0.00000  Uiso   1.00
H860   H     0.59689   0.29368   0.78989   0.00000  Uiso   1.00
C861   C     0.69454   0.13268   0.98341   0.00000  Uiso   1.00
O862   O     0.68865   0.08698   0.95294   0.00000  Uiso   1.00
O863   O     0.65830   0.16454   0.99326   0.00000  Uiso   1.00
H864   H     0.62901   0.14579   0.97136   0.00000  Uiso   1.00
C865   C     0.80546   0.20066   0.68326   0.00000  Uiso   1.00
O866   O     0.81135   0.24635   0.71373   0.00000  Uiso   1.00
O867   O     0.84170   0.16879   0.67341   0.00000  Uiso   1.00
H868   H     0.87099   0.18754   0.69531   0.00000  Uiso   1.00
C869   C     0.24852   0.39993   0.81762   0.00000  Uiso   1.00
C870   C     0.25148   0.60007   0.84904   0.00000  Uiso   1.00
C871   C     0.01877   0.40391   0.80430   0.00000  Uiso   1.00
C872   C     0.48123   0.59609   0.86236   0.00000  Uiso   1.00
C873   C     0.24776   0.34370   0.80907   0.00000  Uiso   1.00
C874   C     0.25224   0.65630   0.85759   0.00000  Uiso   1.00
C875   C     0.16478   0.50045   0.83425   0.00000  Uiso   1.00
C876   C     0.33522   0.49955   0.83241   0.00000  Uiso   1.00
C877   C     0.40889   0.54656   0.84542   0.00000  Uiso   1.00
C878   C     0.09111   0.45344   0.82125   0.00000  Uiso   1.00
C879   C     0.38318   0.49827   0.83033   0.00000  Uiso   1.00
C880   C     0.11682   0.50173   0.83634   0.00000  Uiso   1.00
C881   C     0.40330   0.44961   0.81637   0.00000  Uiso   1.00
C882   C     0.09670   0.55039   0.85030   0.00000  Uiso   1.00
C883   C     0.45042   0.45017   0.81718   0.00000  Uiso   1.00
C884   C     0.04958   0.54983   0.84949   0.00000  Uiso   1.00
C885   C     0.47644   0.49942   0.83264   0.00000  Uiso   1.00
C886   C     0.02356   0.50058   0.83402   0.00000  Uiso   1.00
C887   C     0.45544   0.54758   0.84675   0.00000  Uiso   1.00
C888   C     0.04456   0.45242   0.81992   0.00000  Uiso   1.00
C889   C     0.47213   0.40273   0.80265   0.00000  Uiso   1.00
C890   C     0.02787   0.59727   0.86402   0.00000  Uiso   1.00
Cu891  Cu    0.25500   0.50579   0.89479   0.00000  Uiso   1.00
Cu892  Cu    0.24499   0.49421   0.77187   0.00000  Uiso   1.00
H893   H     0.39243   0.58339   0.85651   0.00000  Uiso   1.00
H894   H     0.10757   0.41661   0.81015   0.00000  Uiso   1.00
H895   H     0.45328   0.36446   0.78989   0.00000  Uiso   1.00
H896   H     0.04672   0.63554   0.87678   0.00000  Uiso   1.00
H897   H     0.03469   0.36679   0.79318   0.00000  Uiso   1.00
H898   H     0.46531   0.63321   0.87348   0.00000  Uiso   1.00
H899   H     0.24345   0.65264   0.76258   0.00000  Uiso   1.00
H900   H     0.25655   0.34736   0.90409   0.00000  Uiso   1.00
N901   N     0.23744   0.48547   0.67951   0.00000  Uiso   1.00
N902   N     0.26255   0.51453   0.98716   0.00000  Uiso   1.00
O903   O     0.25325   0.42871   0.87326   0.00000  Uiso   1.00
O904   O     0.24674   0.57129   0.79341   0.00000  Uiso   1.00
O905   O     0.24480   0.41892   0.76945   0.00000  Uiso   1.00
O906   O     0.25520   0.58108   0.89721   0.00000  Uiso   1.00
O907   O     0.18935   0.50488   0.88524   0.00000  Uiso   1.00
O908   O     0.31064   0.49512   0.78143   0.00000  Uiso   1.00
O909   O     0.18090   0.49510   0.78143   0.00000  Uiso   1.00
O910   O     0.31910   0.50490   0.88523   0.00000  Uiso   1.00
N911   N     0.37649   0.40046   0.80172   0.00000  Uiso   1.00
H912   H     0.34687   0.40042   0.77545   0.00000  Uiso   1.00
C913   C     0.37018   0.37747   0.85324   0.00000  Uiso   1.00
H914   H     0.34987   0.40282   0.88620   0.00000  Uiso   1.00
H915   H     0.40311   0.37299   0.87677   0.00000  Uiso   1.00
H916   H     0.35224   0.33755   0.83691   0.00000  Uiso   1.00
N917   N     0.12351   0.59954   0.86495   0.00000  Uiso   1.00
H918   H     0.15313   0.59958   0.89122   0.00000  Uiso   1.00
C919   C     0.12981   0.62253   0.81343   0.00000  Uiso   1.00
H920   H     0.15012   0.59718   0.78047   0.00000  Uiso   1.00
H921   H     0.14776   0.66245   0.82976   0.00000  Uiso   1.00
H922   H     0.09689   0.62701   0.78989   0.00000  Uiso   1.00
C923   C     0.19454   0.46601   0.98341   0.00000  Uiso   1.00
O924   O     0.18865   0.42032   0.95294   0.00000  Uiso   1.00
O925   O     0.15830   0.49787   0.99326   0.00000  Uiso   1.00
H926   H     0.12901   0.47913   0.97136   0.00000  Uiso   1.00
C927   C     0.30546   0.53399   0.68326   0.00000  Uiso   1.00
O928   O     0.31135   0.57968   0.71373   0.00000  Uiso   1.00
O929   O     0.34170   0.50213   0.67341   0.00000  Uiso   1.00
H930   H     0.37099   0.52087   0.69531   0.00000  Uiso   1.00
C931   C     0.74852   0.39993   0.81762   0.00000  Uiso   1.00
C932   C     0.75148   0.60007   0.84904   0.00000  Uiso   1.00
C933   C     0.51877   0.40391   0.80430   0.00000  Uiso   1.00
C934   C     0.98123   0.59609   0.86236   0.00000  Uiso   1.00
C935   C     0.74776   0.34370   0.80907   0.00000  Uiso   1.00
C936   C     0.75224   0.65630   0.85759   0.00000  Uiso   1.00
C937   C     0.66478   0.50045   0.83425   0.00000  Uiso   1.00
C938   C     0.83522   0.49955   0.83241   0.00000  Uiso   1.00
C939   C     0.90889   0.54656   0.84542   0.00000  Uiso   1.00
C940   C     0.59111   0.45344   0.82125   0.00000  Uiso   1.00
C941   C     0.88318   0.49827   0.83033   0.00000  Uiso   1.00
C942   C     0.61682   0.50173   0.83634   0.00000  Uiso   1.00
C943   C     0.90330   0.44961   0.81637   0.00000  Uiso   1.00
C944   C     0.59670   0.55039   0.85030   0.00000  Uiso   1.00
C945   C     0.95042   0.45017   0.81718   0.00000  Uiso   1.00
C946   C     0.54958   0.54983   0.84949   0.00000  Uiso   1.00
C947   C     0.97644   0.49942   0.83264   0.00000  Uiso   1.00
C948   C     0.52356   0.50058   0.83402   0.00000  Uiso   1.00
C949   C     0.95544   0.54758   0.84675   0.00000  Uiso   1.00
C950   C     0.54456   0.45242   0.81992   0.00000  Uiso   1.00
C951   C     0.97213   0.40273   0.80265   0.00000  Uiso   1.00
C952   C     0.52787   0.59727   0.86402   0.00000  Uiso   1.00
Cu953  Cu    0.75500   0.50579   0.89479   0.00000  Uiso   1.00
Cu954  Cu    0.74499   0.49421   0.77187   0.00000  Uiso   1.00
H955   H     0.89243   0.58339   0.85651   0.00000  Uiso   1.00
H956   H     0.60757   0.41661   0.81015   0.00000  Uiso   1.00
H957   H     0.95328   0.36446   0.78989   0.00000  Uiso   1.00
H958   H     0.54672   0.63554   0.87678   0.00000  Uiso   1.00
H959   H     0.53469   0.36679   0.79318   0.00000  Uiso   1.00
H960   H     0.96531   0.63321   0.87348   0.00000  Uiso   1.00
H961   H     0.74345   0.65264   0.76258   0.00000  Uiso   1.00
H962   H     0.75655   0.34736   0.90409   0.00000  Uiso   1.00
N963   N     0.73744   0.48547   0.67951   0.00000  Uiso   1.00
N964   N     0.76255   0.51453   0.98716   0.00000  Uiso   1.00
O965   O     0.75325   0.42871   0.87326   0.00000  Uiso   1.00
O966   O     0.74674   0.57129   0.79341   0.00000  Uiso   1.00
O967   O     0.74480   0.41892   0.76945   0.00000  Uiso   1.00
O968   O     0.75520   0.58108   0.89721   0.00000  Uiso   1.00
O969   O     0.68935   0.50488   0.88524   0.00000  Uiso   1.00
O970   O     0.81064   0.49512   0.78143   0.00000  Uiso   1.00
O971   O     0.68090   0.49510   0.78143   0.00000  Uiso   1.00
O972   O     0.81910   0.50490   0.88523   0.00000  Uiso   1.00
N973   N     0.87649   0.40046   0.80172   0.00000  Uiso   1.00
H974   H     0.84687   0.40042   0.77545   0.00000  Uiso   1.00
C975   C     0.87018   0.37747   0.85324   0.00000  Uiso   1.00
H976   H     0.84987   0.40282   0.88620   0.00000  Uiso   1.00
H977   H     0.90311   0.37299   0.87677   0.00000  Uiso   1.00
H978   H     0.85224   0.33755   0.83691   0.00000  Uiso   1.00
N979   N     0.62351   0.59954   0.86495   0.00000  Uiso   1.00
H980   H     0.65313   0.59958   0.89122   0.00000  Uiso   1.00
C981   C     0.62981   0.62253   0.81343   0.00000  Uiso   1.00
H982   H     0.65012   0.59718   0.78047   0.00000  Uiso   1.00
H983   H     0.64776   0.66245   0.82976   0.00000  Uiso   1.00
H984   H     0.59689   0.62701   0.78989   0.00000  Uiso   1.00
C985   C     0.69454   0.46601   0.98341   0.00000  Uiso   1.00
O986   O     0.68865   0.42032   0.95294   0.00000  Uiso   1.00
O987   O     0.65830   0.49787   0.99326   0.00000  Uiso   1.00
H988   H     0.62901   0.47913   0.97136   0.00000  Uiso   1.00
C989   C     0.80546   0.53399   0.68326   0.00000  Uiso   1.00
O990   O     0.81135   0.57968   0.71373   0.00000  Uiso   1.00
O991   O     0.84170   0.50213   0.67341   0.00000  Uiso   1.00
H992   H     0.87099   0.52087   0.69531   0.00000  Uiso   1.00
C993   C     0.24852   0.73326   0.81762   0.00000  Uiso   1.00
C994   C     0.25148   0.93341   0.84904   0.00000  Uiso   1.00
C995   C     0.01877   0.73725   0.80430   0.00000  Uiso   1.00
C996   C     0.48123   0.92942   0.86236   0.00000  Uiso   1.00
C997   C     0.24776   0.67704   0.80907   0.00000  Uiso   1.00
C998   C     0.25224   0.98963   0.85759   0.00000  Uiso   1.00
C999   C     0.16478   0.83378   0.83425   0.00000  Uiso   1.00
C1000  C     0.33522   0.83289   0.83241   0.00000  Uiso   1.00
C1001  C     0.40889   0.87989   0.84542   0.00000  Uiso   1.00
C1002  C     0.09111   0.78677   0.82125   0.00000  Uiso   1.00
C1003  C     0.38318   0.83160   0.83033   0.00000  Uiso   1.00
C1004  C     0.11682   0.83507   0.83634   0.00000  Uiso   1.00
C1005  C     0.40330   0.78295   0.81637   0.00000  Uiso   1.00
C1006  C     0.09670   0.88372   0.85030   0.00000  Uiso   1.00
C1007  C     0.45042   0.78350   0.81718   0.00000  Uiso   1.00
C1008  C     0.04958   0.88316   0.84949   0.00000  Uiso   1.00
C1009  C     0.47644   0.83275   0.83264   0.00000  Uiso   1.00
C1010  C     0.02356   0.83391   0.83402   0.00000  Uiso   1.00
C1011  C     0.45544   0.88091   0.84675   0.00000  Uiso   1.00
C1012  C     0.04456   0.78576   0.81992   0.00000  Uiso   1.00
C1013  C     0.47213   0.73607   0.80265   0.00000  Uiso   1.00
C1014  C     0.02787   0.93060   0.86402   0.00000  Uiso   1.00
Cu1015 Cu    0.25500   0.83913   0.89479   0.00000  Uiso   1.00
Cu1016 Cu    0.24499   0.82754   0.77187   0.00000  Uiso   1.00
H1017  H     0.39243   0.91672   0.85651   0.00000  Uiso   1.00
H1018  H     0.10757   0.74995   0.81015   0.00000  Uiso   1.00
H1019  H     0.45328   0.69779   0.78989   0.00000  Uiso   1.00
H1020  H     0.04672   0.96887   0.87678   0.00000  Uiso   1.00
H1021  H     0.03469   0.70012   0.79318   0.00000  Uiso   1.00
H1022  H     0.46531   0.96654   0.87348   0.00000  Uiso   1.00
H1023  H     0.24345   0.98598   0.76258   0.00000  Uiso   1.00
H1024  H     0.25655   0.68069   0.90409   0.00000  Uiso   1.00
N1025  N     0.23744   0.81881   0.67951   0.00000  Uiso   1.00
N1026  N     0.26255   0.84786   0.98716   0.00000  Uiso   1.00
O1027  O     0.25325   0.76204   0.87326   0.00000  Uiso   1.00
O1028  O     0.24674   0.90462   0.79341   0.00000  Uiso   1.00
O1029  O     0.24480   0.75226   0.76945   0.00000  Uiso   1.00
O1030  O     0.25520   0.91441   0.89721   0.00000  Uiso   1.00
O1031  O     0.18935   0.83821   0.88524   0.00000  Uiso   1.00
O1032  O     0.31064   0.82845   0.78143   0.00000  Uiso   1.00
O1033  O     0.18090   0.82843   0.78143   0.00000  Uiso   1.00
O1034  O     0.31910   0.83824   0.88523   0.00000  Uiso   1.00
N1035  N     0.37649   0.73379   0.80172   0.00000  Uiso   1.00
H1036  H     0.34687   0.73375   0.77545   0.00000  Uiso   1.00
C1037  C     0.37018   0.71080   0.85324   0.00000  Uiso   1.00
H1038  H     0.34987   0.73615   0.88620   0.00000  Uiso   1.00
H1039  H     0.40311   0.70632   0.87677   0.00000  Uiso   1.00
H1040  H     0.35224   0.67089   0.83691   0.00000  Uiso   1.00
N1041  N     0.12351   0.93288   0.86495   0.00000  Uiso   1.00
H1042  H     0.15313   0.93292   0.89122   0.00000  Uiso   1.00
C1043  C     0.12981   0.95587   0.81343   0.00000  Uiso   1.00
H1044  H     0.15012   0.93052   0.78047   0.00000  Uiso   1.00
H1045  H     0.14776   0.99578   0.82976   0.00000  Uiso   1.00
H1046  H     0.09689   0.96035   0.78989   0.00000  Uiso   1.00
C1047  C     0.19454   0.79934   0.98341   0.00000  Uiso   1.00
O1048  O     0.18865   0.75365   0.95294   0.00000  Uiso   1.00
O1049  O     0.15830   0.83121   0.99326   0.00000  Uiso   1.00
H1050  H     0.12901   0.81246   0.97136   0.00000  Uiso   1.00
C1051  C     0.30546   0.86733   0.68326   0.00000  Uiso   1.00
O1052  O     0.31135   0.91302   0.71373   0.00000  Uiso   1.00
O1053  O     0.34170   0.83546   0.67341   0.00000  Uiso   1.00
H1054  H     0.37099   0.85421   0.69531   0.00000  Uiso   1.00
C1055  C     0.74852   0.73326   0.81762   0.00000  Uiso   1.00
C1056  C     0.75148   0.93341   0.84904   0.00000  Uiso   1.00
C1057  C     0.51877   0.73725   0.80430   0.00000  Uiso   1.00
C1058  C     0.98123   0.92942   0.86236   0.00000  Uiso   1.00
C1059  C     0.74776   0.67704   0.80907   0.00000  Uiso   1.00
C1060  C     0.75224   0.98963   0.85759   0.00000  Uiso   1.00
C1061  C     0.66478   0.83378   0.83425   0.00000  Uiso   1.00
C1062  C     0.83522   0.83289   0.83241   0.00000  Uiso   1.00
C1063  C     0.90889   0.87989   0.84542   0.00000  Uiso   1.00
C1064  C     0.59111   0.78677   0.82125   0.00000  Uiso   1.00
C1065  C     0.88318   0.83160   0.83033   0.00000  Uiso   1.00
C1066  C     0.61682   0.83507   0.83634   0.00000  Uiso   1.00
C1067  C     0.90330   0.78295   0.81637   0.00000  Uiso   1.00
C1068  C     0.59670   0.88372   0.85030   0.00000  Uiso   1.00
C1069  C     0.95042   0.78350   0.81718   0.00000  Uiso   1.00
C1070  C     0.54958   0.88316   0.84949   0.00000  Uiso   1.00
C1071  C     0.97644   0.83275   0.83264   0.00000  Uiso   1.00
C1072  C     0.52356   0.83391   0.83402   0.00000  Uiso   1.00
C1073  C     0.95544   0.88091   0.84675   0.00000  Uiso   1.00
C1074  C     0.54456   0.78576   0.81992   0.00000  Uiso   1.00
C1075  C     0.97213   0.73607   0.80265   0.00000  Uiso   1.00
C1076  C     0.52787   0.93060   0.86402   0.00000  Uiso   1.00
Cu1077 Cu    0.75500   0.83913   0.89479   0.00000  Uiso   1.00
Cu1078 Cu    0.74499   0.82754   0.77187   0.00000  Uiso   1.00
H1079  H     0.89243   0.91672   0.85651   0.00000  Uiso   1.00
H1080  H     0.60757   0.74995   0.81015   0.00000  Uiso   1.00
H1081  H     0.95328   0.69779   0.78989   0.00000  Uiso   1.00
H1082  H     0.54672   0.96887   0.87678   0.00000  Uiso   1.00
H1083  H     0.53469   0.70012   0.79318   0.00000  Uiso   1.00
H1084  H     0.96531   0.96654   0.87348   0.00000  Uiso   1.00
H1085  H     0.74345   0.98598   0.76258   0.00000  Uiso   1.00
H1086  H     0.75655   0.68069   0.90409   0.00000  Uiso   1.00
N1087  N     0.73744   0.81881   0.67951   0.00000  Uiso   1.00
N1088  N     0.76255   0.84786   0.98716   0.00000  Uiso   1.00
O1089  O     0.75325   0.76204   0.87326   0.00000  Uiso   1.00
O1090  O     0.74674   0.90462   0.79341   0.00000  Uiso   1.00
O1091  O     0.74480   0.75226   0.76945   0.00000  Uiso   1.00
O1092  O     0.75520   0.91441   0.89721   0.00000  Uiso   1.00
O1093  O     0.68935   0.83821   0.88524   0.00000  Uiso   1.00
O1094  O     0.81064   0.82845   0.78143   0.00000  Uiso   1.00
O1095  O     0.68090   0.82843   0.78143   0.00000  Uiso   1.00
O1096  O     0.81910   0.83824   0.88523   0.00000  Uiso   1.00
N1097  N     0.87649   0.73379   0.80172   0.00000  Uiso   1.00
H1098  H     0.84687   0.73375   0.77545   0.00000  Uiso   1.00
C1099  C     0.87018   0.71080   0.85324   0.00000  Uiso   1.00
H1100  H     0.84987   0.73615   0.88620   0.00000  Uiso   1.00
H1101  H     0.90311   0.70632   0.87677   0.00000  Uiso   1.00
H1102  H     0.85224   0.67089   0.83691   0.00000  Uiso   1.00
N1103  N     0.62351   0.93288   0.86495   0.00000  Uiso   1.00
H1104  H     0.65313   0.93292   0.89122   0.00000  Uiso   1.00
C1105  C     0.62981   0.95587   0.81343   0.00000  Uiso   1.00
H1106  H     0.65012   0.93052   0.78047   0.00000  Uiso   1.00
H1107  H     0.64776   0.99578   0.82976   0.00000  Uiso   1.00
H1108  H     0.59689   0.96035   0.78989   0.00000  Uiso   1.00
C1109  C     0.69454   0.79934   0.98341   0.00000  Uiso   1.00
O1110  O     0.68865   0.75365   0.95294   0.00000  Uiso   1.00
O1111  O     0.65830   0.83121   0.99326   0.00000  Uiso   1.00
H1112  H     0.62901   0.81246   0.97136   0.00000  Uiso   1.00
C1113  C     0.80546   0.86733   0.68326   0.00000  Uiso   1.00
O1114  O     0.81135   0.91302   0.71373   0.00000  Uiso   1.00
O1115  O     0.84170   0.83546   0.67341   0.00000  Uiso   1.00
H1116  H     0.87099   0.85421   0.69531   0.00000  Uiso   1.00
loop_
_geom_bond_atom_site_label_1
_geom_bond_atom_site_label_2
_geom_bond_distance
_geom_bond_site_symmetry_2
_ccdc_geom_bond_type
C1     C5      1.428   .     S
C1     O37     1.298   .     A
C1     O35     1.297   .     A
C2     O38     1.298   .     A
C2     O36     1.297   .     A
C2     C6      1.428   .     S
C3     C20     1.399   .     A
C3     H29     1.084   .     S
C3     C83     1.391   1_455 S
C4     C19     1.399   .     A
C4     H30     1.084   .     S
C4     C84     1.391   .     S
C5     C254    1.333   1_545 S
C5     H279    1.087   1_545 S
C6     C129    1.333   .     S
C6     H156    1.087   .     S
C7     C12     1.440   .     S
C7     O39     1.300   .     A
C7     O41     1.298   .     A
C8     C11     1.440   .     S
C8     O42     1.298   .     A
C8     O40     1.300   .     A
C9     C11     1.393   .     A
C9     H25     1.086   .     S
C9     C19     1.388   .     A
C10    H26     1.086   .     S
C10    C12     1.393   .     A
C10    C20     1.388   .     A
C11    C13     1.409   .     A
C12    C14     1.409   .     A
C13    C15     1.407   .     A
C13    N43     1.428   .     S
C14    C16     1.407   .     A
C14    N49     1.428   .     S
C15    C17     1.418   .     A
C15    C21     1.407   .     A
C16    C18     1.418   .     A
C16    C22     1.407   .     A
C17    C19     1.411   .     A
C17    C80     1.405   .     S
C18    C20     1.411   .     A
C18    C79     1.405   1_455 S
C21    H27     1.083   .     S
C21    C65     1.391   .     S
C22    H28     1.083   .     S
C22    C66     1.391   1_455 S
Cu23   O38     1.946   .     S
Cu23   O35     1.946   .     S
Cu23   O42     1.944   .     S
Cu23   O39     1.958   .     S
Cu23   Cu24    2.716   .     S
Cu23   N34     2.041   .     S
Cu24   N33     2.041   .     S
Cu24   O37     1.946   .     S
Cu24   O41     1.944   .     S
Cu24   O36     1.946   .     S
Cu24   O40     1.958   .     S
H31    C129    1.087   .     S
H32    C254    1.087   1_545 S
N33    N778    1.294   1_554 S
N33    C799    1.413   1_554 S
N34    N405    1.294   .     S
N34    C431    1.413   .     S
N43    C45     1.447   .     S
N43    H44     1.031   .     S
C45    H46     1.111   .     S
C45    H47     1.111   .     S
C45    H48     1.110   .     S
N49    C51     1.447   .     S
N49    H50     1.031   .     S
C51    H54     1.111   .     S
C51    H52     1.111   .     S
C51    H53     1.110   .     S
C55    O56     1.222   .     D
C55    O57     1.399   .     S
C55    N405    1.413   .     S
O57    H58     1.014   .     S
C59    O60     1.222   .     D
C59    O61     1.399   .     S
C59    N778    1.413   1_554 S
O61    H62     1.014   .     S
C63    C67     1.428   .     S
C63    O99     1.298   .     A
C63    O97     1.297   .     A
C64    O100    1.298   .     A
C64    O98     1.297   .     A
C64    C68     1.428   .     S
C65    C82     1.399   .     A
C65    H91     1.084   .     S
C66    C81     1.399   .     A
C66    H92     1.084   .     S
C66    C22     1.391   1_655 S
C67    C316    1.333   1_545 S
C67    H341    1.087   1_545 S
C68    C191    1.333   .     S
C68    H218    1.087   .     S
C69    C74     1.440   .     S
C69    O101    1.300   .     A
C69    O103    1.298   .     A
C70    C73     1.440   .     S
C70    O104    1.298   .     A
C70    O102    1.300   .     A
C71    C73     1.393   .     A
C71    H87     1.086   .     S
C71    C81     1.388   .     A
C72    H88     1.086   .     S
C72    C74     1.393   .     A
C72    C82     1.388   .     A
C73    C75     1.409   .     A
C74    C76     1.409   .     A
C75    C77     1.407   .     A
C75    N105    1.428   .     S
C76    C78     1.407   .     A
C76    N111    1.428   .     S
C77    C79     1.418   .     A
C77    C83     1.407   .     A
C78    C80     1.418   .     A
C78    C84     1.407   .     A
C79    C81     1.411   .     A
C79    C18     1.405   1_655 S
C80    C82     1.411   .     A
C83    H89     1.083   .     S
C83    C3      1.391   1_655 S
C84    H90     1.083   .     S
Cu85   O100    1.946   .     S
Cu85   O97     1.946   .     S
Cu85   O104    1.944   .     S
Cu85   O101    1.958   .     S
Cu85   Cu86    2.716   .     S
Cu85   N96     2.041   .     S
Cu86   N95     2.041   .     S
Cu86   O99     1.946   .     S
Cu86   O103    1.944   .     S
Cu86   O98     1.946   .     S
Cu86   O102    1.958   .     S
H93    C191    1.087   .     S
H94    C316    1.087   1_545 S
N95    N840    1.294   1_554 S
N95    C861    1.413   1_554 S
N96    N467    1.294   .     S
N96    C493    1.413   .     S
N105   C107    1.447   .     S
N105   H106    1.031   .     S
C107   H108    1.111   .     S
C107   H109    1.111   .     S
C107   H110    1.110   .     S
N111   C113    1.447   .     S
N111   H112    1.031   .     S
C113   H116    1.111   .     S
C113   H114    1.111   .     S
C113   H115    1.110   .     S
C117   O118    1.222   .     D
C117   O119    1.399   .     S
C117   N467    1.413   .     S
O119   H120    1.014   .     S
C121   O122    1.222   .     D
C121   O123    1.399   .     S
C121   N840    1.413   1_554 S
O123   H124    1.014   .     S
C125   C129    1.428   .     S
C125   O161    1.298   .     A
C125   O159    1.297   .     A
C126   O162    1.298   .     A
C126   O160    1.297   .     A
C126   C130    1.428   .     S
C127   C144    1.399   .     A
C127   H153    1.084   .     S
C127   C207    1.391   1_455 S
C128   C143    1.399   .     A
C128   H154    1.084   .     S
C128   C208    1.391   .     S
C130   C253    1.333   .     S
C130   H280    1.087   .     S
C131   C136    1.440   .     S
C131   O163    1.300   .     A
C131   O165    1.298   .     A
C132   C135    1.440   .     S
C132   O166    1.298   .     A
C132   O164    1.300   .     A
C133   C135    1.393   .     A
C133   H149    1.086   .     S
C133   C143    1.388   .     A
C134   H150    1.086   .     S
C134   C136    1.393   .     A
C134   C144    1.388   .     A
C135   C137    1.409   .     A
C136   C138    1.409   .     A
C137   C139    1.407   .     A
C137   N167    1.428   .     S
C138   C140    1.407   .     A
C138   N173    1.428   .     S
C139   C141    1.418   .     A
C139   C145    1.407   .     A
C140   C142    1.418   .     A
C140   C146    1.407   .     A
C141   C143    1.411   .     A
C141   C204    1.405   .     S
C142   C144    1.411   .     A
C142   C203    1.405   1_455 S
C145   H151    1.083   .     S
C145   C189    1.391   .     S
C146   H152    1.083   .     S
C146   C190    1.391   1_455 S
Cu147  O162    1.946   .     S
Cu147  O159    1.946   .     S
Cu147  O166    1.944   .     S
Cu147  O163    1.958   .     S
Cu147  Cu148   2.716   .     S
Cu147  N158    2.041   .     S
Cu148  N157    2.041   .     S
Cu148  O161    1.946   .     S
Cu148  O165    1.944   .     S
Cu148  O160    1.946   .     S
Cu148  O164    1.958   .     S
H155   C253    1.087   .     S
N157   N902    1.294   1_554 S
N157   C923    1.413   1_554 S
N158   N529    1.294   .     S
N158   C555    1.413   .     S
N167   C169    1.447   .     S
N167   H168    1.031   .     S
C169   H170    1.111   .     S
C169   H171    1.111   .     S
C169   H172    1.110   .     S
N173   C175    1.447   .     S
N173   H174    1.031   .     S
C175   H178    1.111   .     S
C175   H176    1.111   .     S
C175   H177    1.110   .     S
C179   O180    1.222   .     D
C179   O181    1.399   .     S
C179   N529    1.413   .     S
O181   H182    1.014   .     S
C183   O184    1.222   .     D
C183   O185    1.399   .     S
C183   N902    1.413   1_554 S
O185   H186    1.014   .     S
C187   C191    1.428   .     S
C187   O223    1.298   .     A
C187   O221    1.297   .     A
C188   O224    1.298   .     A
C188   O222    1.297   .     A
C188   C192    1.428   .     S
C189   C206    1.399   .     A
C189   H215    1.084   .     S
C190   C205    1.399   .     A
C190   H216    1.084   .     S
C190   C146    1.391   1_655 S
C192   C315    1.333   .     S
C192   H342    1.087   .     S
C193   C198    1.440   .     S
C193   O225    1.300   .     A
C193   O227    1.298   .     A
C194   C197    1.440   .     S
C194   O228    1.298   .     A
C194   O226    1.300   .     A
C195   C197    1.393   .     A
C195   H211    1.086   .     S
C195   C205    1.388   .     A
C196   H212    1.086   .     S
C196   C198    1.393   .     A
C196   C206    1.388   .     A
C197   C199    1.409   .     A
C198   C200    1.409   .     A
C199   C201    1.407   .     A
C199   N229    1.428   .     S
C200   C202    1.407   .     A
C200   N235    1.428   .     S
C201   C203    1.418   .     A
C201   C207    1.407   .     A
C202   C204    1.418   .     A
C202   C208    1.407   .     A
C203   C205    1.411   .     A
C203   C142    1.405   1_655 S
C204   C206    1.411   .     A
C207   H213    1.083   .     S
C207   C127    1.391   1_655 S
C208   H214    1.083   .     S
Cu209  O224    1.946   .     S
Cu209  O221    1.946   .     S
Cu209  O228    1.944   .     S
Cu209  O225    1.958   .     S
Cu209  Cu210   2.716   .     S
Cu209  N220    2.041   .     S
Cu210  N219    2.041   .     S
Cu210  O223    1.946   .     S
Cu210  O227    1.944   .     S
Cu210  O222    1.946   .     S
Cu210  O226    1.958   .     S
H217   C315    1.087   .     S
N219   N964    1.294   1_554 S
N219   C985    1.413   1_554 S
N220   N591    1.294   .     S
N220   C617    1.413   .     S
N229   C231    1.447   .     S
N229   H230    1.031   .     S
C231   H232    1.111   .     S
C231   H233    1.111   .     S
C231   H234    1.110   .     S
N235   C237    1.447   .     S
N235   H236    1.031   .     S
C237   H240    1.111   .     S
C237   H238    1.111   .     S
C237   H239    1.110   .     S
C241   O242    1.222   .     D
C241   O243    1.399   .     S
C241   N591    1.413   .     S
O243   H244    1.014   .     S
C245   O246    1.222   .     D
C245   O247    1.399   .     S
C245   N964    1.413   1_554 S
O247   H248    1.014   .     S
C249   C253    1.428   .     S
C249   O285    1.298   .     A
C249   O283    1.297   .     A
C250   O286    1.298   .     A
C250   O284    1.297   .     A
C250   C254    1.428   .     S
C251   C268    1.399   .     A
C251   H277    1.084   .     S
C251   C331    1.391   1_455 S
C252   C267    1.399   .     A
C252   H278    1.084   .     S
C252   C332    1.391   .     S
C254   C5      1.333   1_565 S
C254   H32     1.087   1_565 S
C255   C260    1.440   .     S
C255   O287    1.300   .     A
C255   O289    1.298   .     A
C256   C259    1.440   .     S
C256   O290    1.298   .     A
C256   O288    1.300   .     A
C257   C259    1.393   .     A
C257   H273    1.086   .     S
C257   C267    1.388   .     A
C258   H274    1.086   .     S
C258   C260    1.393   .     A
C258   C268    1.388   .     A
C259   C261    1.409   .     A
C260   C262    1.409   .     A
C261   C263    1.407   .     A
C261   N291    1.428   .     S
C262   C264    1.407   .     A
C262   N297    1.428   .     S
C263   C265    1.418   .     A
C263   C269    1.407   .     A
C264   C266    1.418   .     A
C264   C270    1.407   .     A
C265   C267    1.411   .     A
C265   C328    1.405   .     S
C266   C268    1.411   .     A
C266   C327    1.405   1_455 S
C269   H275    1.083   .     S
C269   C313    1.391   .     S
C270   H276    1.083   .     S
C270   C314    1.391   1_455 S
Cu271  O286    1.946   .     S
Cu271  O283    1.946   .     S
Cu271  O290    1.944   .     S
Cu271  O287    1.958   .     S
Cu271  Cu272   2.716   .     S
Cu271  N282    2.041   .     S
Cu272  N281    2.041   .     S
Cu272  O285    1.946   .     S
Cu272  O289    1.944   .     S
Cu272  O284    1.946   .     S
Cu272  O288    1.958   .     S
H279   C5      1.087   1_565 S
N281   N1026   1.294   1_554 S
N281   C1047   1.413   1_554 S
N282   N653    1.294   .     S
N282   C679    1.413   .     S
N291   C293    1.447   .     S
N291   H292    1.031   .     S
C293   H294    1.111   .     S
C293   H295    1.111   .     S
C293   H296    1.110   .     S
N297   C299    1.447   .     S
N297   H298    1.031   .     S
C299   H302    1.111   .     S
C299   H300    1.111   .     S
C299   H301    1.110   .     S
C303   O304    1.222   .     D
C303   O305    1.399   .     S
C303   N653    1.413   .     S
O305   H306    1.014   .     S
C307   O308    1.222   .     D
C307   O309    1.399   .     S
C307   N1026   1.413   1_554 S
O309   H310    1.014   .     S
C311   C315    1.428   .     S
C311   O347    1.298   .     A
C311   O345    1.297   .     A
C312   O348    1.298   .     A
C312   O346    1.297   .     A
C312   C316    1.428   .     S
C313   C330    1.399   .     A
C313   H339    1.084   .     S
C314   C329    1.399   .     A
C314   H340    1.084   .     S
C314   C270    1.391   1_655 S
C316   C67     1.333   1_565 S
C316   H94     1.087   1_565 S
C317   C322    1.440   .     S
C317   O349    1.300   .     A
C317   O351    1.298   .     A
C318   C321    1.440   .     S
C318   O352    1.298   .     A
C318   O350    1.300   .     A
C319   C321    1.393   .     A
C319   H335    1.086   .     S
C319   C329    1.388   .     A
C320   H336    1.086   .     S
C320   C322    1.393   .     A
C320   C330    1.388   .     A
C321   C323    1.409   .     A
C322   C324    1.409   .     A
C323   C325    1.407   .     A
C323   N353    1.428   .     S
C324   C326    1.407   .     A
C324   N359    1.428   .     S
C325   C327    1.418   .     A
C325   C331    1.407   .     A
C326   C328    1.418   .     A
C326   C332    1.407   .     A
C327   C329    1.411   .     A
C327   C266    1.405   1_655 S
C328   C330    1.411   .     A
C331   H337    1.083   .     S
C331   C251    1.391   1_655 S
C332   H338    1.083   .     S
Cu333  O348    1.946   .     S
Cu333  O345    1.946   .     S
Cu333  O352    1.944   .     S
Cu333  O349    1.958   .     S
Cu333  Cu334   2.716   .     S
Cu333  N344    2.041   .     S
Cu334  N343    2.041   .     S
Cu334  O347    1.946   .     S
Cu334  O351    1.944   .     S
Cu334  O346    1.946   .     S
Cu334  O350    1.958   .     S
H341   C67     1.087   1_565 S
N343   N1088   1.294   1_554 S
N343   C1109   1.413   1_554 S
N344   N715    1.294   .     S
N344   C741    1.413   .     S
N353   C355    1.447   .     S
N353   H354    1.031   .     S
C355   H356    1.111   .     S
C355   H357    1.111   .     S
C355   H358    1.110   .     S
N359   C361    1.447   .     S
N359   H360    1.031   .     S
C361   H364    1.111   .     S
C361   H362    1.111   .     S
C361   H363    1.110   .     S
C365   O366    1.222   .     D
C365   O367    1.399   .     S
C365   N715    1.413   .     S
O367   H368    1.014   .     S
C369   O370    1.222   .     D
C369   O371    1.399   .     S
C369   N1088   1.413   1_554 S
O371   H372    1.014   .     S
C373   C377    1.428   .     S
C373   O409    1.298   .     A
C373   O407    1.297   .     A
C374   O410    1.298   .     A
C374   O408    1.297   .     A
C374   C378    1.428   .     S
C375   C392    1.399   .     A
C375   H401    1.084   .     S
C375   C455    1.391   1_455 S
C376   C391    1.399   .     A
C376   H402    1.084   .     S
C376   C456    1.391   .     S
C377   C626    1.333   1_545 S
C377   H651    1.087   1_545 S
C378   C501    1.333   .     S
C378   H528    1.087   .     S
C379   C384    1.440   .     S
C379   O411    1.300   .     A
C379   O413    1.298   .     A
C380   C383    1.440   .     S
C380   O414    1.298   .     A
C380   O412    1.300   .     A
C381   C383    1.393   .     A
C381   H397    1.086   .     S
C381   C391    1.388   .     A
C382   H398    1.086   .     S
C382   C384    1.393   .     A
C382   C392    1.388   .     A
C383   C385    1.409   .     A
C384   C386    1.409   .     A
C385   C387    1.407   .     A
C385   N415    1.428   .     S
C386   C388    1.407   .     A
C386   N421    1.428   .     S
C387   C389    1.418   .     A
C387   C393    1.407   .     A
C388   C390    1.418   .     A
C388   C394    1.407   .     A
C389   C391    1.411   .     A
C389   C452    1.405   .     S
C390   C392    1.411   .     A
C390   C451    1.405   1_455 S
C393   H399    1.083   .     S
C393   C437    1.391   .     S
C394   H400    1.083   .     S
C394   C438    1.391   1_455 S
Cu395  O410    1.946   .     S
Cu395  O407    1.946   .     S
Cu395  O414    1.944   .     S
Cu395  O411    1.958   .     S
Cu395  Cu396   2.716   .     S
Cu395  N406    2.041   .     S
Cu396  N405    2.041   .     S
Cu396  O409    1.946   .     S
Cu396  O413    1.944   .     S
Cu396  O408    1.946   .     S
Cu396  O412    1.958   .     S
H403   C501    1.087   .     S
H404   C626    1.087   1_545 S
N406   N777    1.294   .     S
N406   C803    1.413   .     S
N415   C417    1.447   .     S
N415   H416    1.031   .     S
C417   H418    1.111   .     S
C417   H419    1.111   .     S
C417   H420    1.110   .     S
N421   C423    1.447   .     S
N421   H422    1.031   .     S
C423   H426    1.111   .     S
C423   H424    1.111   .     S
C423   H425    1.110   .     S
C427   O428    1.222   .     D
C427   O429    1.399   .     S
C427   N777    1.413   .     S
O429   H430    1.014   .     S
C431   O432    1.222   .     D
C431   O433    1.399   .     S
O433   H434    1.014   .     S
C435   C439    1.428   .     S
C435   O471    1.298   .     A
C435   O469    1.297   .     A
C436   O472    1.298   .     A
C436   O470    1.297   .     A
C436   C440    1.428   .     S
C437   C454    1.399   .     A
C437   H463    1.084   .     S
C438   C453    1.399   .     A
C438   H464    1.084   .     S
C438   C394    1.391   1_655 S
C439   C688    1.333   1_545 S
C439   H713    1.087   1_545 S
C440   C563    1.333   .     S
C440   H590    1.087   .     S
C441   C446    1.440   .     S
C441   O473    1.300   .     A
C441   O475    1.298   .     A
C442   C445    1.440   .     S
C442   O476    1.298   .     A
C442   O474    1.300   .     A
C443   C445    1.393   .     A
C443   H459    1.086   .     S
C443   C453    1.388   .     A
C444   H460    1.086   .     S
C444   C446    1.393   .     A
C444   C454    1.388   .     A
C445   C447    1.409   .     A
C446   C448    1.409   .     A
C447   C449    1.407   .     A
C447   N477    1.428   .     S
C448   C450    1.407   .     A
C448   N483    1.428   .     S
C449   C451    1.418   .     A
C449   C455    1.407   .     A
C450   C452    1.418   .     A
C450   C456    1.407   .     A
C451   C453    1.411   .     A
C451   C390    1.405   1_655 S
C452   C454    1.411   .     A
C455   H461    1.083   .     S
C455   C375    1.391   1_655 S
C456   H462    1.083   .     S
Cu457  O472    1.946   .     S
Cu457  O469    1.946   .     S
Cu457  O476    1.944   .     S
Cu457  O473    1.958   .     S
Cu457  Cu458   2.716   .     S
Cu457  N468    2.041   .     S
Cu458  N467    2.041   .     S
Cu458  O471    1.946   .     S
Cu458  O475    1.944   .     S
Cu458  O470    1.946   .     S
Cu458  O474    1.958   .     S
H465   C563    1.087   .     S
H466   C688    1.087   1_545 S
N468   N839    1.294   .     S
N468   C865    1.413   .     S
N477   C479    1.447   .     S
N477   H478    1.031   .     S
C479   H480    1.111   .     S
C479   H481    1.111   .     S
C479   H482    1.110   .     S
N483   C485    1.447   .     S
N483   H484    1.031   .     S
C485   H488    1.111   .     S
C485   H486    1.111   .     S
C485   H487    1.110   .     S
C489   O490    1.222   .     D
C489   O491    1.399   .     S
C489   N839    1.413   .     S
O491   H492    1.014   .     S
C493   O494    1.222   .     D
C493   O495    1.399   .     S
O495   H496    1.014   .     S
C497   C501    1.428   .     S
C497   O533    1.298   .     A
C497   O531    1.297   .     A
C498   O534    1.298   .     A
C498   O532    1.297   .     A
C498   C502    1.428   .     S
C499   C516    1.399   .     A
C499   H525    1.084   .     S
C499   C579    1.391   1_455 S
C500   C515    1.399   .     A
C500   H526    1.084   .     S
C500   C580    1.391   .     S
C502   C625    1.333   .     S
C502   H652    1.087   .     S
C503   C508    1.440   .     S
C503   O535    1.300   .     A
C503   O537    1.298   .     A
C504   C507    1.440   .     S
C504   O538    1.298   .     A
C504   O536    1.300   .     A
C505   C507    1.393   .     A
C505   H521    1.086   .     S
C505   C515    1.388   .     A
C506   H522    1.086   .     S
C506   C508    1.393   .     A
C506   C516    1.388   .     A
C507   C509    1.409   .     A
C508   C510    1.409   .     A
C509   C511    1.407   .     A
C509   N539    1.428   .     S
C510   C512    1.407   .     A
C510   N545    1.428   .     S
C511   C513    1.418   .     A
C511   C517    1.407   .     A
C512   C514    1.418   .     A
C512   C518    1.407   .     A
C513   C515    1.411   .     A
C513   C576    1.405   .     S
C514   C516    1.411   .     A
C514   C575    1.405   1_455 S
C517   H523    1.083   .     S
C517   C561    1.391   .     S
C518   H524    1.083   .     S
C518   C562    1.391   1_455 S
Cu519  O534    1.946   .     S
Cu519  O531    1.946   .     S
Cu519  O538    1.944   .     S
Cu519  O535    1.958   .     S
Cu519  Cu520   2.716   .     S
Cu519  N530    2.041   .     S
Cu520  N529    2.041   .     S
Cu520  O533    1.946   .     S
Cu520  O537    1.944   .     S
Cu520  O532    1.946   .     S
Cu520  O536    1.958   .     S
H527   C625    1.087   .     S
N530   N901    1.294   .     S
N530   C927    1.413   .     S
N539   C541    1.447   .     S
N539   H540    1.031   .     S
C541   H542    1.111   .     S
C541   H543    1.111   .     S
C541   H544    1.110   .     S
N545   C547    1.447   .     S
N545   H546    1.031   .     S
C547   H550    1.111   .     S
C547   H548    1.111   .     S
C547   H549    1.110   .     S
C551   O552    1.222   .     D
C551   O553    1.399   .     S
C551   N901    1.413   .     S
O553   H554    1.014   .     S
C555   O556    1.222   .     D
C555   O557    1.399   .     S
O557   H558    1.014   .     S
C559   C563    1.428   .     S
C559   O595    1.298   .     A
C559   O593    1.297   .     A
C560   O596    1.298   .     A
C560   O594    1.297   .     A
C560   C564    1.428   .     S
C561   C578    1.399   .     A
C561   H587    1.084   .     S
C562   C577    1.399   .     A
C562   H588    1.084   .     S
C562   C518    1.391   1_655 S
C564   C687    1.333   .     S
C564   H714    1.087   .     S
C565   C570    1.440   .     S
C565   O597    1.300   .     A
C565   O599    1.298   .     A
C566   C569    1.440   .     S
C566   O600    1.298   .     A
C566   O598    1.300   .     A
C567   C569    1.393   .     A
C567   H583    1.086   .     S
C567   C577    1.388   .     A
C568   H584    1.086   .     S
C568   C570    1.393   .     A
C568   C578    1.388   .     A
C569   C571    1.409   .     A
C570   C572    1.409   .     A
C571   C573    1.407   .     A
C571   N601    1.428   .     S
C572   C574    1.407   .     A
C572   N607    1.428   .     S
C573   C575    1.418   .     A
C573   C579    1.407   .     A
C574   C576    1.418   .     A
C574   C580    1.407   .     A
C575   C577    1.411   .     A
C575   C514    1.405   1_655 S
C576   C578    1.411   .     A
C579   H585    1.083   .     S
C579   C499    1.391   1_655 S
C580   H586    1.083   .     S
Cu581  O596    1.946   .     S
Cu581  O593    1.946   .     S
Cu581  O600    1.944   .     S
Cu581  O597    1.958   .     S
Cu581  Cu582   2.716   .     S
Cu581  N592    2.041   .     S
Cu582  N591    2.041   .     S
Cu582  O595    1.946   .     S
Cu582  O599    1.944   .     S
Cu582  O594    1.946   .     S
Cu582  O598    1.958   .     S
H589   C687    1.087   .     S
N592   N963    1.294   .     S
N592   C989    1.413   .     S
N601   C603    1.447   .     S
N601   H602    1.031   .     S
C603   H604    1.111   .     S
C603   H605    1.111   .     S
C603   H606    1.110   .     S
N607   C609    1.447   .     S
N607   H608    1.031   .     S
C609   H612    1.111   .     S
C609   H610    1.111   .     S
C609   H611    1.110   .     S
C613   O614    1.222   .     D
C613   O615    1.399   .     S
C613   N963    1.413   .     S
O615   H616    1.014   .     S
C617   O618    1.222   .     D
C617   O619    1.399   .     S
O619   H620    1.014   .     S
C621   C625    1.428   .     S
C621   O657    1.298   .     A
C621   O655    1.297   .     A
C622   O658    1.298   .     A
C622   O656    1.297   .     A
C622   C626    1.428   .     S
C623   C640    1.399   .     A
C623   H649    1.084   .     S
C623   C703    1.391   1_455 S
C624   C639    1.399   .     A
C624   H650    1.084   .     S
C624   C704    1.391   .     S
C626   C377    1.333   1_565 S
C626   H404    1.087   1_565 S
C627   C632    1.440   .     S
C627   O659    1.300   .     A
C627   O661    1.298   .     A
C628   C631    1.440   .     S
C628   O662    1.298   .     A
C628   O660    1.300   .     A
C629   C631    1.393   .     A
C629   H645    1.086   .     S
C629   C639    1.388   .     A
C630   H646    1.086   .     S
C630   C632    1.393   .     A
C630   C640    1.388   .     A
C631   C633    1.409   .     A
C632   C634    1.409   .     A
C633   C635    1.407   .     A
C633   N663    1.428   .     S
C634   C636    1.407   .     A
C634   N669    1.428   .     S
C635   C637    1.418   .     A
C635   C641    1.407   .     A
C636   C638    1.418   .     A
C636   C642    1.407   .     A
C637   C639    1.411   .     A
C637   C700    1.405   .     S
C638   C640    1.411   .     A
C638   C699    1.405   1_455 S
C641   H647    1.083   .     S
C641   C685    1.391   .     S
C642   H648    1.083   .     S
C642   C686    1.391   1_455 S
Cu643  O658    1.946   .     S
Cu643  O655    1.946   .     S
Cu643  O662    1.944   .     S
Cu643  O659    1.958   .     S
Cu643  Cu644   2.716   .     S
Cu643  N654    2.041   .     S
Cu644  N653    2.041   .     S
Cu644  O657    1.946   .     S
Cu644  O661    1.944   .     S
Cu644  O656    1.946   .     S
Cu644  O660    1.958   .     S
H651   C377    1.087   1_565 S
N654   N1025   1.294   .     S
N654   C1051   1.413   .     S
N663   C665    1.447   .     S
N663   H664    1.031   .     S
C665   H666    1.111   .     S
C665   H667    1.111   .     S
C665   H668    1.110   .     S
N669   C671    1.447   .     S
N669   H670    1.031   .     S
C671   H674    1.111   .     S
C671   H672    1.111   .     S
C671   H673    1.110   .     S
C675   O676    1.222   .     D
C675   O677    1.399   .     S
C675   N1025   1.413   .     S
O677   H678    1.014   .     S
C679   O680    1.222   .     D
C679   O681    1.399   .     S
O681   H682    1.014   .     S
C683   C687    1.428   .     S
C683   O719    1.298   .     A
C683   O717    1.297   .     A
C684   O720    1.298   .     A
C684   O718    1.297   .     A
C684   C688    1.428   .     S
C685   C702    1.399   .     A
C685   H711    1.084   .     S
C686   C701    1.399   .     A
C686   H712    1.084   .     S
C686   C642    1.391   1_655 S
C688   C439    1.333   1_565 S
C688   H466    1.087   1_565 S
C689   C694    1.440   .     S
C689   O721    1.300   .     A
C689   O723    1.298   .     A
C690   C693    1.440   .     S
C690   O724    1.298   .     A
C690   O722    1.300   .     A
C691   C693    1.393   .     A
C691   H707    1.086   .     S
C691   C701    1.388   .     A
C692   H708    1.086   .     S
C692   C694    1.393   .     A
C692   C702    1.388   .     A
C693   C695    1.409   .     A
C694   C696    1.409   .     A
C695   C697    1.407   .     A
C695   N725    1.428   .     S
C696   C698    1.407   .     A
C696   N731    1.428   .     S
C697   C699    1.418   .     A
C697   C703    1.407   .     A
C698   C700    1.418   .     A
C698   C704    1.407   .     A
C699   C701    1.411   .     A
C699   C638    1.405   1_655 S
C700   C702    1.411   .     A
C703   H709    1.083   .     S
C703   C623    1.391   1_655 S
C704   H710    1.083   .     S
Cu705  O720    1.946   .     S
Cu705  O717    1.946   .     S
Cu705  O724    1.944   .     S
Cu705  O721    1.958   .     S
Cu705  Cu706   2.716   .     S
Cu705  N716    2.041   .     S
Cu706  N715    2.041   .     S
Cu706  O719    1.946   .     S
Cu706  O723    1.944   .     S
Cu706  O718    1.946   .     S
Cu706  O722    1.958   .     S
H713   C439    1.087   1_565 S
N716   N1087   1.294   .     S
N716   C1113   1.413   .     S
N725   C727    1.447   .     S
N725   H726    1.031   .     S
C727   H728    1.111   .     S
C727   H729    1.111   .     S
C727   H730    1.110   .     S
N731   C733    1.447   .     S
N731   H732    1.031   .     S
C733   H736    1.111   .     S
C733   H734    1.111   .     S
C733   H735    1.110   .     S
C737   O738    1.222   .     D
C737   O739    1.399   .     S
C737   N1087   1.413   .     S
O739   H740    1.014   .     S
C741   O742    1.222   .     D
C741   O743    1.399   .     S
O743   H744    1.014   .     S
C745   C749    1.428   .     S
C745   O781    1.298   .     A
C745   O779    1.297   .     A
C746   O782    1.298   .     A
C746   O780    1.297   .     A
C746   C750    1.428   .     S
C747   C764    1.399   .     A
C747   H773    1.084   .     S
C747   C827    1.391   1_455 S
C748   C763    1.399   .     A
C748   H774    1.084   .     S
C748   C828    1.391   .     S
C749   C998    1.333   1_545 S
C749   H1023   1.087   1_545 S
C750   C873    1.333   .     S
C750   H900    1.087   .     S
C751   C756    1.440   .     S
C751   O783    1.300   .     A
C751   O785    1.298   .     A
C752   C755    1.440   .     S
C752   O786    1.298   .     A
C752   O784    1.300   .     A
C753   C755    1.393   .     A
C753   H769    1.086   .     S
C753   C763    1.388   .     A
C754   H770    1.086   .     S
C754   C756    1.393   .     A
C754   C764    1.388   .     A
C755   C757    1.409   .     A
C756   C758    1.409   .     A
C757   C759    1.407   .     A
C757   N787    1.428   .     S
C758   C760    1.407   .     A
C758   N793    1.428   .     S
C759   C761    1.418   .     A
C759   C765    1.407   .     A
C760   C762    1.418   .     A
C760   C766    1.407   .     A
C761   C763    1.411   .     A
C761   C824    1.405   .     S
C762   C764    1.411   .     A
C762   C823    1.405   1_455 S
C765   H771    1.083   .     S
C765   C809    1.391   .     S
C766   H772    1.083   .     S
C766   C810    1.391   1_455 S
Cu767  O782    1.946   .     S
Cu767  O779    1.946   .     S
Cu767  O786    1.944   .     S
Cu767  O783    1.958   .     S
Cu767  Cu768   2.716   .     S
Cu767  N778    2.041   .     S
Cu768  N777    2.041   .     S
Cu768  O781    1.946   .     S
Cu768  O785    1.944   .     S
Cu768  O780    1.946   .     S
Cu768  O784    1.958   .     S
H775   C873    1.087   .     S
H776   C998    1.087   1_545 S
N778   N33     1.294   1_556 S
N778   C59     1.413   1_556 S
N787   C789    1.447   .     S
N787   H788    1.031   .     S
C789   H790    1.111   .     S
C789   H791    1.111   .     S
C789   H792    1.110   .     S
N793   C795    1.447   .     S
N793   H794    1.031   .     S
C795   H798    1.111   .     S
C795   H796    1.111   .     S
C795   H797    1.110   .     S
C799   O800    1.222   .     D
C799   O801    1.399   .     S
C799   N33     1.413   1_556 S
O801   H802    1.014   .     S
C803   O804    1.222   .     D
C803   O805    1.399   .     S
O805   H806    1.014   .     S
C807   C811    1.428   .     S
C807   O843    1.298   .     A
C807   O841    1.297   .     A
C808   O844    1.298   .     A
C808   O842    1.297   .     A
C808   C812    1.428   .     S
C809   C826    1.399   .     A
C809   H835    1.084   .     S
C810   C825    1.399   .     A
C810   H836    1.084   .     S
C810   C766    1.391   1_655 S
C811   C1060   1.333   1_545 S
C811   H1085   1.087   1_545 S
C812   C935    1.333   .     S
C812   H962    1.087   .     S
C813   C818    1.440   .     S
C813   O845    1.300   .     A
C813   O847    1.298   .     A
C814   C817    1.440   .     S
C814   O848    1.298   .     A
C814   O846    1.300   .     A
C815   C817    1.393   .     A
C815   H831    1.086   .     S
C815   C825    1.388   .     A
C816   H832    1.086   .     S
C816   C818    1.393   .     A
C816   C826    1.388   .     A
C817   C819    1.409   .     A
C818   C820    1.409   .     A
C819   C821    1.407   .     A
C819   N849    1.428   .     S
C820   C822    1.407   .     A
C820   N855    1.428   .     S
C821   C823    1.418   .     A
C821   C827    1.407   .     A
C822   C824    1.418   .     A
C822   C828    1.407   .     A
C823   C825    1.411   .     A
C823   C762    1.405   1_655 S
C824   C826    1.411   .     A
C827   H833    1.083   .     S
C827   C747    1.391   1_655 S
C828   H834    1.083   .     S
Cu829  O844    1.946   .     S
Cu829  O841    1.946   .     S
Cu829  O848    1.944   .     S
Cu829  O845    1.958   .     S
Cu829  Cu830   2.716   .     S
Cu829  N840    2.041   .     S
Cu830  N839    2.041   .     S
Cu830  O843    1.946   .     S
Cu830  O847    1.944   .     S
Cu830  O842    1.946   .     S
Cu830  O846    1.958   .     S
H837   C935    1.087   .     S
H838   C1060   1.087   1_545 S
N840   N95     1.294   1_556 S
N840   C121    1.413   1_556 S
N849   C851    1.447   .     S
N849   H850    1.031   .     S
C851   H852    1.111   .     S
C851   H853    1.111   .     S
C851   H854    1.110   .     S
N855   C857    1.447   .     S
N855   H856    1.031   .     S
C857   H860    1.111   .     S
C857   H858    1.111   .     S
C857   H859    1.110   .     S
C861   O862    1.222   .     D
C861   O863    1.399   .     S
C861   N95     1.413   1_556 S
O863   H864    1.014   .     S
C865   O866    1.222   .     D
C865   O867    1.399   .     S
O867   H868    1.014   .     S
C869   C873    1.428   .     S
C869   O905    1.298   .     A
C869   O903    1.297   .     A
C870   O906    1.298   .     A
C870   O904    1.297   .     A
C870   C874    1.428   .     S
C871   C888    1.399   .     A
C871   H897    1.084   .     S
C871   C951    1.391   1_455 S
C872   C887    1.399   .     A
C872   H898    1.084   .     S
C872   C952    1.391   .     S
C874   C997    1.333   .     S
C874   H1024   1.087   .     S
C875   C880    1.440   .     S
C875   O907    1.300   .     A
C875   O909    1.298   .     A
C876   C879    1.440   .     S
C876   O910    1.298   .     A
C876   O908    1.300   .     A
C877   C879    1.393   .     A
C877   H893    1.086   .     S
C877   C887    1.388   .     A
C878   H894    1.086   .     S
C878   C880    1.393   .     A
C878   C888    1.388   .     A
C879   C881    1.409   .     A
C880   C882    1.409   .     A
C881   C883    1.407   .     A
C881   N911    1.428   .     S
C882   C884    1.407   .     A
C882   N917    1.428   .     S
C883   C885    1.418   .     A
C883   C889    1.407   .     A
C884   C886    1.418   .     A
C884   C890    1.407   .     A
C885   C887    1.411   .     A
C885   C948    1.405   .     S
C886   C888    1.411   .     A
C886   C947    1.405   1_455 S
C889   H895    1.083   .     S
C889   C933    1.391   .     S
C890   H896    1.083   .     S
C890   C934    1.391   1_455 S
Cu891  O906    1.946   .     S
Cu891  O903    1.946   .     S
Cu891  O910    1.944   .     S
Cu891  O907    1.958   .     S
Cu891  Cu892   2.716   .     S
Cu891  N902    2.041   .     S
Cu892  N901    2.041   .     S
Cu892  O905    1.946   .     S
Cu892  O909    1.944   .     S
Cu892  O904    1.946   .     S
Cu892  O908    1.958   .     S
H899   C997    1.087   .     S
N902   N157    1.294   1_556 S
N902   C183    1.413   1_556 S
N911   C913    1.447   .     S
N911   H912    1.031   .     S
C913   H914    1.111   .     S
C913   H915    1.111   .     S
C913   H916    1.110   .     S
N917   C919    1.447   .     S
N917   H918    1.031   .     S
C919   H922    1.111   .     S
C919   H920    1.111   .     S
C919   H921    1.110   .     S
C923   O924    1.222   .     D
C923   O925    1.399   .     S
C923   N157    1.413   1_556 S
O925   H926    1.014   .     S
C927   O928    1.222   .     D
C927   O929    1.399   .     S
O929   H930    1.014   .     S
C931   C935    1.428   .     S
C931   O967    1.298   .     A
C931   O965    1.297   .     A
C932   O968    1.298   .     A
C932   O966    1.297   .     A
C932   C936    1.428   .     S
C933   C950    1.399   .     A
C933   H959    1.084   .     S
C934   C949    1.399   .     A
C934   H960    1.084   .     S
C934   C890    1.391   1_655 S
C936   C1059   1.333   .     S
C936   H1086   1.087   .     S
C937   C942    1.440   .     S
C937   O969    1.300   .     A
C937   O971    1.298   .     A
C938   C941    1.440   .     S
C938   O972    1.298   .     A
C938   O970    1.300   .     A
C939   C941    1.393   .     A
C939   H955    1.086   .     S
C939   C949    1.388   .     A
C940   H956    1.086   .     S
C940   C942    1.393   .     A
C940   C950    1.388   .     A
C941   C943    1.409   .     A
C942   C944    1.409   .     A
C943   C945    1.407   .     A
C943   N973    1.428   .     S
C944   C946    1.407   .     A
C944   N979    1.428   .     S
C945   C947    1.418   .     A
C945   C951    1.407   .     A
C946   C948    1.418   .     A
C946   C952    1.407   .     A
C947   C949    1.411   .     A
C947   C886    1.405   1_655 S
C948   C950    1.411   .     A
C951   H957    1.083   .     S
C951   C871    1.391   1_655 S
C952   H958    1.083   .     S
Cu953  O968    1.946   .     S
Cu953  O965    1.946   .     S
Cu953  O972    1.944   .     S
Cu953  O969    1.958   .     S
Cu953  Cu954   2.716   .     S
Cu953  N964    2.041   .     S
Cu954  N963    2.041   .     S
Cu954  O967    1.946   .     S
Cu954  O971    1.944   .     S
Cu954  O966    1.946   .     S
Cu954  O970    1.958   .     S
H961   C1059   1.087   .     S
N964   N219    1.294   1_556 S
N964   C245    1.413   1_556 S
N973   C975    1.447   .     S
N973   H974    1.031   .     S
C975   H976    1.111   .     S
C975   H977    1.111   .     S
C975   H978    1.110   .     S
N979   C981    1.447   .     S
N979   H980    1.031   .     S
C981   H984    1.111   .     S
C981   H982    1.111   .     S
C981   H983    1.110   .     S
C985   O986    1.222   .     D
C985   O987    1.399   .     S
C985   N219    1.413   1_556 S
O987   H988    1.014   .     S
C989   O990    1.222   .     D
C989   O991    1.399   .     S
O991   H992    1.014   .     S
C993   C997    1.428   .     S
C993   O1029   1.298   .     A
C993   O1027   1.297   .     A
C994   O1030   1.298   .     A
C994   O1028   1.297   .     A
C994   C998    1.428   .     S
C995   C1012   1.399   .     A
C995   H1021   1.084   .     S
C995   C1075   1.391   1_455 S
C996   C1011   1.399   .     A
C996   H1022   1.084   .     S
C996   C1076   1.391   .     S
C998   C749    1.333   1_565 S
C998   H776    1.087   1_565 S
C999   C1004   1.440   .     S
C999   O1031   1.300   .     A
C999   O1033   1.298   .     A
C1000  C1003   1.440   .     S
C1000  O1034   1.298   .     A
C1000  O1032   1.300   .     A
C1001  C1003   1.393   .     A
C1001  H1017   1.086   .     S
C1001  C1011   1.388   .     A
C1002  H1018   1.086   .     S
C1002  C1004   1.393   .     A
C1002  C1012   1.388   .     A
C1003  C1005   1.409   .     A
C1004  C1006   1.409   .     A
C1005  C1007   1.407   .     A
C1005  N1035   1.428   .     S
C1006  C1008   1.407   .     A
C1006  N1041   1.428   .     S
C1007  C1009   1.418   .     A
C1007  C1013   1.407   .     A
C1008  C1010   1.418   .     A
C1008  C1014   1.407   .     A
C1009  C1011   1.411   .     A
C1009  C1072   1.405   .     S
C1010  C1012   1.411   .     A
C1010  C1071   1.405   1_455 S
C1013  H1019   1.083   .     S
C1013  C1057   1.391   .     S
C1014  H1020   1.083   .     S
C1014  C1058   1.391   1_455 S
Cu1015 O1030   1.946   .     S
Cu1015 O1027   1.946   .     S
Cu1015 O1034   1.944   .     S
Cu1015 O1031   1.958   .     S
Cu1015 Cu1016  2.716   .     S
Cu1015 N1026   2.041   .     S
Cu1016 N1025   2.041   .     S
Cu1016 O1029   1.946   .     S
Cu1016 O1033   1.944   .     S
Cu1016 O1028   1.946   .     S
Cu1016 O1032   1.958   .     S
H1023  C749    1.087   1_565 S
N1026  N281    1.294   1_556 S
N1026  C307    1.413   1_556 S
N1035  C1037   1.447   .     S
N1035  H1036   1.031   .     S
C1037  H1038   1.111   .     S
C1037  H1039   1.111   .     S
C1037  H1040   1.110   .     S
N1041  C1043   1.447   .     S
N1041  H1042   1.031   .     S
C1043  H1046   1.111   .     S
C1043  H1044   1.111   .     S
C1043  H1045   1.110   .     S
C1047  O1048   1.222   .     D
C1047  O1049   1.399   .     S
C1047  N281    1.413   1_556 S
O1049  H1050   1.014   .     S
C1051  O1052   1.222   .     D
C1051  O1053   1.399   .     S
O1053  H1054   1.014   .     S
C1055  C1059   1.428   .     S
C1055  O1091   1.298   .     A
C1055  O1089   1.297   .     A
C1056  O1092   1.298   .     A
C1056  O1090   1.297   .     A
C1056  C1060   1.428   .     S
C1057  C1074   1.399   .     A
C1057  H1083   1.084   .     S
C1058  C1073   1.399   .     A
C1058  H1084   1.084   .     S
C1058  C1014   1.391   1_655 S
C1060  C811    1.333   1_565 S
C1060  H838    1.087   1_565 S
C1061  C1066   1.440   .     S
C1061  O1093   1.300   .     A
C1061  O1095   1.298   .     A
C1062  C1065   1.440   .     S
C1062  O1096   1.298   .     A
C1062  O1094   1.300   .     A
C1063  C1065   1.393   .     A
C1063  H1079   1.086   .     S
C1063  C1073   1.388   .     A
C1064  H1080   1.086   .     S
C1064  C1066   1.393   .     A
C1064  C1074   1.388   .     A
C1065  C1067   1.409   .     A
C1066  C1068   1.409   .     A
C1067  C1069   1.407   .     A
C1067  N1097   1.428   .     S
C1068  C1070   1.407   .     A
C1068  N1103   1.428   .     S
C1069  C1071   1.418   .     A
C1069  C1075   1.407   .     A
C1070  C1072   1.418   .     A
C1070  C1076   1.407   .     A
C1071  C1073   1.411   .     A
C1071  C1010   1.405   1_655 S
C1072  C1074   1.411   .     A
C1075  H1081   1.083   .     S
C1075  C995    1.391   1_655 S
C1076  H1082   1.083   .     S
Cu1077 O1092   1.946   .     S
Cu1077 O1089   1.946   .     S
Cu1077 O1096   1.944   .     S
Cu1077 O1093   1.958   .     S
Cu1077 Cu1078  2.716   .     S
Cu1077 N1088   2.041   .     S
Cu1078 N1087   2.041   .     S
Cu1078 O1091   1.946   .     S
Cu1078 O1095   1.944   .     S
Cu1078 O1090   1.946   .     S
Cu1078 O1094   1.958   .     S
H1085  C811    1.087   1_565 S
N1088  N343    1.294   1_556 S
N1088  C369    1.413   1_556 S
N1097  C1099   1.447   .     S
N1097  H1098   1.031   .     S
C1099  H1100   1.111   .     S
C1099  H1101   1.111   .     S
C1099  H1102   1.110   .     S
N1103  C1105   1.447   .     S
N1103  H1104   1.031   .     S
C1105  H1108   1.111   .     S
C1105  H1106   1.111   .     S
C1105  H1107   1.110   .     S
C1109  O1110   1.222   .     D
C1109  O1111   1.399   .     S
C1109  N343    1.413   1_556 S
O1111  H1112   1.014   .     S
C1113  O1114   1.222   .     D
C1113  O1115   1.399   .     S
O1115  H1116   1.014   .     S
