data_str_m2_o1_o16_pcu_sym.166
_audit_creation_date              2020-01-03
_audit_creation_method            'Materials Studio'
_symmetry_space_group_name_H-M    'P1'
_symmetry_Int_Tables_number       1
_symmetry_cell_setting            triclinic
loop_
_symmetry_equiv_pos_as_xyz
  x,y,z
_cell_length_a                    28.6734
_cell_length_b                    32.6772
_cell_length_c                    27.1957
_cell_angle_alpha                 91.8383
_cell_angle_beta                  73.9660
_cell_angle_gamma                 90.3124
loop_
_atom_site_label
_atom_site_type_symbol
_atom_site_fract_x
_atom_site_fract_y
_atom_site_fract_z
_atom_site_U_iso_or_equiv
_atom_site_adp_type
_atom_site_occupancy
O1     O     0.12708   0.22678   0.25000   0.00000  Uiso   1.00
O2     O     0.20627   0.22679   0.25000   0.00000  Uiso   1.00
C3     C     0.16656   0.24595   0.24983   0.00000  Uiso   1.00
O4     O     0.10775   0.16665   0.32549   0.00000  Uiso   1.00
O5     O     0.18694   0.16666   0.32549   0.00000  Uiso   1.00
C6     C     0.14154   0.16366   0.34938   0.00000  Uiso   1.00
Cu7    Cu    0.11978   0.16666   0.25000   0.00000  Uiso   1.00
Cu8    Cu    0.21355   0.16667   0.25000   0.00000  Uiso   1.00
O9     O     0.12706   0.10654   0.25000   0.00000  Uiso   1.00
O10    O     0.20625   0.10655   0.25000   0.00000  Uiso   1.00
O11    O     0.14640   0.16667   0.17451   0.00000  Uiso   1.00
O12    O     0.22559   0.16668   0.17451   0.00000  Uiso   1.00
C13    C     0.16530   0.08760   0.25428   0.00000  Uiso   1.00
C14    C     0.19229   0.16842   0.15072   0.00000  Uiso   1.00
C15    C     0.26701   0.18373   0.01557   0.00000  Uiso   1.00
C16    C     0.20648   0.17261   0.09530   0.00000  Uiso   1.00
C17    C     0.07959   0.15380   0.43149   0.00000  Uiso   1.00
C18    C     0.06480   0.15465   0.48448   0.00000  Uiso   1.00
C19    C     0.09794   0.16256   0.01217   0.00000  Uiso   1.00
C20    C     0.14823   0.16387   0.48780   0.00000  Uiso   1.00
C21    C     0.16416   0.15943   0.43363   0.00000  Uiso   1.00
C22    C     0.18329   0.16925   0.01563   0.00000  Uiso   1.00
C23    C     0.23278   0.17441   0.48902   0.00000  Uiso   1.00
C24    C     0.24818   0.16706   0.43661   0.00000  Uiso   1.00
C25    C     0.21485   0.15630   0.41028   0.00000  Uiso   1.00
C26    C     0.17118   0.16792   0.06904   0.00000  Uiso   1.00
C27    C     0.25421   0.18220   0.06861   0.00000  Uiso   1.00
C28    C     0.12876   0.15823   0.40528   0.00000  Uiso   1.00
H29    H     0.13493   0.16116   0.09092   0.00000  Uiso   1.00
H30    H     0.23071   0.14383   0.37238   0.00000  Uiso   1.00
C31    C     0.20405   0.31205   0.26135   0.00000  Uiso   1.00
H32    H     0.23511   0.29561   0.26623   0.00000  Uiso   1.00
C33    C     0.20296   0.02114   0.26705   0.00000  Uiso   1.00
C34    C     0.16267   0.04299   0.26061   0.00000  Uiso   1.00
C35    C     0.12087   0.02122   0.25657   0.00000  Uiso   1.00
C36    C     0.12283   0.31207   0.24995   0.00000  Uiso   1.00
C37    C     0.16493   0.29066   0.25200   0.00000  Uiso   1.00
C38    C     0.29917   0.18801   0.28691   0.00000  Uiso   1.00
C39    C     0.01523   0.18765   0.28724   0.00000  Uiso   1.00
N40    N     0.04931   0.16666   0.24998   0.00000  Uiso   1.00
C41    C     0.03351   0.14571   0.21196   0.00000  Uiso   1.00
C42    C     0.31717   0.14553   0.21329   0.00000  Uiso   1.00
H43    H     0.30497   0.12859   0.18436   0.00000  Uiso   1.00
N44    N     0.28402   0.16669   0.24999   0.00000  Uiso   1.00
H45    H     0.28163   0.18788   0.08853   0.00000  Uiso   1.00
N46    N     0.24148   0.04106   0.28278   0.00000  Uiso   1.00
O47    O     0.23120   0.06610   0.32253   0.00000  Uiso   1.00
O48    O     0.28581   0.02780   0.26482   0.00000  Uiso   1.00
N49    N     0.07550   0.04155   0.26110   0.00000  Uiso   1.00
O50    O     0.05331   0.06064   0.30384   0.00000  Uiso   1.00
O51    O     0.05270   0.03538   0.22630   0.00000  Uiso   1.00
N52    N     0.08125   0.29110   0.24206   0.00000  Uiso   1.00
O53    O     0.08201   0.27679   0.19663   0.00000  Uiso   1.00
O54    O     0.04127   0.28963   0.27902   0.00000  Uiso   1.00
H55    H     0.27308   0.20539   0.31641   0.00000  Uiso   1.00
H56    H     0.02609   0.20457   0.31707   0.00000  Uiso   1.00
N57    N     0.06589   0.12527   0.16807   0.00000  Uiso   1.00
O58    O     0.09814   0.09935   0.17310   0.00000  Uiso   1.00
O59    O     0.05416   0.12358   0.12511   0.00000  Uiso   1.00
H60    H     0.28653   0.16684   0.41641   0.00000  Uiso   1.00
H61    H     0.30377   0.19134   0.49493   0.00000  Uiso   1.00
H62    H     0.05221   0.15047   0.41105   0.00000  Uiso   1.00
H63    H     0.08282   0.16818   0.05252   0.00000  Uiso   1.00
H64    H     0.02715   0.15041   0.00463   0.00000  Uiso   1.00
O65    O     0.46042   0.22678   0.25000   0.00000  Uiso   1.00
O66    O     0.53961   0.22679   0.25000   0.00000  Uiso   1.00
C67    C     0.49989   0.24595   0.24983   0.00000  Uiso   1.00
O68    O     0.44108   0.16665   0.32549   0.00000  Uiso   1.00
O69    O     0.52027   0.16666   0.32549   0.00000  Uiso   1.00
C70    C     0.47487   0.16366   0.34938   0.00000  Uiso   1.00
Cu71   Cu    0.45311   0.16666   0.25000   0.00000  Uiso   1.00
Cu72   Cu    0.54689   0.16667   0.25000   0.00000  Uiso   1.00
O73    O     0.46039   0.10654   0.25000   0.00000  Uiso   1.00
O74    O     0.53958   0.10655   0.25000   0.00000  Uiso   1.00
O75    O     0.47973   0.16667   0.17451   0.00000  Uiso   1.00
O76    O     0.55892   0.16668   0.17451   0.00000  Uiso   1.00
C77    C     0.49863   0.08760   0.25428   0.00000  Uiso   1.00
C78    C     0.52562   0.16842   0.15072   0.00000  Uiso   1.00
C79    C     0.60035   0.18373   0.01557   0.00000  Uiso   1.00
C80    C     0.53982   0.17261   0.09530   0.00000  Uiso   1.00
C81    C     0.41292   0.15380   0.43149   0.00000  Uiso   1.00
C82    C     0.39814   0.15465   0.48448   0.00000  Uiso   1.00
C83    C     0.43127   0.16256   0.01217   0.00000  Uiso   1.00
C84    C     0.48156   0.16387   0.48780   0.00000  Uiso   1.00
C85    C     0.49749   0.15943   0.43363   0.00000  Uiso   1.00
C86    C     0.51663   0.16925   0.01563   0.00000  Uiso   1.00
C87    C     0.56611   0.17441   0.48902   0.00000  Uiso   1.00
C88    C     0.58151   0.16706   0.43661   0.00000  Uiso   1.00
C89    C     0.54818   0.15630   0.41028   0.00000  Uiso   1.00
C90    C     0.50452   0.16792   0.06904   0.00000  Uiso   1.00
C91    C     0.58755   0.18220   0.06861   0.00000  Uiso   1.00
C92    C     0.46209   0.15823   0.40528   0.00000  Uiso   1.00
H93    H     0.46827   0.16116   0.09092   0.00000  Uiso   1.00
H94    H     0.56405   0.14383   0.37238   0.00000  Uiso   1.00
C95    C     0.53738   0.31205   0.26135   0.00000  Uiso   1.00
H96    H     0.56844   0.29561   0.26623   0.00000  Uiso   1.00
C97    C     0.53629   0.02114   0.26705   0.00000  Uiso   1.00
C98    C     0.49600   0.04299   0.26061   0.00000  Uiso   1.00
C99    C     0.45421   0.02122   0.25657   0.00000  Uiso   1.00
C100   C     0.45616   0.31207   0.24995   0.00000  Uiso   1.00
C101   C     0.49826   0.29066   0.25200   0.00000  Uiso   1.00
C102   C     0.63250   0.18801   0.28691   0.00000  Uiso   1.00
C103   C     0.34857   0.18765   0.28724   0.00000  Uiso   1.00
N104   N     0.38265   0.16666   0.24998   0.00000  Uiso   1.00
C105   C     0.36685   0.14571   0.21196   0.00000  Uiso   1.00
C106   C     0.65051   0.14553   0.21329   0.00000  Uiso   1.00
H107   H     0.63830   0.12859   0.18436   0.00000  Uiso   1.00
N108   N     0.61735   0.16669   0.24999   0.00000  Uiso   1.00
H109   H     0.61497   0.18788   0.08853   0.00000  Uiso   1.00
N110   N     0.57482   0.04106   0.28278   0.00000  Uiso   1.00
O111   O     0.56453   0.06610   0.32253   0.00000  Uiso   1.00
O112   O     0.61914   0.02780   0.26482   0.00000  Uiso   1.00
N113   N     0.40883   0.04155   0.26110   0.00000  Uiso   1.00
O114   O     0.38665   0.06064   0.30384   0.00000  Uiso   1.00
O115   O     0.38603   0.03538   0.22630   0.00000  Uiso   1.00
N116   N     0.41459   0.29110   0.24206   0.00000  Uiso   1.00
O117   O     0.41535   0.27679   0.19663   0.00000  Uiso   1.00
O118   O     0.37460   0.28963   0.27902   0.00000  Uiso   1.00
H119   H     0.60641   0.20539   0.31641   0.00000  Uiso   1.00
H120   H     0.35942   0.20457   0.31707   0.00000  Uiso   1.00
N121   N     0.39922   0.12527   0.16807   0.00000  Uiso   1.00
O122   O     0.43148   0.09935   0.17310   0.00000  Uiso   1.00
O123   O     0.38750   0.12358   0.12511   0.00000  Uiso   1.00
H124   H     0.61986   0.16684   0.41641   0.00000  Uiso   1.00
H125   H     0.63710   0.19134   0.49493   0.00000  Uiso   1.00
H126   H     0.38554   0.15047   0.41105   0.00000  Uiso   1.00
H127   H     0.41616   0.16818   0.05252   0.00000  Uiso   1.00
H128   H     0.36049   0.15041   0.00463   0.00000  Uiso   1.00
O129   O     0.79375   0.22678   0.25000   0.00000  Uiso   1.00
O130   O     0.87294   0.22679   0.25000   0.00000  Uiso   1.00
C131   C     0.83322   0.24595   0.24983   0.00000  Uiso   1.00
O132   O     0.77441   0.16665   0.32549   0.00000  Uiso   1.00
O133   O     0.85360   0.16666   0.32549   0.00000  Uiso   1.00
C134   C     0.80821   0.16366   0.34938   0.00000  Uiso   1.00
Cu135  Cu    0.78645   0.16666   0.25000   0.00000  Uiso   1.00
Cu136  Cu    0.88022   0.16667   0.25000   0.00000  Uiso   1.00
O137   O     0.79373   0.10654   0.25000   0.00000  Uiso   1.00
O138   O     0.87292   0.10655   0.25000   0.00000  Uiso   1.00
O139   O     0.81306   0.16667   0.17451   0.00000  Uiso   1.00
O140   O     0.89225   0.16668   0.17451   0.00000  Uiso   1.00
C141   C     0.83197   0.08760   0.25428   0.00000  Uiso   1.00
C142   C     0.85895   0.16842   0.15072   0.00000  Uiso   1.00
C143   C     0.93368   0.18373   0.01557   0.00000  Uiso   1.00
C144   C     0.87315   0.17261   0.09530   0.00000  Uiso   1.00
C145   C     0.74626   0.15380   0.43149   0.00000  Uiso   1.00
C146   C     0.73147   0.15465   0.48448   0.00000  Uiso   1.00
C147   C     0.76461   0.16256   0.01217   0.00000  Uiso   1.00
C148   C     0.81489   0.16387   0.48780   0.00000  Uiso   1.00
C149   C     0.83082   0.15943   0.43363   0.00000  Uiso   1.00
C150   C     0.84996   0.16925   0.01563   0.00000  Uiso   1.00
C151   C     0.89944   0.17441   0.48902   0.00000  Uiso   1.00
C152   C     0.91485   0.16706   0.43661   0.00000  Uiso   1.00
C153   C     0.88151   0.15630   0.41028   0.00000  Uiso   1.00
C154   C     0.83785   0.16792   0.06904   0.00000  Uiso   1.00
C155   C     0.92088   0.18220   0.06861   0.00000  Uiso   1.00
C156   C     0.79542   0.15823   0.40528   0.00000  Uiso   1.00
H157   H     0.80160   0.16116   0.09092   0.00000  Uiso   1.00
H158   H     0.89738   0.14383   0.37238   0.00000  Uiso   1.00
C159   C     0.87072   0.31205   0.26135   0.00000  Uiso   1.00
H160   H     0.90178   0.29561   0.26623   0.00000  Uiso   1.00
C161   C     0.86962   0.02114   0.26705   0.00000  Uiso   1.00
C162   C     0.82933   0.04299   0.26061   0.00000  Uiso   1.00
C163   C     0.78754   0.02122   0.25657   0.00000  Uiso   1.00
C164   C     0.78949   0.31207   0.24995   0.00000  Uiso   1.00
C165   C     0.83159   0.29066   0.25200   0.00000  Uiso   1.00
C166   C     0.96583   0.18801   0.28691   0.00000  Uiso   1.00
C167   C     0.68190   0.18765   0.28724   0.00000  Uiso   1.00
N168   N     0.71598   0.16666   0.24998   0.00000  Uiso   1.00
C169   C     0.70018   0.14571   0.21196   0.00000  Uiso   1.00
C170   C     0.98384   0.14553   0.21329   0.00000  Uiso   1.00
H171   H     0.97164   0.12859   0.18436   0.00000  Uiso   1.00
N172   N     0.95069   0.16669   0.24999   0.00000  Uiso   1.00
H173   H     0.94830   0.18788   0.08853   0.00000  Uiso   1.00
N174   N     0.90815   0.04106   0.28278   0.00000  Uiso   1.00
O175   O     0.89787   0.06610   0.32253   0.00000  Uiso   1.00
O176   O     0.95247   0.02780   0.26482   0.00000  Uiso   1.00
N177   N     0.74216   0.04155   0.26110   0.00000  Uiso   1.00
O178   O     0.71998   0.06064   0.30384   0.00000  Uiso   1.00
O179   O     0.71936   0.03538   0.22630   0.00000  Uiso   1.00
N180   N     0.74792   0.29110   0.24206   0.00000  Uiso   1.00
O181   O     0.74868   0.27679   0.19663   0.00000  Uiso   1.00
O182   O     0.70793   0.28963   0.27902   0.00000  Uiso   1.00
H183   H     0.93975   0.20539   0.31641   0.00000  Uiso   1.00
H184   H     0.69276   0.20457   0.31707   0.00000  Uiso   1.00
N185   N     0.73256   0.12527   0.16807   0.00000  Uiso   1.00
O186   O     0.76481   0.09935   0.17310   0.00000  Uiso   1.00
O187   O     0.72083   0.12358   0.12511   0.00000  Uiso   1.00
H188   H     0.95320   0.16684   0.41641   0.00000  Uiso   1.00
H189   H     0.97043   0.19134   0.49493   0.00000  Uiso   1.00
H190   H     0.71887   0.15047   0.41105   0.00000  Uiso   1.00
H191   H     0.74949   0.16818   0.05252   0.00000  Uiso   1.00
H192   H     0.69382   0.15041   0.00463   0.00000  Uiso   1.00
O193   O     0.12708   0.56011   0.25000   0.00000  Uiso   1.00
O194   O     0.20627   0.56012   0.25000   0.00000  Uiso   1.00
C195   C     0.16656   0.57928   0.24983   0.00000  Uiso   1.00
O196   O     0.10775   0.49998   0.32549   0.00000  Uiso   1.00
O197   O     0.18694   0.49999   0.32549   0.00000  Uiso   1.00
C198   C     0.14154   0.49699   0.34938   0.00000  Uiso   1.00
Cu199  Cu    0.11978   0.49999   0.25000   0.00000  Uiso   1.00
Cu200  Cu    0.21355   0.50001   0.25000   0.00000  Uiso   1.00
O201   O     0.12706   0.43988   0.25000   0.00000  Uiso   1.00
O202   O     0.20625   0.43989   0.25000   0.00000  Uiso   1.00
O203   O     0.14640   0.50001   0.17451   0.00000  Uiso   1.00
O204   O     0.22559   0.50002   0.17451   0.00000  Uiso   1.00
C205   C     0.16530   0.42093   0.25428   0.00000  Uiso   1.00
C206   C     0.19229   0.50176   0.15072   0.00000  Uiso   1.00
C207   C     0.26701   0.51706   0.01557   0.00000  Uiso   1.00
C208   C     0.20648   0.50595   0.09530   0.00000  Uiso   1.00
C209   C     0.07959   0.48713   0.43149   0.00000  Uiso   1.00
C210   C     0.06480   0.48799   0.48448   0.00000  Uiso   1.00
C211   C     0.09794   0.49589   0.01217   0.00000  Uiso   1.00
C212   C     0.14823   0.49720   0.48780   0.00000  Uiso   1.00
C213   C     0.16416   0.49277   0.43363   0.00000  Uiso   1.00
C214   C     0.18329   0.50259   0.01563   0.00000  Uiso   1.00
C215   C     0.23278   0.50775   0.48902   0.00000  Uiso   1.00
C216   C     0.24818   0.50039   0.43661   0.00000  Uiso   1.00
C217   C     0.21485   0.48963   0.41028   0.00000  Uiso   1.00
C218   C     0.17118   0.50125   0.06904   0.00000  Uiso   1.00
C219   C     0.25421   0.51553   0.06861   0.00000  Uiso   1.00
C220   C     0.12876   0.49156   0.40528   0.00000  Uiso   1.00
H221   H     0.13493   0.49449   0.09092   0.00000  Uiso   1.00
H222   H     0.23071   0.47716   0.37238   0.00000  Uiso   1.00
C223   C     0.20405   0.64538   0.26135   0.00000  Uiso   1.00
H224   H     0.23511   0.62894   0.26623   0.00000  Uiso   1.00
C225   C     0.20296   0.35447   0.26705   0.00000  Uiso   1.00
C226   C     0.16267   0.37633   0.26061   0.00000  Uiso   1.00
C227   C     0.12087   0.35456   0.25657   0.00000  Uiso   1.00
C228   C     0.12283   0.64541   0.24995   0.00000  Uiso   1.00
C229   C     0.16493   0.62400   0.25200   0.00000  Uiso   1.00
C230   C     0.29917   0.52135   0.28691   0.00000  Uiso   1.00
C231   C     0.01523   0.52098   0.28724   0.00000  Uiso   1.00
N232   N     0.04931   0.49999   0.24998   0.00000  Uiso   1.00
C233   C     0.03351   0.47904   0.21196   0.00000  Uiso   1.00
C234   C     0.31717   0.47887   0.21329   0.00000  Uiso   1.00
H235   H     0.30497   0.46192   0.18436   0.00000  Uiso   1.00
N236   N     0.28402   0.50002   0.24999   0.00000  Uiso   1.00
H237   H     0.28163   0.52121   0.08853   0.00000  Uiso   1.00
N238   N     0.24148   0.37439   0.28278   0.00000  Uiso   1.00
O239   O     0.23120   0.39943   0.32253   0.00000  Uiso   1.00
O240   O     0.28581   0.36113   0.26482   0.00000  Uiso   1.00
N241   N     0.07550   0.37489   0.26110   0.00000  Uiso   1.00
O242   O     0.05331   0.39398   0.30384   0.00000  Uiso   1.00
O243   O     0.05270   0.36871   0.22630   0.00000  Uiso   1.00
N244   N     0.08125   0.62443   0.24206   0.00000  Uiso   1.00
O245   O     0.08201   0.61012   0.19663   0.00000  Uiso   1.00
O246   O     0.04127   0.62297   0.27902   0.00000  Uiso   1.00
H247   H     0.27308   0.53872   0.31641   0.00000  Uiso   1.00
H248   H     0.02609   0.53791   0.31707   0.00000  Uiso   1.00
N249   N     0.06589   0.45860   0.16807   0.00000  Uiso   1.00
O250   O     0.09814   0.43268   0.17310   0.00000  Uiso   1.00
O251   O     0.05416   0.45691   0.12511   0.00000  Uiso   1.00
H252   H     0.28653   0.50017   0.41641   0.00000  Uiso   1.00
H253   H     0.30377   0.52467   0.49493   0.00000  Uiso   1.00
H254   H     0.05221   0.48381   0.41105   0.00000  Uiso   1.00
H255   H     0.08282   0.50151   0.05252   0.00000  Uiso   1.00
H256   H     0.02715   0.48374   0.00463   0.00000  Uiso   1.00
O257   O     0.46042   0.56011   0.25000   0.00000  Uiso   1.00
O258   O     0.53961   0.56012   0.25000   0.00000  Uiso   1.00
C259   C     0.49989   0.57928   0.24983   0.00000  Uiso   1.00
O260   O     0.44108   0.49998   0.32549   0.00000  Uiso   1.00
O261   O     0.52027   0.49999   0.32549   0.00000  Uiso   1.00
C262   C     0.47487   0.49699   0.34938   0.00000  Uiso   1.00
Cu263  Cu    0.45311   0.49999   0.25000   0.00000  Uiso   1.00
Cu264  Cu    0.54689   0.50001   0.25000   0.00000  Uiso   1.00
O265   O     0.46039   0.43988   0.25000   0.00000  Uiso   1.00
O266   O     0.53958   0.43989   0.25000   0.00000  Uiso   1.00
O267   O     0.47973   0.50001   0.17451   0.00000  Uiso   1.00
O268   O     0.55892   0.50002   0.17451   0.00000  Uiso   1.00
C269   C     0.49863   0.42093   0.25428   0.00000  Uiso   1.00
C270   C     0.52562   0.50176   0.15072   0.00000  Uiso   1.00
C271   C     0.60035   0.51706   0.01557   0.00000  Uiso   1.00
C272   C     0.53982   0.50595   0.09530   0.00000  Uiso   1.00
C273   C     0.41292   0.48713   0.43149   0.00000  Uiso   1.00
C274   C     0.39814   0.48799   0.48448   0.00000  Uiso   1.00
C275   C     0.43127   0.49589   0.01217   0.00000  Uiso   1.00
C276   C     0.48156   0.49720   0.48780   0.00000  Uiso   1.00
C277   C     0.49749   0.49277   0.43363   0.00000  Uiso   1.00
C278   C     0.51663   0.50259   0.01563   0.00000  Uiso   1.00
C279   C     0.56611   0.50775   0.48902   0.00000  Uiso   1.00
C280   C     0.58151   0.50039   0.43661   0.00000  Uiso   1.00
C281   C     0.54818   0.48963   0.41028   0.00000  Uiso   1.00
C282   C     0.50452   0.50125   0.06904   0.00000  Uiso   1.00
C283   C     0.58755   0.51553   0.06861   0.00000  Uiso   1.00
C284   C     0.46209   0.49156   0.40528   0.00000  Uiso   1.00
H285   H     0.46827   0.49449   0.09092   0.00000  Uiso   1.00
H286   H     0.56405   0.47716   0.37238   0.00000  Uiso   1.00
C287   C     0.53738   0.64538   0.26135   0.00000  Uiso   1.00
H288   H     0.56844   0.62894   0.26623   0.00000  Uiso   1.00
C289   C     0.53629   0.35447   0.26705   0.00000  Uiso   1.00
C290   C     0.49600   0.37633   0.26061   0.00000  Uiso   1.00
C291   C     0.45421   0.35456   0.25657   0.00000  Uiso   1.00
C292   C     0.45616   0.64541   0.24995   0.00000  Uiso   1.00
C293   C     0.49826   0.62400   0.25200   0.00000  Uiso   1.00
C294   C     0.63250   0.52135   0.28691   0.00000  Uiso   1.00
C295   C     0.34857   0.52098   0.28724   0.00000  Uiso   1.00
N296   N     0.38265   0.49999   0.24998   0.00000  Uiso   1.00
C297   C     0.36685   0.47904   0.21196   0.00000  Uiso   1.00
C298   C     0.65051   0.47887   0.21329   0.00000  Uiso   1.00
H299   H     0.63830   0.46192   0.18436   0.00000  Uiso   1.00
N300   N     0.61735   0.50002   0.24999   0.00000  Uiso   1.00
H301   H     0.61497   0.52121   0.08853   0.00000  Uiso   1.00
N302   N     0.57482   0.37439   0.28278   0.00000  Uiso   1.00
O303   O     0.56453   0.39943   0.32253   0.00000  Uiso   1.00
O304   O     0.61914   0.36113   0.26482   0.00000  Uiso   1.00
N305   N     0.40883   0.37489   0.26110   0.00000  Uiso   1.00
O306   O     0.38665   0.39398   0.30384   0.00000  Uiso   1.00
O307   O     0.38603   0.36871   0.22630   0.00000  Uiso   1.00
N308   N     0.41459   0.62443   0.24206   0.00000  Uiso   1.00
O309   O     0.41535   0.61012   0.19663   0.00000  Uiso   1.00
O310   O     0.37460   0.62297   0.27902   0.00000  Uiso   1.00
H311   H     0.60641   0.53872   0.31641   0.00000  Uiso   1.00
H312   H     0.35942   0.53791   0.31707   0.00000  Uiso   1.00
N313   N     0.39922   0.45860   0.16807   0.00000  Uiso   1.00
O314   O     0.43148   0.43268   0.17310   0.00000  Uiso   1.00
O315   O     0.38750   0.45691   0.12511   0.00000  Uiso   1.00
H316   H     0.61986   0.50017   0.41641   0.00000  Uiso   1.00
H317   H     0.63710   0.52467   0.49493   0.00000  Uiso   1.00
H318   H     0.38554   0.48381   0.41105   0.00000  Uiso   1.00
H319   H     0.41616   0.50151   0.05252   0.00000  Uiso   1.00
H320   H     0.36049   0.48374   0.00463   0.00000  Uiso   1.00
O321   O     0.79375   0.56011   0.25000   0.00000  Uiso   1.00
O322   O     0.87294   0.56012   0.25000   0.00000  Uiso   1.00
C323   C     0.83322   0.57928   0.24983   0.00000  Uiso   1.00
O324   O     0.77441   0.49998   0.32549   0.00000  Uiso   1.00
O325   O     0.85360   0.49999   0.32549   0.00000  Uiso   1.00
C326   C     0.80821   0.49699   0.34938   0.00000  Uiso   1.00
Cu327  Cu    0.78645   0.49999   0.25000   0.00000  Uiso   1.00
Cu328  Cu    0.88022   0.50001   0.25000   0.00000  Uiso   1.00
O329   O     0.79373   0.43988   0.25000   0.00000  Uiso   1.00
O330   O     0.87292   0.43989   0.25000   0.00000  Uiso   1.00
O331   O     0.81306   0.50001   0.17451   0.00000  Uiso   1.00
O332   O     0.89225   0.50002   0.17451   0.00000  Uiso   1.00
C333   C     0.83197   0.42093   0.25428   0.00000  Uiso   1.00
C334   C     0.85895   0.50176   0.15072   0.00000  Uiso   1.00
C335   C     0.93368   0.51706   0.01557   0.00000  Uiso   1.00
C336   C     0.87315   0.50595   0.09530   0.00000  Uiso   1.00
C337   C     0.74626   0.48713   0.43149   0.00000  Uiso   1.00
C338   C     0.73147   0.48799   0.48448   0.00000  Uiso   1.00
C339   C     0.76461   0.49589   0.01217   0.00000  Uiso   1.00
C340   C     0.81489   0.49720   0.48780   0.00000  Uiso   1.00
C341   C     0.83082   0.49277   0.43363   0.00000  Uiso   1.00
C342   C     0.84996   0.50259   0.01563   0.00000  Uiso   1.00
C343   C     0.89944   0.50775   0.48902   0.00000  Uiso   1.00
C344   C     0.91485   0.50039   0.43661   0.00000  Uiso   1.00
C345   C     0.88151   0.48963   0.41028   0.00000  Uiso   1.00
C346   C     0.83785   0.50125   0.06904   0.00000  Uiso   1.00
C347   C     0.92088   0.51553   0.06861   0.00000  Uiso   1.00
C348   C     0.79542   0.49156   0.40528   0.00000  Uiso   1.00
H349   H     0.80160   0.49449   0.09092   0.00000  Uiso   1.00
H350   H     0.89738   0.47716   0.37238   0.00000  Uiso   1.00
C351   C     0.87072   0.64538   0.26135   0.00000  Uiso   1.00
H352   H     0.90178   0.62894   0.26623   0.00000  Uiso   1.00
C353   C     0.86962   0.35447   0.26705   0.00000  Uiso   1.00
C354   C     0.82933   0.37633   0.26061   0.00000  Uiso   1.00
C355   C     0.78754   0.35456   0.25657   0.00000  Uiso   1.00
C356   C     0.78949   0.64541   0.24995   0.00000  Uiso   1.00
C357   C     0.83159   0.62400   0.25200   0.00000  Uiso   1.00
C358   C     0.96583   0.52135   0.28691   0.00000  Uiso   1.00
C359   C     0.68190   0.52098   0.28724   0.00000  Uiso   1.00
N360   N     0.71598   0.49999   0.24998   0.00000  Uiso   1.00
C361   C     0.70018   0.47904   0.21196   0.00000  Uiso   1.00
C362   C     0.98384   0.47887   0.21329   0.00000  Uiso   1.00
H363   H     0.97164   0.46192   0.18436   0.00000  Uiso   1.00
N364   N     0.95069   0.50002   0.24999   0.00000  Uiso   1.00
H365   H     0.94830   0.52121   0.08853   0.00000  Uiso   1.00
N366   N     0.90815   0.37439   0.28278   0.00000  Uiso   1.00
O367   O     0.89787   0.39943   0.32253   0.00000  Uiso   1.00
O368   O     0.95247   0.36113   0.26482   0.00000  Uiso   1.00
N369   N     0.74216   0.37489   0.26110   0.00000  Uiso   1.00
O370   O     0.71998   0.39398   0.30384   0.00000  Uiso   1.00
O371   O     0.71936   0.36871   0.22630   0.00000  Uiso   1.00
N372   N     0.74792   0.62443   0.24206   0.00000  Uiso   1.00
O373   O     0.74868   0.61012   0.19663   0.00000  Uiso   1.00
O374   O     0.70793   0.62297   0.27902   0.00000  Uiso   1.00
H375   H     0.93975   0.53872   0.31641   0.00000  Uiso   1.00
H376   H     0.69276   0.53791   0.31707   0.00000  Uiso   1.00
N377   N     0.73256   0.45860   0.16807   0.00000  Uiso   1.00
O378   O     0.76481   0.43268   0.17310   0.00000  Uiso   1.00
O379   O     0.72083   0.45691   0.12511   0.00000  Uiso   1.00
H380   H     0.95320   0.50017   0.41641   0.00000  Uiso   1.00
H381   H     0.97043   0.52467   0.49493   0.00000  Uiso   1.00
H382   H     0.71887   0.48381   0.41105   0.00000  Uiso   1.00
H383   H     0.74949   0.50151   0.05252   0.00000  Uiso   1.00
H384   H     0.69382   0.48374   0.00463   0.00000  Uiso   1.00
O385   O     0.12708   0.89345   0.25000   0.00000  Uiso   1.00
O386   O     0.20627   0.89346   0.25000   0.00000  Uiso   1.00
C387   C     0.16656   0.91261   0.24983   0.00000  Uiso   1.00
O388   O     0.10775   0.83332   0.32549   0.00000  Uiso   1.00
O389   O     0.18694   0.83333   0.32549   0.00000  Uiso   1.00
C390   C     0.14154   0.83033   0.34938   0.00000  Uiso   1.00
Cu391  Cu    0.11978   0.83333   0.25000   0.00000  Uiso   1.00
Cu392  Cu    0.21355   0.83334   0.25000   0.00000  Uiso   1.00
O393   O     0.12706   0.77321   0.25000   0.00000  Uiso   1.00
O394   O     0.20625   0.77322   0.25000   0.00000  Uiso   1.00
O395   O     0.14640   0.83334   0.17451   0.00000  Uiso   1.00
O396   O     0.22559   0.83335   0.17451   0.00000  Uiso   1.00
C397   C     0.16530   0.75427   0.25428   0.00000  Uiso   1.00
C398   C     0.19229   0.83509   0.15072   0.00000  Uiso   1.00
C399   C     0.26701   0.85040   0.01557   0.00000  Uiso   1.00
C400   C     0.20648   0.83928   0.09530   0.00000  Uiso   1.00
C401   C     0.07959   0.82047   0.43149   0.00000  Uiso   1.00
C402   C     0.06480   0.82132   0.48448   0.00000  Uiso   1.00
C403   C     0.09794   0.82923   0.01217   0.00000  Uiso   1.00
C404   C     0.14823   0.83053   0.48780   0.00000  Uiso   1.00
C405   C     0.16416   0.82610   0.43363   0.00000  Uiso   1.00
C406   C     0.18329   0.83592   0.01563   0.00000  Uiso   1.00
C407   C     0.23278   0.84108   0.48902   0.00000  Uiso   1.00
C408   C     0.24818   0.83372   0.43661   0.00000  Uiso   1.00
C409   C     0.21485   0.82296   0.41028   0.00000  Uiso   1.00
C410   C     0.17118   0.83459   0.06904   0.00000  Uiso   1.00
C411   C     0.25421   0.84886   0.06861   0.00000  Uiso   1.00
C412   C     0.12876   0.82490   0.40528   0.00000  Uiso   1.00
H413   H     0.13493   0.82782   0.09092   0.00000  Uiso   1.00
H414   H     0.23071   0.81049   0.37238   0.00000  Uiso   1.00
C415   C     0.20405   0.97871   0.26135   0.00000  Uiso   1.00
H416   H     0.23511   0.96227   0.26623   0.00000  Uiso   1.00
C417   C     0.20296   0.68780   0.26705   0.00000  Uiso   1.00
C418   C     0.16267   0.70966   0.26061   0.00000  Uiso   1.00
C419   C     0.12087   0.68789   0.25657   0.00000  Uiso   1.00
C420   C     0.12283   0.97874   0.24995   0.00000  Uiso   1.00
C421   C     0.16493   0.95733   0.25200   0.00000  Uiso   1.00
C422   C     0.29917   0.85468   0.28691   0.00000  Uiso   1.00
C423   C     0.01523   0.85432   0.28724   0.00000  Uiso   1.00
N424   N     0.04931   0.83332   0.24998   0.00000  Uiso   1.00
C425   C     0.03351   0.81237   0.21196   0.00000  Uiso   1.00
C426   C     0.31717   0.81220   0.21329   0.00000  Uiso   1.00
H427   H     0.30497   0.79525   0.18436   0.00000  Uiso   1.00
N428   N     0.28402   0.83335   0.24999   0.00000  Uiso   1.00
H429   H     0.28163   0.85454   0.08853   0.00000  Uiso   1.00
N430   N     0.24148   0.70773   0.28278   0.00000  Uiso   1.00
O431   O     0.23120   0.73277   0.32253   0.00000  Uiso   1.00
O432   O     0.28581   0.69447   0.26482   0.00000  Uiso   1.00
N433   N     0.07550   0.70822   0.26110   0.00000  Uiso   1.00
O434   O     0.05331   0.72731   0.30384   0.00000  Uiso   1.00
O435   O     0.05270   0.70204   0.22630   0.00000  Uiso   1.00
N436   N     0.08125   0.95776   0.24206   0.00000  Uiso   1.00
O437   O     0.08201   0.94345   0.19663   0.00000  Uiso   1.00
O438   O     0.04127   0.95630   0.27902   0.00000  Uiso   1.00
H439   H     0.27308   0.87206   0.31641   0.00000  Uiso   1.00
H440   H     0.02609   0.87124   0.31707   0.00000  Uiso   1.00
N441   N     0.06589   0.79194   0.16807   0.00000  Uiso   1.00
O442   O     0.09814   0.76602   0.17310   0.00000  Uiso   1.00
O443   O     0.05416   0.79024   0.12511   0.00000  Uiso   1.00
H444   H     0.28653   0.83350   0.41641   0.00000  Uiso   1.00
H445   H     0.30377   0.85801   0.49493   0.00000  Uiso   1.00
H446   H     0.05221   0.81714   0.41105   0.00000  Uiso   1.00
H447   H     0.08282   0.83484   0.05252   0.00000  Uiso   1.00
H448   H     0.02715   0.81707   0.00463   0.00000  Uiso   1.00
O449   O     0.46042   0.89345   0.25000   0.00000  Uiso   1.00
O450   O     0.53961   0.89346   0.25000   0.00000  Uiso   1.00
C451   C     0.49989   0.91261   0.24983   0.00000  Uiso   1.00
O452   O     0.44108   0.83332   0.32549   0.00000  Uiso   1.00
O453   O     0.52027   0.83333   0.32549   0.00000  Uiso   1.00
C454   C     0.47487   0.83033   0.34938   0.00000  Uiso   1.00
Cu455  Cu    0.45311   0.83333   0.25000   0.00000  Uiso   1.00
Cu456  Cu    0.54689   0.83334   0.25000   0.00000  Uiso   1.00
O457   O     0.46039   0.77321   0.25000   0.00000  Uiso   1.00
O458   O     0.53958   0.77322   0.25000   0.00000  Uiso   1.00
O459   O     0.47973   0.83334   0.17451   0.00000  Uiso   1.00
O460   O     0.55892   0.83335   0.17451   0.00000  Uiso   1.00
C461   C     0.49863   0.75427   0.25428   0.00000  Uiso   1.00
C462   C     0.52562   0.83509   0.15072   0.00000  Uiso   1.00
C463   C     0.60035   0.85040   0.01557   0.00000  Uiso   1.00
C464   C     0.53982   0.83928   0.09530   0.00000  Uiso   1.00
C465   C     0.41292   0.82047   0.43149   0.00000  Uiso   1.00
C466   C     0.39814   0.82132   0.48448   0.00000  Uiso   1.00
C467   C     0.43127   0.82923   0.01217   0.00000  Uiso   1.00
C468   C     0.48156   0.83053   0.48780   0.00000  Uiso   1.00
C469   C     0.49749   0.82610   0.43363   0.00000  Uiso   1.00
C470   C     0.51663   0.83592   0.01563   0.00000  Uiso   1.00
C471   C     0.56611   0.84108   0.48902   0.00000  Uiso   1.00
C472   C     0.58151   0.83372   0.43661   0.00000  Uiso   1.00
C473   C     0.54818   0.82296   0.41028   0.00000  Uiso   1.00
C474   C     0.50452   0.83459   0.06904   0.00000  Uiso   1.00
C475   C     0.58755   0.84886   0.06861   0.00000  Uiso   1.00
C476   C     0.46209   0.82490   0.40528   0.00000  Uiso   1.00
H477   H     0.46827   0.82782   0.09092   0.00000  Uiso   1.00
H478   H     0.56405   0.81049   0.37238   0.00000  Uiso   1.00
C479   C     0.53738   0.97871   0.26135   0.00000  Uiso   1.00
H480   H     0.56844   0.96227   0.26623   0.00000  Uiso   1.00
C481   C     0.53629   0.68780   0.26705   0.00000  Uiso   1.00
C482   C     0.49600   0.70966   0.26061   0.00000  Uiso   1.00
C483   C     0.45421   0.68789   0.25657   0.00000  Uiso   1.00
C484   C     0.45616   0.97874   0.24995   0.00000  Uiso   1.00
C485   C     0.49826   0.95733   0.25200   0.00000  Uiso   1.00
C486   C     0.63250   0.85468   0.28691   0.00000  Uiso   1.00
C487   C     0.34857   0.85432   0.28724   0.00000  Uiso   1.00
N488   N     0.38265   0.83332   0.24998   0.00000  Uiso   1.00
C489   C     0.36685   0.81237   0.21196   0.00000  Uiso   1.00
C490   C     0.65051   0.81220   0.21329   0.00000  Uiso   1.00
H491   H     0.63830   0.79525   0.18436   0.00000  Uiso   1.00
N492   N     0.61735   0.83335   0.24999   0.00000  Uiso   1.00
H493   H     0.61497   0.85454   0.08853   0.00000  Uiso   1.00
N494   N     0.57482   0.70773   0.28278   0.00000  Uiso   1.00
O495   O     0.56453   0.73277   0.32253   0.00000  Uiso   1.00
O496   O     0.61914   0.69447   0.26482   0.00000  Uiso   1.00
N497   N     0.40883   0.70822   0.26110   0.00000  Uiso   1.00
O498   O     0.38665   0.72731   0.30384   0.00000  Uiso   1.00
O499   O     0.38603   0.70204   0.22630   0.00000  Uiso   1.00
N500   N     0.41459   0.95776   0.24206   0.00000  Uiso   1.00
O501   O     0.41535   0.94345   0.19663   0.00000  Uiso   1.00
O502   O     0.37460   0.95630   0.27902   0.00000  Uiso   1.00
H503   H     0.60641   0.87206   0.31641   0.00000  Uiso   1.00
H504   H     0.35942   0.87124   0.31707   0.00000  Uiso   1.00
N505   N     0.39922   0.79194   0.16807   0.00000  Uiso   1.00
O506   O     0.43148   0.76602   0.17310   0.00000  Uiso   1.00
O507   O     0.38750   0.79024   0.12511   0.00000  Uiso   1.00
H508   H     0.61986   0.83350   0.41641   0.00000  Uiso   1.00
H509   H     0.63710   0.85801   0.49493   0.00000  Uiso   1.00
H510   H     0.38554   0.81714   0.41105   0.00000  Uiso   1.00
H511   H     0.41616   0.83484   0.05252   0.00000  Uiso   1.00
H512   H     0.36049   0.81707   0.00463   0.00000  Uiso   1.00
O513   O     0.79375   0.89345   0.25000   0.00000  Uiso   1.00
O514   O     0.87294   0.89346   0.25000   0.00000  Uiso   1.00
C515   C     0.83322   0.91261   0.24983   0.00000  Uiso   1.00
O516   O     0.77441   0.83332   0.32549   0.00000  Uiso   1.00
O517   O     0.85360   0.83333   0.32549   0.00000  Uiso   1.00
C518   C     0.80821   0.83033   0.34938   0.00000  Uiso   1.00
Cu519  Cu    0.78645   0.83333   0.25000   0.00000  Uiso   1.00
Cu520  Cu    0.88022   0.83334   0.25000   0.00000  Uiso   1.00
O521   O     0.79373   0.77321   0.25000   0.00000  Uiso   1.00
O522   O     0.87292   0.77322   0.25000   0.00000  Uiso   1.00
O523   O     0.81306   0.83334   0.17451   0.00000  Uiso   1.00
O524   O     0.89225   0.83335   0.17451   0.00000  Uiso   1.00
C525   C     0.83197   0.75427   0.25428   0.00000  Uiso   1.00
C526   C     0.85895   0.83509   0.15072   0.00000  Uiso   1.00
C527   C     0.93368   0.85040   0.01557   0.00000  Uiso   1.00
C528   C     0.87315   0.83928   0.09530   0.00000  Uiso   1.00
C529   C     0.74626   0.82047   0.43149   0.00000  Uiso   1.00
C530   C     0.73147   0.82132   0.48448   0.00000  Uiso   1.00
C531   C     0.76461   0.82923   0.01217   0.00000  Uiso   1.00
C532   C     0.81489   0.83053   0.48780   0.00000  Uiso   1.00
C533   C     0.83082   0.82610   0.43363   0.00000  Uiso   1.00
C534   C     0.84996   0.83592   0.01563   0.00000  Uiso   1.00
C535   C     0.89944   0.84108   0.48902   0.00000  Uiso   1.00
C536   C     0.91485   0.83372   0.43661   0.00000  Uiso   1.00
C537   C     0.88151   0.82296   0.41028   0.00000  Uiso   1.00
C538   C     0.83785   0.83459   0.06904   0.00000  Uiso   1.00
C539   C     0.92088   0.84886   0.06861   0.00000  Uiso   1.00
C540   C     0.79542   0.82490   0.40528   0.00000  Uiso   1.00
H541   H     0.80160   0.82782   0.09092   0.00000  Uiso   1.00
H542   H     0.89738   0.81049   0.37238   0.00000  Uiso   1.00
C543   C     0.87072   0.97871   0.26135   0.00000  Uiso   1.00
H544   H     0.90178   0.96227   0.26623   0.00000  Uiso   1.00
C545   C     0.86962   0.68780   0.26705   0.00000  Uiso   1.00
C546   C     0.82933   0.70966   0.26061   0.00000  Uiso   1.00
C547   C     0.78754   0.68789   0.25657   0.00000  Uiso   1.00
C548   C     0.78949   0.97874   0.24995   0.00000  Uiso   1.00
C549   C     0.83159   0.95733   0.25200   0.00000  Uiso   1.00
C550   C     0.96583   0.85468   0.28691   0.00000  Uiso   1.00
C551   C     0.68190   0.85432   0.28724   0.00000  Uiso   1.00
N552   N     0.71598   0.83332   0.24998   0.00000  Uiso   1.00
C553   C     0.70018   0.81237   0.21196   0.00000  Uiso   1.00
C554   C     0.98384   0.81220   0.21329   0.00000  Uiso   1.00
H555   H     0.97164   0.79525   0.18436   0.00000  Uiso   1.00
N556   N     0.95069   0.83335   0.24999   0.00000  Uiso   1.00
H557   H     0.94830   0.85454   0.08853   0.00000  Uiso   1.00
N558   N     0.90815   0.70773   0.28278   0.00000  Uiso   1.00
O559   O     0.89787   0.73277   0.32253   0.00000  Uiso   1.00
O560   O     0.95247   0.69447   0.26482   0.00000  Uiso   1.00
N561   N     0.74216   0.70822   0.26110   0.00000  Uiso   1.00
O562   O     0.71998   0.72731   0.30384   0.00000  Uiso   1.00
O563   O     0.71936   0.70204   0.22630   0.00000  Uiso   1.00
N564   N     0.74792   0.95776   0.24206   0.00000  Uiso   1.00
O565   O     0.74868   0.94345   0.19663   0.00000  Uiso   1.00
O566   O     0.70793   0.95630   0.27902   0.00000  Uiso   1.00
H567   H     0.93975   0.87206   0.31641   0.00000  Uiso   1.00
H568   H     0.69276   0.87124   0.31707   0.00000  Uiso   1.00
N569   N     0.73256   0.79194   0.16807   0.00000  Uiso   1.00
O570   O     0.76481   0.76602   0.17310   0.00000  Uiso   1.00
O571   O     0.72083   0.79024   0.12511   0.00000  Uiso   1.00
H572   H     0.95320   0.83350   0.41641   0.00000  Uiso   1.00
H573   H     0.97043   0.85801   0.49493   0.00000  Uiso   1.00
H574   H     0.71887   0.81714   0.41105   0.00000  Uiso   1.00
H575   H     0.74949   0.83484   0.05252   0.00000  Uiso   1.00
H576   H     0.69382   0.81707   0.00463   0.00000  Uiso   1.00
O577   O     0.12708   0.22678   0.75000   0.00000  Uiso   1.00
O578   O     0.20627   0.22679   0.75000   0.00000  Uiso   1.00
C579   C     0.16656   0.24595   0.74983   0.00000  Uiso   1.00
O580   O     0.10775   0.16665   0.82549   0.00000  Uiso   1.00
O581   O     0.18694   0.16666   0.82549   0.00000  Uiso   1.00
C582   C     0.14154   0.16366   0.84938   0.00000  Uiso   1.00
Cu583  Cu    0.11978   0.16666   0.75000   0.00000  Uiso   1.00
Cu584  Cu    0.21355   0.16667   0.75000   0.00000  Uiso   1.00
O585   O     0.12706   0.10654   0.75000   0.00000  Uiso   1.00
O586   O     0.20625   0.10655   0.75000   0.00000  Uiso   1.00
O587   O     0.14640   0.16667   0.67451   0.00000  Uiso   1.00
O588   O     0.22559   0.16668   0.67451   0.00000  Uiso   1.00
C589   C     0.16530   0.08760   0.75428   0.00000  Uiso   1.00
C590   C     0.19229   0.16842   0.65072   0.00000  Uiso   1.00
C591   C     0.26701   0.18373   0.51557   0.00000  Uiso   1.00
C592   C     0.20648   0.17261   0.59530   0.00000  Uiso   1.00
C593   C     0.07959   0.15380   0.93149   0.00000  Uiso   1.00
C594   C     0.06480   0.15465   0.98448   0.00000  Uiso   1.00
C595   C     0.09794   0.16256   0.51217   0.00000  Uiso   1.00
C596   C     0.14823   0.16387   0.98780   0.00000  Uiso   1.00
C597   C     0.16416   0.15943   0.93363   0.00000  Uiso   1.00
C598   C     0.18329   0.16925   0.51563   0.00000  Uiso   1.00
C599   C     0.23278   0.17441   0.98902   0.00000  Uiso   1.00
C600   C     0.24818   0.16706   0.93661   0.00000  Uiso   1.00
C601   C     0.21485   0.15630   0.91028   0.00000  Uiso   1.00
C602   C     0.17118   0.16792   0.56904   0.00000  Uiso   1.00
C603   C     0.25421   0.18220   0.56861   0.00000  Uiso   1.00
C604   C     0.12876   0.15823   0.90528   0.00000  Uiso   1.00
H605   H     0.13493   0.16116   0.59092   0.00000  Uiso   1.00
H606   H     0.23071   0.14383   0.87238   0.00000  Uiso   1.00
C607   C     0.20405   0.31205   0.76135   0.00000  Uiso   1.00
H608   H     0.23511   0.29561   0.76623   0.00000  Uiso   1.00
C609   C     0.20296   0.02114   0.76705   0.00000  Uiso   1.00
C610   C     0.16267   0.04299   0.76061   0.00000  Uiso   1.00
C611   C     0.12087   0.02122   0.75657   0.00000  Uiso   1.00
C612   C     0.12283   0.31207   0.74995   0.00000  Uiso   1.00
C613   C     0.16493   0.29066   0.75200   0.00000  Uiso   1.00
C614   C     0.29917   0.18801   0.78691   0.00000  Uiso   1.00
C615   C     0.01523   0.18765   0.78724   0.00000  Uiso   1.00
N616   N     0.04931   0.16666   0.74998   0.00000  Uiso   1.00
C617   C     0.03351   0.14571   0.71196   0.00000  Uiso   1.00
C618   C     0.31717   0.14553   0.71329   0.00000  Uiso   1.00
H619   H     0.30497   0.12859   0.68436   0.00000  Uiso   1.00
N620   N     0.28402   0.16669   0.74999   0.00000  Uiso   1.00
H621   H     0.28163   0.18788   0.58853   0.00000  Uiso   1.00
N622   N     0.24148   0.04106   0.78278   0.00000  Uiso   1.00
O623   O     0.23120   0.06610   0.82253   0.00000  Uiso   1.00
O624   O     0.28581   0.02780   0.76482   0.00000  Uiso   1.00
N625   N     0.07550   0.04155   0.76110   0.00000  Uiso   1.00
O626   O     0.05331   0.06064   0.80384   0.00000  Uiso   1.00
O627   O     0.05270   0.03538   0.72630   0.00000  Uiso   1.00
N628   N     0.08125   0.29110   0.74206   0.00000  Uiso   1.00
O629   O     0.08201   0.27679   0.69663   0.00000  Uiso   1.00
O630   O     0.04127   0.28963   0.77902   0.00000  Uiso   1.00
H631   H     0.27308   0.20539   0.81641   0.00000  Uiso   1.00
H632   H     0.02609   0.20457   0.81707   0.00000  Uiso   1.00
N633   N     0.06589   0.12527   0.66807   0.00000  Uiso   1.00
O634   O     0.09814   0.09935   0.67310   0.00000  Uiso   1.00
O635   O     0.05416   0.12358   0.62511   0.00000  Uiso   1.00
H636   H     0.28653   0.16684   0.91641   0.00000  Uiso   1.00
H637   H     0.30377   0.19134   0.99493   0.00000  Uiso   1.00
H638   H     0.05221   0.15047   0.91105   0.00000  Uiso   1.00
H639   H     0.08282   0.16818   0.55252   0.00000  Uiso   1.00
H640   H     0.02715   0.15041   0.50463   0.00000  Uiso   1.00
O641   O     0.46042   0.22678   0.75000   0.00000  Uiso   1.00
O642   O     0.53961   0.22679   0.75000   0.00000  Uiso   1.00
C643   C     0.49989   0.24595   0.74983   0.00000  Uiso   1.00
O644   O     0.44108   0.16665   0.82549   0.00000  Uiso   1.00
O645   O     0.52027   0.16666   0.82549   0.00000  Uiso   1.00
C646   C     0.47487   0.16366   0.84938   0.00000  Uiso   1.00
Cu647  Cu    0.45311   0.16666   0.75000   0.00000  Uiso   1.00
Cu648  Cu    0.54689   0.16667   0.75000   0.00000  Uiso   1.00
O649   O     0.46039   0.10654   0.75000   0.00000  Uiso   1.00
O650   O     0.53958   0.10655   0.75000   0.00000  Uiso   1.00
O651   O     0.47973   0.16667   0.67451   0.00000  Uiso   1.00
O652   O     0.55892   0.16668   0.67451   0.00000  Uiso   1.00
C653   C     0.49863   0.08760   0.75428   0.00000  Uiso   1.00
C654   C     0.52562   0.16842   0.65072   0.00000  Uiso   1.00
C655   C     0.60035   0.18373   0.51557   0.00000  Uiso   1.00
C656   C     0.53982   0.17261   0.59530   0.00000  Uiso   1.00
C657   C     0.41292   0.15380   0.93149   0.00000  Uiso   1.00
C658   C     0.39814   0.15465   0.98448   0.00000  Uiso   1.00
C659   C     0.43127   0.16256   0.51217   0.00000  Uiso   1.00
C660   C     0.48156   0.16387   0.98780   0.00000  Uiso   1.00
C661   C     0.49749   0.15943   0.93363   0.00000  Uiso   1.00
C662   C     0.51663   0.16925   0.51563   0.00000  Uiso   1.00
C663   C     0.56611   0.17441   0.98902   0.00000  Uiso   1.00
C664   C     0.58151   0.16706   0.93661   0.00000  Uiso   1.00
C665   C     0.54818   0.15630   0.91028   0.00000  Uiso   1.00
C666   C     0.50452   0.16792   0.56904   0.00000  Uiso   1.00
C667   C     0.58755   0.18220   0.56861   0.00000  Uiso   1.00
C668   C     0.46209   0.15823   0.90528   0.00000  Uiso   1.00
H669   H     0.46827   0.16116   0.59092   0.00000  Uiso   1.00
H670   H     0.56405   0.14383   0.87238   0.00000  Uiso   1.00
C671   C     0.53738   0.31205   0.76135   0.00000  Uiso   1.00
H672   H     0.56844   0.29561   0.76623   0.00000  Uiso   1.00
C673   C     0.53629   0.02114   0.76705   0.00000  Uiso   1.00
C674   C     0.49600   0.04299   0.76061   0.00000  Uiso   1.00
C675   C     0.45421   0.02122   0.75657   0.00000  Uiso   1.00
C676   C     0.45616   0.31207   0.74995   0.00000  Uiso   1.00
C677   C     0.49826   0.29066   0.75200   0.00000  Uiso   1.00
C678   C     0.63250   0.18801   0.78691   0.00000  Uiso   1.00
C679   C     0.34857   0.18765   0.78724   0.00000  Uiso   1.00
N680   N     0.38265   0.16666   0.74998   0.00000  Uiso   1.00
C681   C     0.36685   0.14571   0.71196   0.00000  Uiso   1.00
C682   C     0.65051   0.14553   0.71329   0.00000  Uiso   1.00
H683   H     0.63830   0.12859   0.68436   0.00000  Uiso   1.00
N684   N     0.61735   0.16669   0.74999   0.00000  Uiso   1.00
H685   H     0.61497   0.18788   0.58853   0.00000  Uiso   1.00
N686   N     0.57482   0.04106   0.78278   0.00000  Uiso   1.00
O687   O     0.56453   0.06610   0.82253   0.00000  Uiso   1.00
O688   O     0.61914   0.02780   0.76482   0.00000  Uiso   1.00
N689   N     0.40883   0.04155   0.76110   0.00000  Uiso   1.00
O690   O     0.38665   0.06064   0.80384   0.00000  Uiso   1.00
O691   O     0.38603   0.03538   0.72630   0.00000  Uiso   1.00
N692   N     0.41459   0.29110   0.74206   0.00000  Uiso   1.00
O693   O     0.41535   0.27679   0.69663   0.00000  Uiso   1.00
O694   O     0.37460   0.28963   0.77902   0.00000  Uiso   1.00
H695   H     0.60641   0.20539   0.81641   0.00000  Uiso   1.00
H696   H     0.35942   0.20457   0.81707   0.00000  Uiso   1.00
N697   N     0.39922   0.12527   0.66807   0.00000  Uiso   1.00
O698   O     0.43148   0.09935   0.67310   0.00000  Uiso   1.00
O699   O     0.38750   0.12358   0.62511   0.00000  Uiso   1.00
H700   H     0.61986   0.16684   0.91641   0.00000  Uiso   1.00
H701   H     0.63710   0.19134   0.99493   0.00000  Uiso   1.00
H702   H     0.38554   0.15047   0.91105   0.00000  Uiso   1.00
H703   H     0.41616   0.16818   0.55252   0.00000  Uiso   1.00
H704   H     0.36049   0.15041   0.50463   0.00000  Uiso   1.00
O705   O     0.79375   0.22678   0.75000   0.00000  Uiso   1.00
O706   O     0.87294   0.22679   0.75000   0.00000  Uiso   1.00
C707   C     0.83322   0.24595   0.74983   0.00000  Uiso   1.00
O708   O     0.77441   0.16665   0.82549   0.00000  Uiso   1.00
O709   O     0.85360   0.16666   0.82549   0.00000  Uiso   1.00
C710   C     0.80821   0.16366   0.84938   0.00000  Uiso   1.00
Cu711  Cu    0.78645   0.16666   0.75000   0.00000  Uiso   1.00
Cu712  Cu    0.88022   0.16667   0.75000   0.00000  Uiso   1.00
O713   O     0.79373   0.10654   0.75000   0.00000  Uiso   1.00
O714   O     0.87292   0.10655   0.75000   0.00000  Uiso   1.00
O715   O     0.81306   0.16667   0.67451   0.00000  Uiso   1.00
O716   O     0.89225   0.16668   0.67451   0.00000  Uiso   1.00
C717   C     0.83197   0.08760   0.75428   0.00000  Uiso   1.00
C718   C     0.85895   0.16842   0.65072   0.00000  Uiso   1.00
C719   C     0.93368   0.18373   0.51557   0.00000  Uiso   1.00
C720   C     0.87315   0.17261   0.59530   0.00000  Uiso   1.00
C721   C     0.74626   0.15380   0.93149   0.00000  Uiso   1.00
C722   C     0.73147   0.15465   0.98448   0.00000  Uiso   1.00
C723   C     0.76461   0.16256   0.51217   0.00000  Uiso   1.00
C724   C     0.81489   0.16387   0.98780   0.00000  Uiso   1.00
C725   C     0.83082   0.15943   0.93363   0.00000  Uiso   1.00
C726   C     0.84996   0.16925   0.51563   0.00000  Uiso   1.00
C727   C     0.89944   0.17441   0.98902   0.00000  Uiso   1.00
C728   C     0.91485   0.16706   0.93661   0.00000  Uiso   1.00
C729   C     0.88151   0.15630   0.91028   0.00000  Uiso   1.00
C730   C     0.83785   0.16792   0.56904   0.00000  Uiso   1.00
C731   C     0.92088   0.18220   0.56861   0.00000  Uiso   1.00
C732   C     0.79542   0.15823   0.90528   0.00000  Uiso   1.00
H733   H     0.80160   0.16116   0.59092   0.00000  Uiso   1.00
H734   H     0.89738   0.14383   0.87238   0.00000  Uiso   1.00
C735   C     0.87072   0.31205   0.76135   0.00000  Uiso   1.00
H736   H     0.90178   0.29561   0.76623   0.00000  Uiso   1.00
C737   C     0.86962   0.02114   0.76705   0.00000  Uiso   1.00
C738   C     0.82933   0.04299   0.76061   0.00000  Uiso   1.00
C739   C     0.78754   0.02122   0.75657   0.00000  Uiso   1.00
C740   C     0.78949   0.31207   0.74995   0.00000  Uiso   1.00
C741   C     0.83159   0.29066   0.75200   0.00000  Uiso   1.00
C742   C     0.96583   0.18801   0.78691   0.00000  Uiso   1.00
C743   C     0.68190   0.18765   0.78724   0.00000  Uiso   1.00
N744   N     0.71598   0.16666   0.74998   0.00000  Uiso   1.00
C745   C     0.70018   0.14571   0.71196   0.00000  Uiso   1.00
C746   C     0.98384   0.14553   0.71329   0.00000  Uiso   1.00
H747   H     0.97164   0.12859   0.68436   0.00000  Uiso   1.00
N748   N     0.95069   0.16669   0.74999   0.00000  Uiso   1.00
H749   H     0.94830   0.18788   0.58853   0.00000  Uiso   1.00
N750   N     0.90815   0.04106   0.78278   0.00000  Uiso   1.00
O751   O     0.89787   0.06610   0.82253   0.00000  Uiso   1.00
O752   O     0.95247   0.02780   0.76482   0.00000  Uiso   1.00
N753   N     0.74216   0.04155   0.76110   0.00000  Uiso   1.00
O754   O     0.71998   0.06064   0.80384   0.00000  Uiso   1.00
O755   O     0.71936   0.03538   0.72630   0.00000  Uiso   1.00
N756   N     0.74792   0.29110   0.74206   0.00000  Uiso   1.00
O757   O     0.74868   0.27679   0.69663   0.00000  Uiso   1.00
O758   O     0.70793   0.28963   0.77902   0.00000  Uiso   1.00
H759   H     0.93975   0.20539   0.81641   0.00000  Uiso   1.00
H760   H     0.69276   0.20457   0.81707   0.00000  Uiso   1.00
N761   N     0.73256   0.12527   0.66807   0.00000  Uiso   1.00
O762   O     0.76481   0.09935   0.67310   0.00000  Uiso   1.00
O763   O     0.72083   0.12358   0.62511   0.00000  Uiso   1.00
H764   H     0.95320   0.16684   0.91641   0.00000  Uiso   1.00
H765   H     0.97043   0.19134   0.99493   0.00000  Uiso   1.00
H766   H     0.71887   0.15047   0.91105   0.00000  Uiso   1.00
H767   H     0.74949   0.16818   0.55252   0.00000  Uiso   1.00
H768   H     0.69382   0.15041   0.50463   0.00000  Uiso   1.00
O769   O     0.12708   0.56011   0.75000   0.00000  Uiso   1.00
O770   O     0.20627   0.56012   0.75000   0.00000  Uiso   1.00
C771   C     0.16656   0.57928   0.74983   0.00000  Uiso   1.00
O772   O     0.10775   0.49998   0.82549   0.00000  Uiso   1.00
O773   O     0.18694   0.49999   0.82549   0.00000  Uiso   1.00
C774   C     0.14154   0.49699   0.84938   0.00000  Uiso   1.00
Cu775  Cu    0.11978   0.49999   0.75000   0.00000  Uiso   1.00
Cu776  Cu    0.21355   0.50001   0.75000   0.00000  Uiso   1.00
O777   O     0.12706   0.43988   0.75000   0.00000  Uiso   1.00
O778   O     0.20625   0.43989   0.75000   0.00000  Uiso   1.00
O779   O     0.14640   0.50001   0.67451   0.00000  Uiso   1.00
O780   O     0.22559   0.50002   0.67451   0.00000  Uiso   1.00
C781   C     0.16530   0.42093   0.75428   0.00000  Uiso   1.00
C782   C     0.19229   0.50176   0.65072   0.00000  Uiso   1.00
C783   C     0.26701   0.51706   0.51557   0.00000  Uiso   1.00
C784   C     0.20648   0.50595   0.59530   0.00000  Uiso   1.00
C785   C     0.07959   0.48713   0.93149   0.00000  Uiso   1.00
C786   C     0.06480   0.48799   0.98448   0.00000  Uiso   1.00
C787   C     0.09794   0.49589   0.51217   0.00000  Uiso   1.00
C788   C     0.14823   0.49720   0.98780   0.00000  Uiso   1.00
C789   C     0.16416   0.49277   0.93363   0.00000  Uiso   1.00
C790   C     0.18329   0.50259   0.51563   0.00000  Uiso   1.00
C791   C     0.23278   0.50775   0.98902   0.00000  Uiso   1.00
C792   C     0.24818   0.50039   0.93661   0.00000  Uiso   1.00
C793   C     0.21485   0.48963   0.91028   0.00000  Uiso   1.00
C794   C     0.17118   0.50125   0.56904   0.00000  Uiso   1.00
C795   C     0.25421   0.51553   0.56861   0.00000  Uiso   1.00
C796   C     0.12876   0.49156   0.90528   0.00000  Uiso   1.00
H797   H     0.13493   0.49449   0.59092   0.00000  Uiso   1.00
H798   H     0.23071   0.47716   0.87238   0.00000  Uiso   1.00
C799   C     0.20405   0.64538   0.76135   0.00000  Uiso   1.00
H800   H     0.23511   0.62894   0.76623   0.00000  Uiso   1.00
C801   C     0.20296   0.35447   0.76705   0.00000  Uiso   1.00
C802   C     0.16267   0.37633   0.76061   0.00000  Uiso   1.00
C803   C     0.12087   0.35456   0.75657   0.00000  Uiso   1.00
C804   C     0.12283   0.64541   0.74995   0.00000  Uiso   1.00
C805   C     0.16493   0.62400   0.75200   0.00000  Uiso   1.00
C806   C     0.29917   0.52135   0.78691   0.00000  Uiso   1.00
C807   C     0.01523   0.52098   0.78724   0.00000  Uiso   1.00
N808   N     0.04931   0.49999   0.74998   0.00000  Uiso   1.00
C809   C     0.03351   0.47904   0.71196   0.00000  Uiso   1.00
C810   C     0.31717   0.47887   0.71329   0.00000  Uiso   1.00
H811   H     0.30497   0.46192   0.68436   0.00000  Uiso   1.00
N812   N     0.28402   0.50002   0.74999   0.00000  Uiso   1.00
H813   H     0.28163   0.52121   0.58853   0.00000  Uiso   1.00
N814   N     0.24148   0.37439   0.78278   0.00000  Uiso   1.00
O815   O     0.23120   0.39943   0.82253   0.00000  Uiso   1.00
O816   O     0.28581   0.36113   0.76482   0.00000  Uiso   1.00
N817   N     0.07550   0.37489   0.76110   0.00000  Uiso   1.00
O818   O     0.05331   0.39398   0.80384   0.00000  Uiso   1.00
O819   O     0.05270   0.36871   0.72630   0.00000  Uiso   1.00
N820   N     0.08125   0.62443   0.74206   0.00000  Uiso   1.00
O821   O     0.08201   0.61012   0.69663   0.00000  Uiso   1.00
O822   O     0.04127   0.62297   0.77902   0.00000  Uiso   1.00
H823   H     0.27308   0.53872   0.81641   0.00000  Uiso   1.00
H824   H     0.02609   0.53791   0.81707   0.00000  Uiso   1.00
N825   N     0.06589   0.45860   0.66807   0.00000  Uiso   1.00
O826   O     0.09814   0.43268   0.67310   0.00000  Uiso   1.00
O827   O     0.05416   0.45691   0.62511   0.00000  Uiso   1.00
H828   H     0.28653   0.50017   0.91641   0.00000  Uiso   1.00
H829   H     0.30377   0.52467   0.99493   0.00000  Uiso   1.00
H830   H     0.05221   0.48381   0.91105   0.00000  Uiso   1.00
H831   H     0.08282   0.50151   0.55252   0.00000  Uiso   1.00
H832   H     0.02715   0.48374   0.50463   0.00000  Uiso   1.00
O833   O     0.46042   0.56011   0.75000   0.00000  Uiso   1.00
O834   O     0.53961   0.56012   0.75000   0.00000  Uiso   1.00
C835   C     0.49989   0.57928   0.74983   0.00000  Uiso   1.00
O836   O     0.44108   0.49998   0.82549   0.00000  Uiso   1.00
O837   O     0.52027   0.49999   0.82549   0.00000  Uiso   1.00
C838   C     0.47487   0.49699   0.84938   0.00000  Uiso   1.00
Cu839  Cu    0.45311   0.49999   0.75000   0.00000  Uiso   1.00
Cu840  Cu    0.54689   0.50001   0.75000   0.00000  Uiso   1.00
O841   O     0.46039   0.43988   0.75000   0.00000  Uiso   1.00
O842   O     0.53958   0.43989   0.75000   0.00000  Uiso   1.00
O843   O     0.47973   0.50001   0.67451   0.00000  Uiso   1.00
O844   O     0.55892   0.50002   0.67451   0.00000  Uiso   1.00
C845   C     0.49863   0.42093   0.75428   0.00000  Uiso   1.00
C846   C     0.52562   0.50176   0.65072   0.00000  Uiso   1.00
C847   C     0.60035   0.51706   0.51557   0.00000  Uiso   1.00
C848   C     0.53982   0.50595   0.59530   0.00000  Uiso   1.00
C849   C     0.41292   0.48713   0.93149   0.00000  Uiso   1.00
C850   C     0.39814   0.48799   0.98448   0.00000  Uiso   1.00
C851   C     0.43127   0.49589   0.51217   0.00000  Uiso   1.00
C852   C     0.48156   0.49720   0.98780   0.00000  Uiso   1.00
C853   C     0.49749   0.49277   0.93363   0.00000  Uiso   1.00
C854   C     0.51663   0.50259   0.51563   0.00000  Uiso   1.00
C855   C     0.56611   0.50775   0.98902   0.00000  Uiso   1.00
C856   C     0.58151   0.50039   0.93661   0.00000  Uiso   1.00
C857   C     0.54818   0.48963   0.91028   0.00000  Uiso   1.00
C858   C     0.50452   0.50125   0.56904   0.00000  Uiso   1.00
C859   C     0.58755   0.51553   0.56861   0.00000  Uiso   1.00
C860   C     0.46209   0.49156   0.90528   0.00000  Uiso   1.00
H861   H     0.46827   0.49449   0.59092   0.00000  Uiso   1.00
H862   H     0.56405   0.47716   0.87238   0.00000  Uiso   1.00
C863   C     0.53738   0.64538   0.76135   0.00000  Uiso   1.00
H864   H     0.56844   0.62894   0.76623   0.00000  Uiso   1.00
C865   C     0.53629   0.35447   0.76705   0.00000  Uiso   1.00
C866   C     0.49600   0.37633   0.76061   0.00000  Uiso   1.00
C867   C     0.45421   0.35456   0.75657   0.00000  Uiso   1.00
C868   C     0.45616   0.64541   0.74995   0.00000  Uiso   1.00
C869   C     0.49826   0.62400   0.75200   0.00000  Uiso   1.00
C870   C     0.63250   0.52135   0.78691   0.00000  Uiso   1.00
C871   C     0.34857   0.52098   0.78724   0.00000  Uiso   1.00
N872   N     0.38265   0.49999   0.74998   0.00000  Uiso   1.00
C873   C     0.36685   0.47904   0.71196   0.00000  Uiso   1.00
C874   C     0.65051   0.47887   0.71329   0.00000  Uiso   1.00
H875   H     0.63830   0.46192   0.68436   0.00000  Uiso   1.00
N876   N     0.61735   0.50002   0.74999   0.00000  Uiso   1.00
H877   H     0.61497   0.52121   0.58853   0.00000  Uiso   1.00
N878   N     0.57482   0.37439   0.78278   0.00000  Uiso   1.00
O879   O     0.56453   0.39943   0.82253   0.00000  Uiso   1.00
O880   O     0.61914   0.36113   0.76482   0.00000  Uiso   1.00
N881   N     0.40883   0.37489   0.76110   0.00000  Uiso   1.00
O882   O     0.38665   0.39398   0.80384   0.00000  Uiso   1.00
O883   O     0.38603   0.36871   0.72630   0.00000  Uiso   1.00
N884   N     0.41459   0.62443   0.74206   0.00000  Uiso   1.00
O885   O     0.41535   0.61012   0.69663   0.00000  Uiso   1.00
O886   O     0.37460   0.62297   0.77902   0.00000  Uiso   1.00
H887   H     0.60641   0.53872   0.81641   0.00000  Uiso   1.00
H888   H     0.35942   0.53791   0.81707   0.00000  Uiso   1.00
N889   N     0.39922   0.45860   0.66807   0.00000  Uiso   1.00
O890   O     0.43148   0.43268   0.67310   0.00000  Uiso   1.00
O891   O     0.38750   0.45691   0.62511   0.00000  Uiso   1.00
H892   H     0.61986   0.50017   0.91641   0.00000  Uiso   1.00
H893   H     0.63710   0.52467   0.99493   0.00000  Uiso   1.00
H894   H     0.38554   0.48381   0.91105   0.00000  Uiso   1.00
H895   H     0.41616   0.50151   0.55252   0.00000  Uiso   1.00
H896   H     0.36049   0.48374   0.50463   0.00000  Uiso   1.00
O897   O     0.79375   0.56011   0.75000   0.00000  Uiso   1.00
O898   O     0.87294   0.56012   0.75000   0.00000  Uiso   1.00
C899   C     0.83322   0.57928   0.74983   0.00000  Uiso   1.00
O900   O     0.77441   0.49998   0.82549   0.00000  Uiso   1.00
O901   O     0.85360   0.49999   0.82549   0.00000  Uiso   1.00
C902   C     0.80821   0.49699   0.84938   0.00000  Uiso   1.00
Cu903  Cu    0.78645   0.49999   0.75000   0.00000  Uiso   1.00
Cu904  Cu    0.88022   0.50001   0.75000   0.00000  Uiso   1.00
O905   O     0.79373   0.43988   0.75000   0.00000  Uiso   1.00
O906   O     0.87292   0.43989   0.75000   0.00000  Uiso   1.00
O907   O     0.81306   0.50001   0.67451   0.00000  Uiso   1.00
O908   O     0.89225   0.50002   0.67451   0.00000  Uiso   1.00
C909   C     0.83197   0.42093   0.75428   0.00000  Uiso   1.00
C910   C     0.85895   0.50176   0.65072   0.00000  Uiso   1.00
C911   C     0.93368   0.51706   0.51557   0.00000  Uiso   1.00
C912   C     0.87315   0.50595   0.59530   0.00000  Uiso   1.00
C913   C     0.74626   0.48713   0.93149   0.00000  Uiso   1.00
C914   C     0.73147   0.48799   0.98448   0.00000  Uiso   1.00
C915   C     0.76461   0.49589   0.51217   0.00000  Uiso   1.00
C916   C     0.81489   0.49720   0.98780   0.00000  Uiso   1.00
C917   C     0.83082   0.49277   0.93363   0.00000  Uiso   1.00
C918   C     0.84996   0.50259   0.51563   0.00000  Uiso   1.00
C919   C     0.89944   0.50775   0.98902   0.00000  Uiso   1.00
C920   C     0.91485   0.50039   0.93661   0.00000  Uiso   1.00
C921   C     0.88151   0.48963   0.91028   0.00000  Uiso   1.00
C922   C     0.83785   0.50125   0.56904   0.00000  Uiso   1.00
C923   C     0.92088   0.51553   0.56861   0.00000  Uiso   1.00
C924   C     0.79542   0.49156   0.90528   0.00000  Uiso   1.00
H925   H     0.80160   0.49449   0.59092   0.00000  Uiso   1.00
H926   H     0.89738   0.47716   0.87238   0.00000  Uiso   1.00
C927   C     0.87072   0.64538   0.76135   0.00000  Uiso   1.00
H928   H     0.90178   0.62894   0.76623   0.00000  Uiso   1.00
C929   C     0.86962   0.35447   0.76705   0.00000  Uiso   1.00
C930   C     0.82933   0.37633   0.76061   0.00000  Uiso   1.00
C931   C     0.78754   0.35456   0.75657   0.00000  Uiso   1.00
C932   C     0.78949   0.64541   0.74995   0.00000  Uiso   1.00
C933   C     0.83159   0.62400   0.75200   0.00000  Uiso   1.00
C934   C     0.96583   0.52135   0.78691   0.00000  Uiso   1.00
C935   C     0.68190   0.52098   0.78724   0.00000  Uiso   1.00
N936   N     0.71598   0.49999   0.74998   0.00000  Uiso   1.00
C937   C     0.70018   0.47904   0.71196   0.00000  Uiso   1.00
C938   C     0.98384   0.47887   0.71329   0.00000  Uiso   1.00
H939   H     0.97164   0.46192   0.68436   0.00000  Uiso   1.00
N940   N     0.95069   0.50002   0.74999   0.00000  Uiso   1.00
H941   H     0.94830   0.52121   0.58853   0.00000  Uiso   1.00
N942   N     0.90815   0.37439   0.78278   0.00000  Uiso   1.00
O943   O     0.89787   0.39943   0.82253   0.00000  Uiso   1.00
O944   O     0.95247   0.36113   0.76482   0.00000  Uiso   1.00
N945   N     0.74216   0.37489   0.76110   0.00000  Uiso   1.00
O946   O     0.71998   0.39398   0.80384   0.00000  Uiso   1.00
O947   O     0.71936   0.36871   0.72630   0.00000  Uiso   1.00
N948   N     0.74792   0.62443   0.74206   0.00000  Uiso   1.00
O949   O     0.74868   0.61012   0.69663   0.00000  Uiso   1.00
O950   O     0.70793   0.62297   0.77902   0.00000  Uiso   1.00
H951   H     0.93975   0.53872   0.81641   0.00000  Uiso   1.00
H952   H     0.69276   0.53791   0.81707   0.00000  Uiso   1.00
N953   N     0.73256   0.45860   0.66807   0.00000  Uiso   1.00
O954   O     0.76481   0.43268   0.67310   0.00000  Uiso   1.00
O955   O     0.72083   0.45691   0.62511   0.00000  Uiso   1.00
H956   H     0.95320   0.50017   0.91641   0.00000  Uiso   1.00
H957   H     0.97043   0.52467   0.99493   0.00000  Uiso   1.00
H958   H     0.71887   0.48381   0.91105   0.00000  Uiso   1.00
H959   H     0.74949   0.50151   0.55252   0.00000  Uiso   1.00
H960   H     0.69382   0.48374   0.50463   0.00000  Uiso   1.00
O961   O     0.12708   0.89345   0.75000   0.00000  Uiso   1.00
O962   O     0.20627   0.89346   0.75000   0.00000  Uiso   1.00
C963   C     0.16656   0.91261   0.74983   0.00000  Uiso   1.00
O964   O     0.10775   0.83332   0.82549   0.00000  Uiso   1.00
O965   O     0.18694   0.83333   0.82549   0.00000  Uiso   1.00
C966   C     0.14154   0.83033   0.84938   0.00000  Uiso   1.00
Cu967  Cu    0.11978   0.83333   0.75000   0.00000  Uiso   1.00
Cu968  Cu    0.21355   0.83334   0.75000   0.00000  Uiso   1.00
O969   O     0.12706   0.77321   0.75000   0.00000  Uiso   1.00
O970   O     0.20625   0.77322   0.75000   0.00000  Uiso   1.00
O971   O     0.14640   0.83334   0.67451   0.00000  Uiso   1.00
O972   O     0.22559   0.83335   0.67451   0.00000  Uiso   1.00
C973   C     0.16530   0.75427   0.75428   0.00000  Uiso   1.00
C974   C     0.19229   0.83509   0.65072   0.00000  Uiso   1.00
C975   C     0.26701   0.85040   0.51557   0.00000  Uiso   1.00
C976   C     0.20648   0.83928   0.59530   0.00000  Uiso   1.00
C977   C     0.07959   0.82047   0.93149   0.00000  Uiso   1.00
C978   C     0.06480   0.82132   0.98448   0.00000  Uiso   1.00
C979   C     0.09794   0.82923   0.51217   0.00000  Uiso   1.00
C980   C     0.14823   0.83053   0.98780   0.00000  Uiso   1.00
C981   C     0.16416   0.82610   0.93363   0.00000  Uiso   1.00
C982   C     0.18329   0.83592   0.51563   0.00000  Uiso   1.00
C983   C     0.23278   0.84108   0.98902   0.00000  Uiso   1.00
C984   C     0.24818   0.83372   0.93661   0.00000  Uiso   1.00
C985   C     0.21485   0.82296   0.91028   0.00000  Uiso   1.00
C986   C     0.17118   0.83459   0.56904   0.00000  Uiso   1.00
C987   C     0.25421   0.84886   0.56861   0.00000  Uiso   1.00
C988   C     0.12876   0.82490   0.90528   0.00000  Uiso   1.00
H989   H     0.13493   0.82782   0.59092   0.00000  Uiso   1.00
H990   H     0.23071   0.81049   0.87238   0.00000  Uiso   1.00
C991   C     0.20405   0.97871   0.76135   0.00000  Uiso   1.00
H992   H     0.23511   0.96227   0.76623   0.00000  Uiso   1.00
C993   C     0.20296   0.68780   0.76705   0.00000  Uiso   1.00
C994   C     0.16267   0.70966   0.76061   0.00000  Uiso   1.00
C995   C     0.12087   0.68789   0.75657   0.00000  Uiso   1.00
C996   C     0.12283   0.97874   0.74995   0.00000  Uiso   1.00
C997   C     0.16493   0.95733   0.75200   0.00000  Uiso   1.00
C998   C     0.29917   0.85468   0.78691   0.00000  Uiso   1.00
C999   C     0.01523   0.85432   0.78724   0.00000  Uiso   1.00
N1000  N     0.04931   0.83332   0.74998   0.00000  Uiso   1.00
C1001  C     0.03351   0.81237   0.71196   0.00000  Uiso   1.00
C1002  C     0.31717   0.81220   0.71329   0.00000  Uiso   1.00
H1003  H     0.30497   0.79525   0.68436   0.00000  Uiso   1.00
N1004  N     0.28402   0.83335   0.74999   0.00000  Uiso   1.00
H1005  H     0.28163   0.85454   0.58853   0.00000  Uiso   1.00
N1006  N     0.24148   0.70773   0.78278   0.00000  Uiso   1.00
O1007  O     0.23120   0.73277   0.82253   0.00000  Uiso   1.00
O1008  O     0.28581   0.69447   0.76482   0.00000  Uiso   1.00
N1009  N     0.07550   0.70822   0.76110   0.00000  Uiso   1.00
O1010  O     0.05331   0.72731   0.80384   0.00000  Uiso   1.00
O1011  O     0.05270   0.70204   0.72630   0.00000  Uiso   1.00
N1012  N     0.08125   0.95776   0.74206   0.00000  Uiso   1.00
O1013  O     0.08201   0.94345   0.69663   0.00000  Uiso   1.00
O1014  O     0.04127   0.95630   0.77902   0.00000  Uiso   1.00
H1015  H     0.27308   0.87206   0.81641   0.00000  Uiso   1.00
H1016  H     0.02609   0.87124   0.81707   0.00000  Uiso   1.00
N1017  N     0.06589   0.79194   0.66807   0.00000  Uiso   1.00
O1018  O     0.09814   0.76602   0.67310   0.00000  Uiso   1.00
O1019  O     0.05416   0.79024   0.62511   0.00000  Uiso   1.00
H1020  H     0.28653   0.83350   0.91641   0.00000  Uiso   1.00
H1021  H     0.30377   0.85801   0.99493   0.00000  Uiso   1.00
H1022  H     0.05221   0.81714   0.91105   0.00000  Uiso   1.00
H1023  H     0.08282   0.83484   0.55252   0.00000  Uiso   1.00
H1024  H     0.02715   0.81707   0.50463   0.00000  Uiso   1.00
O1025  O     0.46042   0.89345   0.75000   0.00000  Uiso   1.00
O1026  O     0.53961   0.89346   0.75000   0.00000  Uiso   1.00
C1027  C     0.49989   0.91261   0.74983   0.00000  Uiso   1.00
O1028  O     0.44108   0.83332   0.82549   0.00000  Uiso   1.00
O1029  O     0.52027   0.83333   0.82549   0.00000  Uiso   1.00
C1030  C     0.47487   0.83033   0.84938   0.00000  Uiso   1.00
Cu1031 Cu    0.45311   0.83333   0.75000   0.00000  Uiso   1.00
Cu1032 Cu    0.54689   0.83334   0.75000   0.00000  Uiso   1.00
O1033  O     0.46039   0.77321   0.75000   0.00000  Uiso   1.00
O1034  O     0.53958   0.77322   0.75000   0.00000  Uiso   1.00
O1035  O     0.47973   0.83334   0.67451   0.00000  Uiso   1.00
O1036  O     0.55892   0.83335   0.67451   0.00000  Uiso   1.00
C1037  C     0.49863   0.75427   0.75428   0.00000  Uiso   1.00
C1038  C     0.52562   0.83509   0.65072   0.00000  Uiso   1.00
C1039  C     0.60035   0.85040   0.51557   0.00000  Uiso   1.00
C1040  C     0.53982   0.83928   0.59530   0.00000  Uiso   1.00
C1041  C     0.41292   0.82047   0.93149   0.00000  Uiso   1.00
C1042  C     0.39814   0.82132   0.98448   0.00000  Uiso   1.00
C1043  C     0.43127   0.82923   0.51217   0.00000  Uiso   1.00
C1044  C     0.48156   0.83053   0.98780   0.00000  Uiso   1.00
C1045  C     0.49749   0.82610   0.93363   0.00000  Uiso   1.00
C1046  C     0.51663   0.83592   0.51563   0.00000  Uiso   1.00
C1047  C     0.56611   0.84108   0.98902   0.00000  Uiso   1.00
C1048  C     0.58151   0.83372   0.93661   0.00000  Uiso   1.00
C1049  C     0.54818   0.82296   0.91028   0.00000  Uiso   1.00
C1050  C     0.50452   0.83459   0.56904   0.00000  Uiso   1.00
C1051  C     0.58755   0.84886   0.56861   0.00000  Uiso   1.00
C1052  C     0.46209   0.82490   0.90528   0.00000  Uiso   1.00
H1053  H     0.46827   0.82782   0.59092   0.00000  Uiso   1.00
H1054  H     0.56405   0.81049   0.87238   0.00000  Uiso   1.00
C1055  C     0.53738   0.97871   0.76135   0.00000  Uiso   1.00
H1056  H     0.56844   0.96227   0.76623   0.00000  Uiso   1.00
C1057  C     0.53629   0.68780   0.76705   0.00000  Uiso   1.00
C1058  C     0.49600   0.70966   0.76061   0.00000  Uiso   1.00
C1059  C     0.45421   0.68789   0.75657   0.00000  Uiso   1.00
C1060  C     0.45616   0.97874   0.74995   0.00000  Uiso   1.00
C1061  C     0.49826   0.95733   0.75200   0.00000  Uiso   1.00
C1062  C     0.63250   0.85468   0.78691   0.00000  Uiso   1.00
C1063  C     0.34857   0.85432   0.78724   0.00000  Uiso   1.00
N1064  N     0.38265   0.83332   0.74998   0.00000  Uiso   1.00
C1065  C     0.36685   0.81237   0.71196   0.00000  Uiso   1.00
C1066  C     0.65051   0.81220   0.71329   0.00000  Uiso   1.00
H1067  H     0.63830   0.79525   0.68436   0.00000  Uiso   1.00
N1068  N     0.61735   0.83335   0.74999   0.00000  Uiso   1.00
H1069  H     0.61497   0.85454   0.58853   0.00000  Uiso   1.00
N1070  N     0.57482   0.70773   0.78278   0.00000  Uiso   1.00
O1071  O     0.56453   0.73277   0.82253   0.00000  Uiso   1.00
O1072  O     0.61914   0.69447   0.76482   0.00000  Uiso   1.00
N1073  N     0.40883   0.70822   0.76110   0.00000  Uiso   1.00
O1074  O     0.38665   0.72731   0.80384   0.00000  Uiso   1.00
O1075  O     0.38603   0.70204   0.72630   0.00000  Uiso   1.00
N1076  N     0.41459   0.95776   0.74206   0.00000  Uiso   1.00
O1077  O     0.41535   0.94345   0.69663   0.00000  Uiso   1.00
O1078  O     0.37460   0.95630   0.77902   0.00000  Uiso   1.00
H1079  H     0.60641   0.87206   0.81641   0.00000  Uiso   1.00
H1080  H     0.35942   0.87124   0.81707   0.00000  Uiso   1.00
N1081  N     0.39922   0.79194   0.66807   0.00000  Uiso   1.00
O1082  O     0.43148   0.76602   0.67310   0.00000  Uiso   1.00
O1083  O     0.38750   0.79024   0.62511   0.00000  Uiso   1.00
H1084  H     0.61986   0.83350   0.91641   0.00000  Uiso   1.00
H1085  H     0.63710   0.85801   0.99493   0.00000  Uiso   1.00
H1086  H     0.38554   0.81714   0.91105   0.00000  Uiso   1.00
H1087  H     0.41616   0.83484   0.55252   0.00000  Uiso   1.00
H1088  H     0.36049   0.81707   0.50463   0.00000  Uiso   1.00
O1089  O     0.79375   0.89345   0.75000   0.00000  Uiso   1.00
O1090  O     0.87294   0.89346   0.75000   0.00000  Uiso   1.00
C1091  C     0.83322   0.91261   0.74983   0.00000  Uiso   1.00
O1092  O     0.77441   0.83332   0.82549   0.00000  Uiso   1.00
O1093  O     0.85360   0.83333   0.82549   0.00000  Uiso   1.00
C1094  C     0.80821   0.83033   0.84938   0.00000  Uiso   1.00
Cu1095 Cu    0.78645   0.83333   0.75000   0.00000  Uiso   1.00
Cu1096 Cu    0.88022   0.83334   0.75000   0.00000  Uiso   1.00
O1097  O     0.79373   0.77321   0.75000   0.00000  Uiso   1.00
O1098  O     0.87292   0.77322   0.75000   0.00000  Uiso   1.00
O1099  O     0.81306   0.83334   0.67451   0.00000  Uiso   1.00
O1100  O     0.89225   0.83335   0.67451   0.00000  Uiso   1.00
C1101  C     0.83197   0.75427   0.75428   0.00000  Uiso   1.00
C1102  C     0.85895   0.83509   0.65072   0.00000  Uiso   1.00
C1103  C     0.93368   0.85040   0.51557   0.00000  Uiso   1.00
C1104  C     0.87315   0.83928   0.59530   0.00000  Uiso   1.00
C1105  C     0.74626   0.82047   0.93149   0.00000  Uiso   1.00
C1106  C     0.73147   0.82132   0.98448   0.00000  Uiso   1.00
C1107  C     0.76461   0.82923   0.51217   0.00000  Uiso   1.00
C1108  C     0.81489   0.83053   0.98780   0.00000  Uiso   1.00
C1109  C     0.83082   0.82610   0.93363   0.00000  Uiso   1.00
C1110  C     0.84996   0.83592   0.51563   0.00000  Uiso   1.00
C1111  C     0.89944   0.84108   0.98902   0.00000  Uiso   1.00
C1112  C     0.91485   0.83372   0.93661   0.00000  Uiso   1.00
C1113  C     0.88151   0.82296   0.91028   0.00000  Uiso   1.00
C1114  C     0.83785   0.83459   0.56904   0.00000  Uiso   1.00
C1115  C     0.92088   0.84886   0.56861   0.00000  Uiso   1.00
C1116  C     0.79542   0.82490   0.90528   0.00000  Uiso   1.00
H1117  H     0.80160   0.82782   0.59092   0.00000  Uiso   1.00
H1118  H     0.89738   0.81049   0.87238   0.00000  Uiso   1.00
C1119  C     0.87072   0.97871   0.76135   0.00000  Uiso   1.00
H1120  H     0.90178   0.96227   0.76623   0.00000  Uiso   1.00
C1121  C     0.86962   0.68780   0.76705   0.00000  Uiso   1.00
C1122  C     0.82933   0.70966   0.76061   0.00000  Uiso   1.00
C1123  C     0.78754   0.68789   0.75657   0.00000  Uiso   1.00
C1124  C     0.78949   0.97874   0.74995   0.00000  Uiso   1.00
C1125  C     0.83159   0.95733   0.75200   0.00000  Uiso   1.00
C1126  C     0.96583   0.85468   0.78691   0.00000  Uiso   1.00
C1127  C     0.68190   0.85432   0.78724   0.00000  Uiso   1.00
N1128  N     0.71598   0.83332   0.74998   0.00000  Uiso   1.00
C1129  C     0.70018   0.81237   0.71196   0.00000  Uiso   1.00
C1130  C     0.98384   0.81220   0.71329   0.00000  Uiso   1.00
H1131  H     0.97164   0.79525   0.68436   0.00000  Uiso   1.00
N1132  N     0.95069   0.83335   0.74999   0.00000  Uiso   1.00
H1133  H     0.94830   0.85454   0.58853   0.00000  Uiso   1.00
N1134  N     0.90815   0.70773   0.78278   0.00000  Uiso   1.00
O1135  O     0.89787   0.73277   0.82253   0.00000  Uiso   1.00
O1136  O     0.95247   0.69447   0.76482   0.00000  Uiso   1.00
N1137  N     0.74216   0.70822   0.76110   0.00000  Uiso   1.00
O1138  O     0.71998   0.72731   0.80384   0.00000  Uiso   1.00
O1139  O     0.71936   0.70204   0.72630   0.00000  Uiso   1.00
N1140  N     0.74792   0.95776   0.74206   0.00000  Uiso   1.00
O1141  O     0.74868   0.94345   0.69663   0.00000  Uiso   1.00
O1142  O     0.70793   0.95630   0.77902   0.00000  Uiso   1.00
H1143  H     0.93975   0.87206   0.81641   0.00000  Uiso   1.00
H1144  H     0.69276   0.87124   0.81707   0.00000  Uiso   1.00
N1145  N     0.73256   0.79194   0.66807   0.00000  Uiso   1.00
O1146  O     0.76481   0.76602   0.67310   0.00000  Uiso   1.00
O1147  O     0.72083   0.79024   0.62511   0.00000  Uiso   1.00
H1148  H     0.95320   0.83350   0.91641   0.00000  Uiso   1.00
H1149  H     0.97043   0.85801   0.99493   0.00000  Uiso   1.00
H1150  H     0.71887   0.81714   0.91105   0.00000  Uiso   1.00
H1151  H     0.74949   0.83484   0.55252   0.00000  Uiso   1.00
H1152  H     0.69382   0.81707   0.50463   0.00000  Uiso   1.00
loop_
_geom_bond_atom_site_label_1
_geom_bond_atom_site_label_2
_geom_bond_distance
_geom_bond_site_symmetry_2
_ccdc_geom_bond_type
O1     Cu7     1.975   .     S
O1     C3      1.290   .     A
O2     C3      1.304   .     A
O2     Cu8     1.977   .     S
C3     C37     1.461   .     S
O4     Cu7     1.986   .     S
O4     C6      1.313   .     A
O5     Cu8     1.983   .     S
O5     C6      1.289   .     A
C6     C28     1.478   .     S
Cu7    N40     2.021   .     S
Cu7    O11     1.983   .     S
Cu7    Cu8     2.689   .     S
Cu7    O9      1.977   .     S
Cu8    O12     1.986   .     S
Cu8    N44     2.020   .     S
Cu8    O10     1.975   .     S
O9     C13     1.297   .     A
O10    C13     1.303   .     A
O11    C14     1.298   .     A
O12    C14     1.295   .     A
C13    C34     1.472   .     S
C14    C16     1.459   .     S
C15    C27     1.389   .     A
C15    C599    1.397   1_554 S
C15    H637    1.080   1_554 S
C16    C27     1.400   .     A
C16    C26     1.396   .     A
C17    H62     1.083   .     S
C17    C18     1.385   .     A
C17    C28     1.402   .     A
C18    C595    1.384   .     S
C18    H640    1.078   .     S
C19    H63     1.073   .     S
C19    C594    1.384   1_554 S
C19    C596    1.412   1_554 S
C20    C21     1.420   .     A
C20    C595    1.412   .     S
C20    C598    1.423   .     S
C21    C28     1.434   .     A
C21    C25     1.419   .     A
C22    C26     1.399   .     A
C22    C596    1.423   1_554 S
C22    C599    1.415   1_554 S
C23    C24     1.384   .     A
C23    C591    1.397   .     S
C23    C598    1.415   .     S
C24    H60     1.085   .     S
C24    C25     1.381   .     A
C25    H30     1.073   .     S
C26    H29     1.071   .     S
C27    H45     1.083   .     S
C31    C37     1.396   .     A
C31    H32     1.084   .     S
C31    C225    1.390   .     S
C33    N46     1.436   .     S
C33    C34     1.416   .     A
C33    C415    1.390   1_545 S
C34    C35     1.419   .     A
C35    N49     1.437   .     S
C35    C420    1.394   1_545 S
C36    N52     1.435   .     S
C36    C37     1.414   .     A
C36    C227    1.394   .     S
C38    N44     1.369   .     A
C38    H55     1.081   .     S
C38    C103    1.419   .     S
C39    H56     1.082   .     S
C39    N40     1.367   .     A
C39    C166    1.419   1_455 S
N40    C41     1.398   .     A
C41    N57     1.441   .     S
C41    C170    1.415   1_455 S
C42    N44     1.348   .     A
C42    H43     1.082   .     S
C42    C105    1.415   .     S
N46    O48     1.300   .     A
N46    O47     1.302   .     A
N49    O50     1.302   .     A
N49    O51     1.301   .     A
N52    O53     1.301   .     A
N52    O54     1.301   .     A
N57    O58     1.295   .     A
N57    O59     1.301   .     A
H61    C591    1.080   .     S
H64    C594    1.078   1_554 S
O65    Cu71    1.975   .     S
O65    C67     1.290   .     A
O66    C67     1.304   .     A
O66    Cu72    1.977   .     S
C67    C101    1.461   .     S
O68    Cu71    1.986   .     S
O68    C70     1.313   .     A
O69    Cu72    1.983   .     S
O69    C70     1.289   .     A
C70    C92     1.478   .     S
Cu71   N104    2.021   .     S
Cu71   O75     1.983   .     S
Cu71   Cu72    2.689   .     S
Cu71   O73     1.977   .     S
Cu72   O76     1.986   .     S
Cu72   N108    2.020   .     S
Cu72   O74     1.975   .     S
O73    C77     1.297   .     A
O74    C77     1.303   .     A
O75    C78     1.298   .     A
O76    C78     1.295   .     A
C77    C98     1.472   .     S
C78    C80     1.459   .     S
C79    C91     1.389   .     A
C79    C663    1.397   1_554 S
C79    H701    1.080   1_554 S
C80    C91     1.400   .     A
C80    C90     1.396   .     A
C81    H126    1.083   .     S
C81    C82     1.385   .     A
C81    C92     1.402   .     A
C82    C659    1.384   .     S
C82    H704    1.078   .     S
C83    H127    1.073   .     S
C83    C658    1.384   1_554 S
C83    C660    1.412   1_554 S
C84    C85     1.420   .     A
C84    C659    1.412   .     S
C84    C662    1.423   .     S
C85    C92     1.434   .     A
C85    C89     1.419   .     A
C86    C90     1.399   .     A
C86    C660    1.423   1_554 S
C86    C663    1.415   1_554 S
C87    C88     1.384   .     A
C87    C655    1.397   .     S
C87    C662    1.415   .     S
C88    H124    1.085   .     S
C88    C89     1.381   .     A
C89    H94     1.073   .     S
C90    H93     1.071   .     S
C91    H109    1.083   .     S
C95    C101    1.396   .     A
C95    H96     1.084   .     S
C95    C289    1.390   .     S
C97    N110    1.436   .     S
C97    C98     1.416   .     A
C97    C479    1.390   1_545 S
C98    C99     1.419   .     A
C99    N113    1.437   .     S
C99    C484    1.394   1_545 S
C100   N116    1.435   .     S
C100   C101    1.414   .     A
C100   C291    1.394   .     S
C102   N108    1.369   .     A
C102   H119    1.081   .     S
C102   C167    1.419   .     S
C103   H120    1.082   .     S
C103   N104    1.367   .     A
N104   C105    1.398   .     A
C105   N121    1.441   .     S
C106   N108    1.348   .     A
C106   H107    1.082   .     S
C106   C169    1.415   .     S
N110   O112    1.300   .     A
N110   O111    1.302   .     A
N113   O114    1.302   .     A
N113   O115    1.301   .     A
N116   O117    1.301   .     A
N116   O118    1.301   .     A
N121   O122    1.295   .     A
N121   O123    1.301   .     A
H125   C655    1.080   .     S
H128   C658    1.078   1_554 S
O129   Cu135   1.975   .     S
O129   C131    1.290   .     A
O130   C131    1.304   .     A
O130   Cu136   1.977   .     S
C131   C165    1.461   .     S
O132   Cu135   1.986   .     S
O132   C134    1.313   .     A
O133   Cu136   1.983   .     S
O133   C134    1.289   .     A
C134   C156    1.478   .     S
Cu135  N168    2.021   .     S
Cu135  O139    1.983   .     S
Cu135  Cu136   2.689   .     S
Cu135  O137    1.977   .     S
Cu136  O140    1.986   .     S
Cu136  N172    2.020   .     S
Cu136  O138    1.975   .     S
O137   C141    1.297   .     A
O138   C141    1.303   .     A
O139   C142    1.298   .     A
O140   C142    1.295   .     A
C141   C162    1.472   .     S
C142   C144    1.459   .     S
C143   C155    1.389   .     A
C143   C727    1.397   1_554 S
C143   H765    1.080   1_554 S
C144   C155    1.400   .     A
C144   C154    1.396   .     A
C145   H190    1.083   .     S
C145   C146    1.385   .     A
C145   C156    1.402   .     A
C146   C723    1.384   .     S
C146   H768    1.078   .     S
C147   H191    1.073   .     S
C147   C722    1.384   1_554 S
C147   C724    1.412   1_554 S
C148   C149    1.420   .     A
C148   C723    1.412   .     S
C148   C726    1.423   .     S
C149   C156    1.434   .     A
C149   C153    1.419   .     A
C150   C154    1.399   .     A
C150   C724    1.423   1_554 S
C150   C727    1.415   1_554 S
C151   C152    1.384   .     A
C151   C719    1.397   .     S
C151   C726    1.415   .     S
C152   H188    1.085   .     S
C152   C153    1.381   .     A
C153   H158    1.073   .     S
C154   H157    1.071   .     S
C155   H173    1.083   .     S
C159   C165    1.396   .     A
C159   H160    1.084   .     S
C159   C353    1.390   .     S
C161   N174    1.436   .     S
C161   C162    1.416   .     A
C161   C543    1.390   1_545 S
C162   C163    1.419   .     A
C163   N177    1.437   .     S
C163   C548    1.394   1_545 S
C164   N180    1.435   .     S
C164   C165    1.414   .     A
C164   C355    1.394   .     S
C166   N172    1.369   .     A
C166   H183    1.081   .     S
C166   C39     1.419   1_655 S
C167   H184    1.082   .     S
C167   N168    1.367   .     A
N168   C169    1.398   .     A
C169   N185    1.441   .     S
C170   N172    1.348   .     A
C170   H171    1.082   .     S
C170   C41     1.415   1_655 S
N174   O176    1.300   .     A
N174   O175    1.302   .     A
N177   O178    1.302   .     A
N177   O179    1.301   .     A
N180   O181    1.301   .     A
N180   O182    1.301   .     A
N185   O186    1.295   .     A
N185   O187    1.301   .     A
H189   C719    1.080   .     S
H192   C722    1.078   1_554 S
O193   Cu199   1.975   .     S
O193   C195    1.290   .     A
O194   C195    1.304   .     A
O194   Cu200   1.977   .     S
C195   C229    1.461   .     S
O196   Cu199   1.986   .     S
O196   C198    1.313   .     A
O197   Cu200   1.983   .     S
O197   C198    1.289   .     A
C198   C220    1.478   .     S
Cu199  N232    2.021   .     S
Cu199  O203    1.983   .     S
Cu199  Cu200   2.689   .     S
Cu199  O201    1.977   .     S
Cu200  O204    1.986   .     S
Cu200  N236    2.020   .     S
Cu200  O202    1.975   .     S
O201   C205    1.297   .     A
O202   C205    1.303   .     A
O203   C206    1.298   .     A
O204   C206    1.295   .     A
C205   C226    1.472   .     S
C206   C208    1.459   .     S
C207   C219    1.389   .     A
C207   C791    1.397   1_554 S
C207   H829    1.080   1_554 S
C208   C219    1.400   .     A
C208   C218    1.396   .     A
C209   H254    1.083   .     S
C209   C210    1.385   .     A
C209   C220    1.402   .     A
C210   C787    1.384   .     S
C210   H832    1.078   .     S
C211   H255    1.073   .     S
C211   C786    1.384   1_554 S
C211   C788    1.412   1_554 S
C212   C213    1.420   .     A
C212   C787    1.412   .     S
C212   C790    1.423   .     S
C213   C220    1.434   .     A
C213   C217    1.419   .     A
C214   C218    1.399   .     A
C214   C788    1.423   1_554 S
C214   C791    1.415   1_554 S
C215   C216    1.384   .     A
C215   C783    1.397   .     S
C215   C790    1.415   .     S
C216   H252    1.085   .     S
C216   C217    1.381   .     A
C217   H222    1.073   .     S
C218   H221    1.071   .     S
C219   H237    1.083   .     S
C223   C229    1.396   .     A
C223   H224    1.084   .     S
C223   C417    1.390   .     S
C225   N238    1.436   .     S
C225   C226    1.416   .     A
C226   C227    1.419   .     A
C227   N241    1.437   .     S
C228   N244    1.435   .     S
C228   C229    1.414   .     A
C228   C419    1.394   .     S
C230   N236    1.369   .     A
C230   H247    1.081   .     S
C230   C295    1.419   .     S
C231   H248    1.082   .     S
C231   N232    1.367   .     A
C231   C358    1.419   1_455 S
N232   C233    1.398   .     A
C233   N249    1.441   .     S
C233   C362    1.415   1_455 S
C234   N236    1.348   .     A
C234   H235    1.082   .     S
C234   C297    1.415   .     S
N238   O240    1.300   .     A
N238   O239    1.302   .     A
N241   O242    1.302   .     A
N241   O243    1.301   .     A
N244   O245    1.301   .     A
N244   O246    1.301   .     A
N249   O250    1.295   .     A
N249   O251    1.301   .     A
H253   C783    1.080   .     S
H256   C786    1.078   1_554 S
O257   Cu263   1.975   .     S
O257   C259    1.290   .     A
O258   C259    1.304   .     A
O258   Cu264   1.977   .     S
C259   C293    1.461   .     S
O260   Cu263   1.986   .     S
O260   C262    1.313   .     A
O261   Cu264   1.983   .     S
O261   C262    1.289   .     A
C262   C284    1.478   .     S
Cu263  N296    2.021   .     S
Cu263  O267    1.983   .     S
Cu263  Cu264   2.689   .     S
Cu263  O265    1.977   .     S
Cu264  O268    1.986   .     S
Cu264  N300    2.020   .     S
Cu264  O266    1.975   .     S
O265   C269    1.297   .     A
O266   C269    1.303   .     A
O267   C270    1.298   .     A
O268   C270    1.295   .     A
C269   C290    1.472   .     S
C270   C272    1.459   .     S
C271   C283    1.389   .     A
C271   C855    1.397   1_554 S
C271   H893    1.080   1_554 S
C272   C283    1.400   .     A
C272   C282    1.396   .     A
C273   H318    1.083   .     S
C273   C274    1.385   .     A
C273   C284    1.402   .     A
C274   C851    1.384   .     S
C274   H896    1.078   .     S
C275   H319    1.073   .     S
C275   C850    1.384   1_554 S
C275   C852    1.412   1_554 S
C276   C277    1.420   .     A
C276   C851    1.412   .     S
C276   C854    1.423   .     S
C277   C284    1.434   .     A
C277   C281    1.419   .     A
C278   C282    1.399   .     A
C278   C852    1.423   1_554 S
C278   C855    1.415   1_554 S
C279   C280    1.384   .     A
C279   C847    1.397   .     S
C279   C854    1.415   .     S
C280   H316    1.085   .     S
C280   C281    1.381   .     A
C281   H286    1.073   .     S
C282   H285    1.071   .     S
C283   H301    1.083   .     S
C287   C293    1.396   .     A
C287   H288    1.084   .     S
C287   C481    1.390   .     S
C289   N302    1.436   .     S
C289   C290    1.416   .     A
C290   C291    1.419   .     A
C291   N305    1.437   .     S
C292   N308    1.435   .     S
C292   C293    1.414   .     A
C292   C483    1.394   .     S
C294   N300    1.369   .     A
C294   H311    1.081   .     S
C294   C359    1.419   .     S
C295   H312    1.082   .     S
C295   N296    1.367   .     A
N296   C297    1.398   .     A
C297   N313    1.441   .     S
C298   N300    1.348   .     A
C298   H299    1.082   .     S
C298   C361    1.415   .     S
N302   O304    1.300   .     A
N302   O303    1.302   .     A
N305   O306    1.302   .     A
N305   O307    1.301   .     A
N308   O309    1.301   .     A
N308   O310    1.301   .     A
N313   O314    1.295   .     A
N313   O315    1.301   .     A
H317   C847    1.080   .     S
H320   C850    1.078   1_554 S
O321   Cu327   1.975   .     S
O321   C323    1.290   .     A
O322   C323    1.304   .     A
O322   Cu328   1.977   .     S
C323   C357    1.461   .     S
O324   Cu327   1.986   .     S
O324   C326    1.313   .     A
O325   Cu328   1.983   .     S
O325   C326    1.289   .     A
C326   C348    1.478   .     S
Cu327  N360    2.021   .     S
Cu327  O331    1.983   .     S
Cu327  Cu328   2.689   .     S
Cu327  O329    1.977   .     S
Cu328  O332    1.986   .     S
Cu328  N364    2.020   .     S
Cu328  O330    1.975   .     S
O329   C333    1.297   .     A
O330   C333    1.303   .     A
O331   C334    1.298   .     A
O332   C334    1.295   .     A
C333   C354    1.472   .     S
C334   C336    1.459   .     S
C335   C347    1.389   .     A
C335   C919    1.397   1_554 S
C335   H957    1.080   1_554 S
C336   C347    1.400   .     A
C336   C346    1.396   .     A
C337   H382    1.083   .     S
C337   C338    1.385   .     A
C337   C348    1.402   .     A
C338   C915    1.384   .     S
C338   H960    1.078   .     S
C339   H383    1.073   .     S
C339   C914    1.384   1_554 S
C339   C916    1.412   1_554 S
C340   C341    1.420   .     A
C340   C915    1.412   .     S
C340   C918    1.423   .     S
C341   C348    1.434   .     A
C341   C345    1.419   .     A
C342   C346    1.399   .     A
C342   C916    1.423   1_554 S
C342   C919    1.415   1_554 S
C343   C344    1.384   .     A
C343   C911    1.397   .     S
C343   C918    1.415   .     S
C344   H380    1.085   .     S
C344   C345    1.381   .     A
C345   H350    1.073   .     S
C346   H349    1.071   .     S
C347   H365    1.083   .     S
C351   C357    1.396   .     A
C351   H352    1.084   .     S
C351   C545    1.390   .     S
C353   N366    1.436   .     S
C353   C354    1.416   .     A
C354   C355    1.419   .     A
C355   N369    1.437   .     S
C356   N372    1.435   .     S
C356   C357    1.414   .     A
C356   C547    1.394   .     S
C358   N364    1.369   .     A
C358   H375    1.081   .     S
C358   C231    1.419   1_655 S
C359   H376    1.082   .     S
C359   N360    1.367   .     A
N360   C361    1.398   .     A
C361   N377    1.441   .     S
C362   N364    1.348   .     A
C362   H363    1.082   .     S
C362   C233    1.415   1_655 S
N366   O368    1.300   .     A
N366   O367    1.302   .     A
N369   O370    1.302   .     A
N369   O371    1.301   .     A
N372   O373    1.301   .     A
N372   O374    1.301   .     A
N377   O378    1.295   .     A
N377   O379    1.301   .     A
H381   C911    1.080   .     S
H384   C914    1.078   1_554 S
O385   Cu391   1.975   .     S
O385   C387    1.290   .     A
O386   C387    1.304   .     A
O386   Cu392   1.977   .     S
C387   C421    1.461   .     S
O388   Cu391   1.986   .     S
O388   C390    1.313   .     A
O389   Cu392   1.983   .     S
O389   C390    1.289   .     A
C390   C412    1.478   .     S
Cu391  N424    2.021   .     S
Cu391  O395    1.983   .     S
Cu391  Cu392   2.689   .     S
Cu391  O393    1.977   .     S
Cu392  O396    1.986   .     S
Cu392  N428    2.020   .     S
Cu392  O394    1.975   .     S
O393   C397    1.297   .     A
O394   C397    1.303   .     A
O395   C398    1.298   .     A
O396   C398    1.295   .     A
C397   C418    1.472   .     S
C398   C400    1.459   .     S
C399   C411    1.389   .     A
C399   C983    1.397   1_554 S
C399   H1021   1.080   1_554 S
C400   C411    1.400   .     A
C400   C410    1.396   .     A
C401   H446    1.083   .     S
C401   C402    1.385   .     A
C401   C412    1.402   .     A
C402   C979    1.384   .     S
C402   H1024   1.078   .     S
C403   H447    1.073   .     S
C403   C978    1.384   1_554 S
C403   C980    1.412   1_554 S
C404   C405    1.420   .     A
C404   C979    1.412   .     S
C404   C982    1.423   .     S
C405   C412    1.434   .     A
C405   C409    1.419   .     A
C406   C410    1.399   .     A
C406   C980    1.423   1_554 S
C406   C983    1.415   1_554 S
C407   C408    1.384   .     A
C407   C975    1.397   .     S
C407   C982    1.415   .     S
C408   H444    1.085   .     S
C408   C409    1.381   .     A
C409   H414    1.073   .     S
C410   H413    1.071   .     S
C411   H429    1.083   .     S
C415   C421    1.396   .     A
C415   H416    1.084   .     S
C415   C33     1.390   1_565 S
C417   N430    1.436   .     S
C417   C418    1.416   .     A
C418   C419    1.419   .     A
C419   N433    1.437   .     S
C420   N436    1.435   .     S
C420   C421    1.414   .     A
C420   C35     1.394   1_565 S
C422   N428    1.369   .     A
C422   H439    1.081   .     S
C422   C487    1.419   .     S
C423   H440    1.082   .     S
C423   N424    1.367   .     A
C423   C550    1.419   1_455 S
N424   C425    1.398   .     A
C425   N441    1.441   .     S
C425   C554    1.415   1_455 S
C426   N428    1.348   .     A
C426   H427    1.082   .     S
C426   C489    1.415   .     S
N430   O432    1.300   .     A
N430   O431    1.302   .     A
N433   O434    1.302   .     A
N433   O435    1.301   .     A
N436   O437    1.301   .     A
N436   O438    1.301   .     A
N441   O442    1.295   .     A
N441   O443    1.301   .     A
H445   C975    1.080   .     S
H448   C978    1.078   1_554 S
O449   Cu455   1.975   .     S
O449   C451    1.290   .     A
O450   C451    1.304   .     A
O450   Cu456   1.977   .     S
C451   C485    1.461   .     S
O452   Cu455   1.986   .     S
O452   C454    1.313   .     A
O453   Cu456   1.983   .     S
O453   C454    1.289   .     A
C454   C476    1.478   .     S
Cu455  N488    2.021   .     S
Cu455  O459    1.983   .     S
Cu455  Cu456   2.689   .     S
Cu455  O457    1.977   .     S
Cu456  O460    1.986   .     S
Cu456  N492    2.020   .     S
Cu456  O458    1.975   .     S
O457   C461    1.297   .     A
O458   C461    1.303   .     A
O459   C462    1.298   .     A
O460   C462    1.295   .     A
C461   C482    1.472   .     S
C462   C464    1.459   .     S
C463   C475    1.389   .     A
C463   C1047   1.397   1_554 S
C463   H1085   1.080   1_554 S
C464   C475    1.400   .     A
C464   C474    1.396   .     A
C465   H510    1.083   .     S
C465   C466    1.385   .     A
C465   C476    1.402   .     A
C466   C1043   1.384   .     S
C466   H1088   1.078   .     S
C467   H511    1.073   .     S
C467   C1042   1.384   1_554 S
C467   C1044   1.412   1_554 S
C468   C469    1.420   .     A
C468   C1043   1.412   .     S
C468   C1046   1.423   .     S
C469   C476    1.434   .     A
C469   C473    1.419   .     A
C470   C474    1.399   .     A
C470   C1044   1.423   1_554 S
C470   C1047   1.415   1_554 S
C471   C472    1.384   .     A
C471   C1039   1.397   .     S
C471   C1046   1.415   .     S
C472   H508    1.085   .     S
C472   C473    1.381   .     A
C473   H478    1.073   .     S
C474   H477    1.071   .     S
C475   H493    1.083   .     S
C479   C485    1.396   .     A
C479   H480    1.084   .     S
C479   C97     1.390   1_565 S
C481   N494    1.436   .     S
C481   C482    1.416   .     A
C482   C483    1.419   .     A
C483   N497    1.437   .     S
C484   N500    1.435   .     S
C484   C485    1.414   .     A
C484   C99     1.394   1_565 S
C486   N492    1.369   .     A
C486   H503    1.081   .     S
C486   C551    1.419   .     S
C487   H504    1.082   .     S
C487   N488    1.367   .     A
N488   C489    1.398   .     A
C489   N505    1.441   .     S
C490   N492    1.348   .     A
C490   H491    1.082   .     S
C490   C553    1.415   .     S
N494   O496    1.300   .     A
N494   O495    1.302   .     A
N497   O498    1.302   .     A
N497   O499    1.301   .     A
N500   O501    1.301   .     A
N500   O502    1.301   .     A
N505   O506    1.295   .     A
N505   O507    1.301   .     A
H509   C1039   1.080   .     S
H512   C1042   1.078   1_554 S
O513   Cu519   1.975   .     S
O513   C515    1.290   .     A
O514   C515    1.304   .     A
O514   Cu520   1.977   .     S
C515   C549    1.461   .     S
O516   Cu519   1.986   .     S
O516   C518    1.313   .     A
O517   Cu520   1.983   .     S
O517   C518    1.289   .     A
C518   C540    1.478   .     S
Cu519  N552    2.021   .     S
Cu519  O523    1.983   .     S
Cu519  Cu520   2.689   .     S
Cu519  O521    1.977   .     S
Cu520  O524    1.986   .     S
Cu520  N556    2.020   .     S
Cu520  O522    1.975   .     S
O521   C525    1.297   .     A
O522   C525    1.303   .     A
O523   C526    1.298   .     A
O524   C526    1.295   .     A
C525   C546    1.472   .     S
C526   C528    1.459   .     S
C527   C539    1.389   .     A
C527   C1111   1.397   1_554 S
C527   H1149   1.080   1_554 S
C528   C539    1.400   .     A
C528   C538    1.396   .     A
C529   H574    1.083   .     S
C529   C530    1.385   .     A
C529   C540    1.402   .     A
C530   C1107   1.384   .     S
C530   H1152   1.078   .     S
C531   H575    1.073   .     S
C531   C1106   1.384   1_554 S
C531   C1108   1.412   1_554 S
C532   C533    1.420   .     A
C532   C1107   1.412   .     S
C532   C1110   1.423   .     S
C533   C540    1.434   .     A
C533   C537    1.419   .     A
C534   C538    1.399   .     A
C534   C1108   1.423   1_554 S
C534   C1111   1.415   1_554 S
C535   C536    1.384   .     A
C535   C1103   1.397   .     S
C535   C1110   1.415   .     S
C536   H572    1.085   .     S
C536   C537    1.381   .     A
C537   H542    1.073   .     S
C538   H541    1.071   .     S
C539   H557    1.083   .     S
C543   C549    1.396   .     A
C543   H544    1.084   .     S
C543   C161    1.390   1_565 S
C545   N558    1.436   .     S
C545   C546    1.416   .     A
C546   C547    1.419   .     A
C547   N561    1.437   .     S
C548   N564    1.435   .     S
C548   C549    1.414   .     A
C548   C163    1.394   1_565 S
C550   N556    1.369   .     A
C550   H567    1.081   .     S
C550   C423    1.419   1_655 S
C551   H568    1.082   .     S
C551   N552    1.367   .     A
N552   C553    1.398   .     A
C553   N569    1.441   .     S
C554   N556    1.348   .     A
C554   H555    1.082   .     S
C554   C425    1.415   1_655 S
N558   O560    1.300   .     A
N558   O559    1.302   .     A
N561   O562    1.302   .     A
N561   O563    1.301   .     A
N564   O565    1.301   .     A
N564   O566    1.301   .     A
N569   O570    1.295   .     A
N569   O571    1.301   .     A
H573   C1103   1.080   .     S
H576   C1106   1.078   1_554 S
O577   Cu583   1.975   .     S
O577   C579    1.290   .     A
O578   C579    1.304   .     A
O578   Cu584   1.977   .     S
C579   C613    1.461   .     S
O580   Cu583   1.986   .     S
O580   C582    1.313   .     A
O581   Cu584   1.983   .     S
O581   C582    1.289   .     A
C582   C604    1.478   .     S
Cu583  N616    2.021   .     S
Cu583  O587    1.983   .     S
Cu583  Cu584   2.689   .     S
Cu583  O585    1.977   .     S
Cu584  O588    1.986   .     S
Cu584  N620    2.020   .     S
Cu584  O586    1.975   .     S
O585   C589    1.297   .     A
O586   C589    1.303   .     A
O587   C590    1.298   .     A
O588   C590    1.295   .     A
C589   C610    1.472   .     S
C590   C592    1.459   .     S
C591   C603    1.389   .     A
C592   C603    1.400   .     A
C592   C602    1.396   .     A
C593   H638    1.083   .     S
C593   C594    1.385   .     A
C593   C604    1.402   .     A
C594   C19     1.384   1_556 S
C594   H64     1.078   1_556 S
C595   H639    1.073   .     S
C596   C597    1.420   .     A
C596   C19     1.412   1_556 S
C596   C22     1.423   1_556 S
C597   C604    1.434   .     A
C597   C601    1.419   .     A
C598   C602    1.399   .     A
C599   C600    1.384   .     A
C599   C15     1.397   1_556 S
C599   C22     1.415   1_556 S
C600   H636    1.085   .     S
C600   C601    1.381   .     A
C601   H606    1.073   .     S
C602   H605    1.071   .     S
C603   H621    1.083   .     S
C607   C613    1.396   .     A
C607   H608    1.084   .     S
C607   C801    1.390   .     S
C609   N622    1.436   .     S
C609   C610    1.416   .     A
C609   C991    1.390   1_545 S
C610   C611    1.419   .     A
C611   N625    1.437   .     S
C611   C996    1.394   1_545 S
C612   N628    1.435   .     S
C612   C613    1.414   .     A
C612   C803    1.394   .     S
C614   N620    1.369   .     A
C614   H631    1.081   .     S
C614   C679    1.419   .     S
C615   H632    1.082   .     S
C615   N616    1.367   .     A
C615   C742    1.419   1_455 S
N616   C617    1.398   .     A
C617   N633    1.441   .     S
C617   C746    1.415   1_455 S
C618   N620    1.348   .     A
C618   H619    1.082   .     S
C618   C681    1.415   .     S
N622   O624    1.300   .     A
N622   O623    1.302   .     A
N625   O626    1.302   .     A
N625   O627    1.301   .     A
N628   O629    1.301   .     A
N628   O630    1.301   .     A
N633   O634    1.295   .     A
N633   O635    1.301   .     A
H637   C15     1.080   1_556 S
O641   Cu647   1.975   .     S
O641   C643    1.290   .     A
O642   C643    1.304   .     A
O642   Cu648   1.977   .     S
C643   C677    1.461   .     S
O644   Cu647   1.986   .     S
O644   C646    1.313   .     A
O645   Cu648   1.983   .     S
O645   C646    1.289   .     A
C646   C668    1.478   .     S
Cu647  N680    2.021   .     S
Cu647  O651    1.983   .     S
Cu647  Cu648   2.689   .     S
Cu647  O649    1.977   .     S
Cu648  O652    1.986   .     S
Cu648  N684    2.020   .     S
Cu648  O650    1.975   .     S
O649   C653    1.297   .     A
O650   C653    1.303   .     A
O651   C654    1.298   .     A
O652   C654    1.295   .     A
C653   C674    1.472   .     S
C654   C656    1.459   .     S
C655   C667    1.389   .     A
C656   C667    1.400   .     A
C656   C666    1.396   .     A
C657   H702    1.083   .     S
C657   C658    1.385   .     A
C657   C668    1.402   .     A
C658   C83     1.384   1_556 S
C658   H128    1.078   1_556 S
C659   H703    1.073   .     S
C660   C661    1.420   .     A
C660   C83     1.412   1_556 S
C660   C86     1.423   1_556 S
C661   C668    1.434   .     A
C661   C665    1.419   .     A
C662   C666    1.399   .     A
C663   C664    1.384   .     A
C663   C79     1.397   1_556 S
C663   C86     1.415   1_556 S
C664   H700    1.085   .     S
C664   C665    1.381   .     A
C665   H670    1.073   .     S
C666   H669    1.071   .     S
C667   H685    1.083   .     S
C671   C677    1.396   .     A
C671   H672    1.084   .     S
C671   C865    1.390   .     S
C673   N686    1.436   .     S
C673   C674    1.416   .     A
C673   C1055   1.390   1_545 S
C674   C675    1.419   .     A
C675   N689    1.437   .     S
C675   C1060   1.394   1_545 S
C676   N692    1.435   .     S
C676   C677    1.414   .     A
C676   C867    1.394   .     S
C678   N684    1.369   .     A
C678   H695    1.081   .     S
C678   C743    1.419   .     S
C679   H696    1.082   .     S
C679   N680    1.367   .     A
N680   C681    1.398   .     A
C681   N697    1.441   .     S
C682   N684    1.348   .     A
C682   H683    1.082   .     S
C682   C745    1.415   .     S
N686   O688    1.300   .     A
N686   O687    1.302   .     A
N689   O690    1.302   .     A
N689   O691    1.301   .     A
N692   O693    1.301   .     A
N692   O694    1.301   .     A
N697   O698    1.295   .     A
N697   O699    1.301   .     A
H701   C79     1.080   1_556 S
O705   Cu711   1.975   .     S
O705   C707    1.290   .     A
O706   C707    1.304   .     A
O706   Cu712   1.977   .     S
C707   C741    1.461   .     S
O708   Cu711   1.986   .     S
O708   C710    1.313   .     A
O709   Cu712   1.983   .     S
O709   C710    1.289   .     A
C710   C732    1.478   .     S
Cu711  N744    2.021   .     S
Cu711  O715    1.983   .     S
Cu711  Cu712   2.689   .     S
Cu711  O713    1.977   .     S
Cu712  O716    1.986   .     S
Cu712  N748    2.020   .     S
Cu712  O714    1.975   .     S
O713   C717    1.297   .     A
O714   C717    1.303   .     A
O715   C718    1.298   .     A
O716   C718    1.295   .     A
C717   C738    1.472   .     S
C718   C720    1.459   .     S
C719   C731    1.389   .     A
C720   C731    1.400   .     A
C720   C730    1.396   .     A
C721   H766    1.083   .     S
C721   C722    1.385   .     A
C721   C732    1.402   .     A
C722   C147    1.384   1_556 S
C722   H192    1.078   1_556 S
C723   H767    1.073   .     S
C724   C725    1.420   .     A
C724   C147    1.412   1_556 S
C724   C150    1.423   1_556 S
C725   C732    1.434   .     A
C725   C729    1.419   .     A
C726   C730    1.399   .     A
C727   C728    1.384   .     A
C727   C143    1.397   1_556 S
C727   C150    1.415   1_556 S
C728   H764    1.085   .     S
C728   C729    1.381   .     A
C729   H734    1.073   .     S
C730   H733    1.071   .     S
C731   H749    1.083   .     S
C735   C741    1.396   .     A
C735   H736    1.084   .     S
C735   C929    1.390   .     S
C737   N750    1.436   .     S
C737   C738    1.416   .     A
C737   C1119   1.390   1_545 S
C738   C739    1.419   .     A
C739   N753    1.437   .     S
C739   C1124   1.394   1_545 S
C740   N756    1.435   .     S
C740   C741    1.414   .     A
C740   C931    1.394   .     S
C742   N748    1.369   .     A
C742   H759    1.081   .     S
C742   C615    1.419   1_655 S
C743   H760    1.082   .     S
C743   N744    1.367   .     A
N744   C745    1.398   .     A
C745   N761    1.441   .     S
C746   N748    1.348   .     A
C746   H747    1.082   .     S
C746   C617    1.415   1_655 S
N750   O752    1.300   .     A
N750   O751    1.302   .     A
N753   O754    1.302   .     A
N753   O755    1.301   .     A
N756   O757    1.301   .     A
N756   O758    1.301   .     A
N761   O762    1.295   .     A
N761   O763    1.301   .     A
H765   C143    1.080   1_556 S
O769   Cu775   1.975   .     S
O769   C771    1.290   .     A
O770   C771    1.304   .     A
O770   Cu776   1.977   .     S
C771   C805    1.461   .     S
O772   Cu775   1.986   .     S
O772   C774    1.313   .     A
O773   Cu776   1.983   .     S
O773   C774    1.289   .     A
C774   C796    1.478   .     S
Cu775  N808    2.021   .     S
Cu775  O779    1.983   .     S
Cu775  Cu776   2.689   .     S
Cu775  O777    1.977   .     S
Cu776  O780    1.986   .     S
Cu776  N812    2.020   .     S
Cu776  O778    1.975   .     S
O777   C781    1.297   .     A
O778   C781    1.303   .     A
O779   C782    1.298   .     A
O780   C782    1.295   .     A
C781   C802    1.472   .     S
C782   C784    1.459   .     S
C783   C795    1.389   .     A
C784   C795    1.400   .     A
C784   C794    1.396   .     A
C785   H830    1.083   .     S
C785   C786    1.385   .     A
C785   C796    1.402   .     A
C786   C211    1.384   1_556 S
C786   H256    1.078   1_556 S
C787   H831    1.073   .     S
C788   C789    1.420   .     A
C788   C211    1.412   1_556 S
C788   C214    1.423   1_556 S
C789   C796    1.434   .     A
C789   C793    1.419   .     A
C790   C794    1.399   .     A
C791   C792    1.384   .     A
C791   C207    1.397   1_556 S
C791   C214    1.415   1_556 S
C792   H828    1.085   .     S
C792   C793    1.381   .     A
C793   H798    1.073   .     S
C794   H797    1.071   .     S
C795   H813    1.083   .     S
C799   C805    1.396   .     A
C799   H800    1.084   .     S
C799   C993    1.390   .     S
C801   N814    1.436   .     S
C801   C802    1.416   .     A
C802   C803    1.419   .     A
C803   N817    1.437   .     S
C804   N820    1.435   .     S
C804   C805    1.414   .     A
C804   C995    1.394   .     S
C806   N812    1.369   .     A
C806   H823    1.081   .     S
C806   C871    1.419   .     S
C807   H824    1.082   .     S
C807   N808    1.367   .     A
C807   C934    1.419   1_455 S
N808   C809    1.398   .     A
C809   N825    1.441   .     S
C809   C938    1.415   1_455 S
C810   N812    1.348   .     A
C810   H811    1.082   .     S
C810   C873    1.415   .     S
N814   O816    1.300   .     A
N814   O815    1.302   .     A
N817   O818    1.302   .     A
N817   O819    1.301   .     A
N820   O821    1.301   .     A
N820   O822    1.301   .     A
N825   O826    1.295   .     A
N825   O827    1.301   .     A
H829   C207    1.080   1_556 S
O833   Cu839   1.975   .     S
O833   C835    1.290   .     A
O834   C835    1.304   .     A
O834   Cu840   1.977   .     S
C835   C869    1.461   .     S
O836   Cu839   1.986   .     S
O836   C838    1.313   .     A
O837   Cu840   1.983   .     S
O837   C838    1.289   .     A
C838   C860    1.478   .     S
Cu839  N872    2.021   .     S
Cu839  O843    1.983   .     S
Cu839  Cu840   2.689   .     S
Cu839  O841    1.977   .     S
Cu840  O844    1.986   .     S
Cu840  N876    2.020   .     S
Cu840  O842    1.975   .     S
O841   C845    1.297   .     A
O842   C845    1.303   .     A
O843   C846    1.298   .     A
O844   C846    1.295   .     A
C845   C866    1.472   .     S
C846   C848    1.459   .     S
C847   C859    1.389   .     A
C848   C859    1.400   .     A
C848   C858    1.396   .     A
C849   H894    1.083   .     S
C849   C850    1.385   .     A
C849   C860    1.402   .     A
C850   C275    1.384   1_556 S
C850   H320    1.078   1_556 S
C851   H895    1.073   .     S
C852   C853    1.420   .     A
C852   C275    1.412   1_556 S
C852   C278    1.423   1_556 S
C853   C860    1.434   .     A
C853   C857    1.419   .     A
C854   C858    1.399   .     A
C855   C856    1.384   .     A
C855   C271    1.397   1_556 S
C855   C278    1.415   1_556 S
C856   H892    1.085   .     S
C856   C857    1.381   .     A
C857   H862    1.073   .     S
C858   H861    1.071   .     S
C859   H877    1.083   .     S
C863   C869    1.396   .     A
C863   H864    1.084   .     S
C863   C1057   1.390   .     S
C865   N878    1.436   .     S
C865   C866    1.416   .     A
C866   C867    1.419   .     A
C867   N881    1.437   .     S
C868   N884    1.435   .     S
C868   C869    1.414   .     A
C868   C1059   1.394   .     S
C870   N876    1.369   .     A
C870   H887    1.081   .     S
C870   C935    1.419   .     S
C871   H888    1.082   .     S
C871   N872    1.367   .     A
N872   C873    1.398   .     A
C873   N889    1.441   .     S
C874   N876    1.348   .     A
C874   H875    1.082   .     S
C874   C937    1.415   .     S
N878   O880    1.300   .     A
N878   O879    1.302   .     A
N881   O882    1.302   .     A
N881   O883    1.301   .     A
N884   O885    1.301   .     A
N884   O886    1.301   .     A
N889   O890    1.295   .     A
N889   O891    1.301   .     A
H893   C271    1.080   1_556 S
O897   Cu903   1.975   .     S
O897   C899    1.290   .     A
O898   C899    1.304   .     A
O898   Cu904   1.977   .     S
C899   C933    1.461   .     S
O900   Cu903   1.986   .     S
O900   C902    1.313   .     A
O901   Cu904   1.983   .     S
O901   C902    1.289   .     A
C902   C924    1.478   .     S
Cu903  N936    2.021   .     S
Cu903  O907    1.983   .     S
Cu903  Cu904   2.689   .     S
Cu903  O905    1.977   .     S
Cu904  O908    1.986   .     S
Cu904  N940    2.020   .     S
Cu904  O906    1.975   .     S
O905   C909    1.297   .     A
O906   C909    1.303   .     A
O907   C910    1.298   .     A
O908   C910    1.295   .     A
C909   C930    1.472   .     S
C910   C912    1.459   .     S
C911   C923    1.389   .     A
C912   C923    1.400   .     A
C912   C922    1.396   .     A
C913   H958    1.083   .     S
C913   C914    1.385   .     A
C913   C924    1.402   .     A
C914   C339    1.384   1_556 S
C914   H384    1.078   1_556 S
C915   H959    1.073   .     S
C916   C917    1.420   .     A
C916   C339    1.412   1_556 S
C916   C342    1.423   1_556 S
C917   C924    1.434   .     A
C917   C921    1.419   .     A
C918   C922    1.399   .     A
C919   C920    1.384   .     A
C919   C335    1.397   1_556 S
C919   C342    1.415   1_556 S
C920   H956    1.085   .     S
C920   C921    1.381   .     A
C921   H926    1.073   .     S
C922   H925    1.071   .     S
C923   H941    1.083   .     S
C927   C933    1.396   .     A
C927   H928    1.084   .     S
C927   C1121   1.390   .     S
C929   N942    1.436   .     S
C929   C930    1.416   .     A
C930   C931    1.419   .     A
C931   N945    1.437   .     S
C932   N948    1.435   .     S
C932   C933    1.414   .     A
C932   C1123   1.394   .     S
C934   N940    1.369   .     A
C934   H951    1.081   .     S
C934   C807    1.419   1_655 S
C935   H952    1.082   .     S
C935   N936    1.367   .     A
N936   C937    1.398   .     A
C937   N953    1.441   .     S
C938   N940    1.348   .     A
C938   H939    1.082   .     S
C938   C809    1.415   1_655 S
N942   O944    1.300   .     A
N942   O943    1.302   .     A
N945   O946    1.302   .     A
N945   O947    1.301   .     A
N948   O949    1.301   .     A
N948   O950    1.301   .     A
N953   O954    1.295   .     A
N953   O955    1.301   .     A
H957   C335    1.080   1_556 S
O961   Cu967   1.975   .     S
O961   C963    1.290   .     A
O962   C963    1.304   .     A
O962   Cu968   1.977   .     S
C963   C997    1.461   .     S
O964   Cu967   1.986   .     S
O964   C966    1.313   .     A
O965   Cu968   1.983   .     S
O965   C966    1.289   .     A
C966   C988    1.478   .     S
Cu967  N1000   2.021   .     S
Cu967  O971    1.983   .     S
Cu967  Cu968   2.689   .     S
Cu967  O969    1.977   .     S
Cu968  O972    1.986   .     S
Cu968  N1004   2.020   .     S
Cu968  O970    1.975   .     S
O969   C973    1.297   .     A
O970   C973    1.303   .     A
O971   C974    1.298   .     A
O972   C974    1.295   .     A
C973   C994    1.472   .     S
C974   C976    1.459   .     S
C975   C987    1.389   .     A
C976   C987    1.400   .     A
C976   C986    1.396   .     A
C977   H1022   1.083   .     S
C977   C978    1.385   .     A
C977   C988    1.402   .     A
C978   C403    1.384   1_556 S
C978   H448    1.078   1_556 S
C979   H1023   1.073   .     S
C980   C981    1.420   .     A
C980   C403    1.412   1_556 S
C980   C406    1.423   1_556 S
C981   C988    1.434   .     A
C981   C985    1.419   .     A
C982   C986    1.399   .     A
C983   C984    1.384   .     A
C983   C399    1.397   1_556 S
C983   C406    1.415   1_556 S
C984   H1020   1.085   .     S
C984   C985    1.381   .     A
C985   H990    1.073   .     S
C986   H989    1.071   .     S
C987   H1005   1.083   .     S
C991   C997    1.396   .     A
C991   H992    1.084   .     S
C991   C609    1.390   1_565 S
C993   N1006   1.436   .     S
C993   C994    1.416   .     A
C994   C995    1.419   .     A
C995   N1009   1.437   .     S
C996   N1012   1.435   .     S
C996   C997    1.414   .     A
C996   C611    1.394   1_565 S
C998   N1004   1.369   .     A
C998   H1015   1.081   .     S
C998   C1063   1.419   .     S
C999   H1016   1.082   .     S
C999   N1000   1.367   .     A
C999   C1126   1.419   1_455 S
N1000  C1001   1.398   .     A
C1001  N1017   1.441   .     S
C1001  C1130   1.415   1_455 S
C1002  N1004   1.348   .     A
C1002  H1003   1.082   .     S
C1002  C1065   1.415   .     S
N1006  O1008   1.300   .     A
N1006  O1007   1.302   .     A
N1009  O1010   1.302   .     A
N1009  O1011   1.301   .     A
N1012  O1013   1.301   .     A
N1012  O1014   1.301   .     A
N1017  O1018   1.295   .     A
N1017  O1019   1.301   .     A
H1021  C399    1.080   1_556 S
O1025  Cu1031  1.975   .     S
O1025  C1027   1.290   .     A
O1026  C1027   1.304   .     A
O1026  Cu1032  1.977   .     S
C1027  C1061   1.461   .     S
O1028  Cu1031  1.986   .     S
O1028  C1030   1.313   .     A
O1029  Cu1032  1.983   .     S
O1029  C1030   1.289   .     A
C1030  C1052   1.478   .     S
Cu1031 N1064   2.021   .     S
Cu1031 O1035   1.983   .     S
Cu1031 Cu1032  2.689   .     S
Cu1031 O1033   1.977   .     S
Cu1032 O1036   1.986   .     S
Cu1032 N1068   2.020   .     S
Cu1032 O1034   1.975   .     S
O1033  C1037   1.297   .     A
O1034  C1037   1.303   .     A
O1035  C1038   1.298   .     A
O1036  C1038   1.295   .     A
C1037  C1058   1.472   .     S
C1038  C1040   1.459   .     S
C1039  C1051   1.389   .     A
C1040  C1051   1.400   .     A
C1040  C1050   1.396   .     A
C1041  H1086   1.083   .     S
C1041  C1042   1.385   .     A
C1041  C1052   1.402   .     A
C1042  C467    1.384   1_556 S
C1042  H512    1.078   1_556 S
C1043  H1087   1.073   .     S
C1044  C1045   1.420   .     A
C1044  C467    1.412   1_556 S
C1044  C470    1.423   1_556 S
C1045  C1052   1.434   .     A
C1045  C1049   1.419   .     A
C1046  C1050   1.399   .     A
C1047  C1048   1.384   .     A
C1047  C463    1.397   1_556 S
C1047  C470    1.415   1_556 S
C1048  H1084   1.085   .     S
C1048  C1049   1.381   .     A
C1049  H1054   1.073   .     S
C1050  H1053   1.071   .     S
C1051  H1069   1.083   .     S
C1055  C1061   1.396   .     A
C1055  H1056   1.084   .     S
C1055  C673    1.390   1_565 S
C1057  N1070   1.436   .     S
C1057  C1058   1.416   .     A
C1058  C1059   1.419   .     A
C1059  N1073   1.437   .     S
C1060  N1076   1.435   .     S
C1060  C1061   1.414   .     A
C1060  C675    1.394   1_565 S
C1062  N1068   1.369   .     A
C1062  H1079   1.081   .     S
C1062  C1127   1.419   .     S
C1063  H1080   1.082   .     S
C1063  N1064   1.367   .     A
N1064  C1065   1.398   .     A
C1065  N1081   1.441   .     S
C1066  N1068   1.348   .     A
C1066  H1067   1.082   .     S
C1066  C1129   1.415   .     S
N1070  O1072   1.300   .     A
N1070  O1071   1.302   .     A
N1073  O1074   1.302   .     A
N1073  O1075   1.301   .     A
N1076  O1077   1.301   .     A
N1076  O1078   1.301   .     A
N1081  O1082   1.295   .     A
N1081  O1083   1.301   .     A
H1085  C463    1.080   1_556 S
O1089  Cu1095  1.975   .     S
O1089  C1091   1.290   .     A
O1090  C1091   1.304   .     A
O1090  Cu1096  1.977   .     S
C1091  C1125   1.461   .     S
O1092  Cu1095  1.986   .     S
O1092  C1094   1.313   .     A
O1093  Cu1096  1.983   .     S
O1093  C1094   1.289   .     A
C1094  C1116   1.478   .     S
Cu1095 N1128   2.021   .     S
Cu1095 O1099   1.983   .     S
Cu1095 Cu1096  2.689   .     S
Cu1095 O1097   1.977   .     S
Cu1096 O1100   1.986   .     S
Cu1096 N1132   2.020   .     S
Cu1096 O1098   1.975   .     S
O1097  C1101   1.297   .     A
O1098  C1101   1.303   .     A
O1099  C1102   1.298   .     A
O1100  C1102   1.295   .     A
C1101  C1122   1.472   .     S
C1102  C1104   1.459   .     S
C1103  C1115   1.389   .     A
C1104  C1115   1.400   .     A
C1104  C1114   1.396   .     A
C1105  H1150   1.083   .     S
C1105  C1106   1.385   .     A
C1105  C1116   1.402   .     A
C1106  C531    1.384   1_556 S
C1106  H576    1.078   1_556 S
C1107  H1151   1.073   .     S
C1108  C1109   1.420   .     A
C1108  C531    1.412   1_556 S
C1108  C534    1.423   1_556 S
C1109  C1116   1.434   .     A
C1109  C1113   1.419   .     A
C1110  C1114   1.399   .     A
C1111  C1112   1.384   .     A
C1111  C527    1.397   1_556 S
C1111  C534    1.415   1_556 S
C1112  H1148   1.085   .     S
C1112  C1113   1.381   .     A
C1113  H1118   1.073   .     S
C1114  H1117   1.071   .     S
C1115  H1133   1.083   .     S
C1119  C1125   1.396   .     A
C1119  H1120   1.084   .     S
C1119  C737    1.390   1_565 S
C1121  N1134   1.436   .     S
C1121  C1122   1.416   .     A
C1122  C1123   1.419   .     A
C1123  N1137   1.437   .     S
C1124  N1140   1.435   .     S
C1124  C1125   1.414   .     A
C1124  C739    1.394   1_565 S
C1126  N1132   1.369   .     A
C1126  H1143   1.081   .     S
C1126  C999    1.419   1_655 S
C1127  H1144   1.082   .     S
C1127  N1128   1.367   .     A
N1128  C1129   1.398   .     A
C1129  N1145   1.441   .     S
C1130  N1132   1.348   .     A
C1130  H1131   1.082   .     S
C1130  C1001   1.415   1_655 S
N1134  O1136   1.300   .     A
N1134  O1135   1.302   .     A
N1137  O1138   1.302   .     A
N1137  O1139   1.301   .     A
N1140  O1141   1.301   .     A
N1140  O1142   1.301   .     A
N1145  O1146   1.295   .     A
N1145  O1147   1.301   .     A
H1149  C527    1.080   1_556 S
