data_str_m2_o1_o1_pcu_sym.46
_audit_creation_date              2020-01-03
_audit_creation_method            'Materials Studio'
_symmetry_space_group_name_H-M    'P1'
_symmetry_Int_Tables_number       1
_symmetry_cell_setting            triclinic
loop_
_symmetry_equiv_pos_as_xyz
  x,y,z
_cell_length_a                    31.7027
_cell_length_b                    29.8991
_cell_length_c                    28.8104
_cell_angle_alpha                 90.0000
_cell_angle_beta                  90.0000
_cell_angle_gamma                 90.0000
loop_
_atom_site_label
_atom_site_type_symbol
_atom_site_fract_x
_atom_site_fract_y
_atom_site_fract_z
_atom_site_U_iso_or_equiv
_atom_site_adp_type
_atom_site_occupancy
Br1    Br    0.00000   0.15375   0.05620   0.00000  Uiso   1.00
Br2    Br    0.00000   0.34625   0.27713   0.00000  Uiso   1.00
Br3    Br    0.00000   0.34625   0.05620   0.00000  Uiso   1.00
Br4    Br    0.00000   0.15375   0.27713   0.00000  Uiso   1.00
Br5    Br    0.25000   0.40375   0.05620   0.00000  Uiso   1.00
Br6    Br    0.25000   0.09625   0.27713   0.00000  Uiso   1.00
Br7    Br    0.25000   0.09625   0.05620   0.00000  Uiso   1.00
Br8    Br    0.25000   0.40375   0.27713   0.00000  Uiso   1.00
C9     C     0.05973   0.19092   0.16667   0.00000  Uiso   1.00
C10    C     0.00000   0.28941   0.30864   0.00000  Uiso   1.00
C11    C     0.00000   0.28941   0.02469   0.00000  Uiso   1.00
C12    C     0.00000   0.21059   0.30864   0.00000  Uiso   1.00
C13    C     0.25000   0.46059   0.02469   0.00000  Uiso   1.00
C14    C     0.25000   0.03941   0.30864   0.00000  Uiso   1.00
C15    C     0.25000   0.03941   0.02469   0.00000  Uiso   1.00
C16    C     0.25000   0.46059   0.30864   0.00000  Uiso   1.00
C17    C     0.39038   0.14139   0.12448   0.00000  Uiso   1.00
C18    C     0.10962   0.35861   0.20885   0.00000  Uiso   1.00
C19    C     0.10962   0.35861   0.12448   0.00000  Uiso   1.00
C20    C     0.44028   0.30908   0.16667   0.00000  Uiso   1.00
C21    C     0.39038   0.14139   0.20885   0.00000  Uiso   1.00
C22    C     0.10962   0.14139   0.20885   0.00000  Uiso   1.00
C23    C     0.39038   0.35861   0.12448   0.00000  Uiso   1.00
C24    C     0.39038   0.35861   0.20885   0.00000  Uiso   1.00
C25    C     0.10962   0.14139   0.12448   0.00000  Uiso   1.00
C26    C     0.14038   0.39139   0.12448   0.00000  Uiso   1.00
C27    C     0.35962   0.10861   0.20885   0.00000  Uiso   1.00
C28    C     0.35962   0.10861   0.12448   0.00000  Uiso   1.00
C29    C     0.14038   0.39139   0.20885   0.00000  Uiso   1.00
C30    C     0.35962   0.39139   0.20885   0.00000  Uiso   1.00
C31    C     0.44028   0.19092   0.16667   0.00000  Uiso   1.00
C32    C     0.14038   0.10861   0.12448   0.00000  Uiso   1.00
C33    C     0.14038   0.10861   0.20885   0.00000  Uiso   1.00
C34    C     0.35962   0.39139   0.12448   0.00000  Uiso   1.00
C35    C     0.09349   0.34229   0.16667   0.00000  Uiso   1.00
C36    C     0.40651   0.15772   0.16667   0.00000  Uiso   1.00
C37    C     0.40651   0.34229   0.16667   0.00000  Uiso   1.00
C38    C     0.09349   0.15772   0.16667   0.00000  Uiso   1.00
C39    C     0.34349   0.09229   0.16667   0.00000  Uiso   1.00
C40    C     0.15651   0.40772   0.16667   0.00000  Uiso   1.00
C41    C     0.15651   0.09229   0.16667   0.00000  Uiso   1.00
C42    C     0.05973   0.30908   0.16667   0.00000  Uiso   1.00
C43    C     0.34349   0.40772   0.16667   0.00000  Uiso   1.00
C44    C     0.30973   0.44092   0.16667   0.00000  Uiso   1.00
C45    C     0.19028   0.05908   0.16667   0.00000  Uiso   1.00
C46    C     0.19028   0.44092   0.16667   0.00000  Uiso   1.00
C47    C     0.30973   0.05908   0.16667   0.00000  Uiso   1.00
C48    C     0.00000   0.21059   0.02469   0.00000  Uiso   1.00
Cu49   Cu    0.00000   0.25000   0.21355   0.00000  Uiso   1.00
Cu50   Cu    0.00000   0.25000   0.11978   0.00000  Uiso   1.00
Cu51   Cu    0.25000   0.00000   0.21355   0.00000  Uiso   1.00
Cu52   Cu    0.25000   0.00000   0.11978   0.00000  Uiso   1.00
F53    F     0.40379   0.15717   0.08284   0.00000  Uiso   1.00
F54    F     0.34621   0.09284   0.25049   0.00000  Uiso   1.00
F55    F     0.34621   0.09284   0.08284   0.00000  Uiso   1.00
F56    F     0.15379   0.40717   0.25049   0.00000  Uiso   1.00
F57    F     0.34621   0.40717   0.25049   0.00000  Uiso   1.00
F58    F     0.15379   0.09284   0.08284   0.00000  Uiso   1.00
F59    F     0.15379   0.09284   0.25049   0.00000  Uiso   1.00
F60    F     0.34621   0.40717   0.08284   0.00000  Uiso   1.00
F61    F     0.09621   0.34284   0.25049   0.00000  Uiso   1.00
F62    F     0.09621   0.34284   0.08284   0.00000  Uiso   1.00
F63    F     0.40379   0.15717   0.25049   0.00000  Uiso   1.00
F64    F     0.09621   0.15717   0.25049   0.00000  Uiso   1.00
F65    F     0.40379   0.34284   0.08284   0.00000  Uiso   1.00
F66    F     0.40379   0.34284   0.25049   0.00000  Uiso   1.00
F67    F     0.09621   0.15717   0.08284   0.00000  Uiso   1.00
F68    F     0.15379   0.40717   0.08284   0.00000  Uiso   1.00
N69    N     0.00000   0.25000   0.28402   0.00000  Uiso   1.00
N70    N     0.00000   0.25000   0.04931   0.00000  Uiso   1.00
N71    N     0.25000   0.00000   0.28402   0.00000  Uiso   1.00
N72    N     0.25000   0.00000   0.04931   0.00000  Uiso   1.00
O73    O     0.04509   0.20491   0.20625   0.00000  Uiso   1.00
O74    O     0.20492   0.04509   0.12709   0.00000  Uiso   1.00
O75    O     0.20492   0.04509   0.20625   0.00000  Uiso   1.00
O76    O     0.29509   0.45491   0.12709   0.00000  Uiso   1.00
O77    O     0.20492   0.45491   0.12709   0.00000  Uiso   1.00
O78    O     0.29509   0.04509   0.20625   0.00000  Uiso   1.00
O79    O     0.29509   0.04509   0.12709   0.00000  Uiso   1.00
O80    O     0.20492   0.45491   0.20625   0.00000  Uiso   1.00
O81    O     0.45492   0.29509   0.12709   0.00000  Uiso   1.00
O82    O     0.45492   0.29509   0.20625   0.00000  Uiso   1.00
O83    O     0.04509   0.20491   0.12709   0.00000  Uiso   1.00
O84    O     0.45492   0.20491   0.12709   0.00000  Uiso   1.00
O85    O     0.04509   0.29509   0.20625   0.00000  Uiso   1.00
O86    O     0.04509   0.29509   0.12709   0.00000  Uiso   1.00
O87    O     0.45492   0.20491   0.20625   0.00000  Uiso   1.00
O88    O     0.29509   0.45491   0.20625   0.00000  Uiso   1.00
Br89   Br    0.50000   0.15375   0.05620   0.00000  Uiso   1.00
Br90   Br    0.50000   0.34625   0.27713   0.00000  Uiso   1.00
Br91   Br    0.50000   0.34625   0.05620   0.00000  Uiso   1.00
Br92   Br    0.50000   0.15375   0.27713   0.00000  Uiso   1.00
Br93   Br    0.75000   0.40375   0.05620   0.00000  Uiso   1.00
Br94   Br    0.75000   0.09625   0.27713   0.00000  Uiso   1.00
Br95   Br    0.75000   0.09625   0.05620   0.00000  Uiso   1.00
Br96   Br    0.75000   0.40375   0.27713   0.00000  Uiso   1.00
C97    C     0.55973   0.19092   0.16667   0.00000  Uiso   1.00
C98    C     0.50000   0.28941   0.30864   0.00000  Uiso   1.00
C99    C     0.50000   0.28941   0.02469   0.00000  Uiso   1.00
C100   C     0.50000   0.21059   0.30864   0.00000  Uiso   1.00
C101   C     0.75000   0.46059   0.02469   0.00000  Uiso   1.00
C102   C     0.75000   0.03941   0.30864   0.00000  Uiso   1.00
C103   C     0.75000   0.03941   0.02469   0.00000  Uiso   1.00
C104   C     0.75000   0.46059   0.30864   0.00000  Uiso   1.00
C105   C     0.89038   0.14139   0.12448   0.00000  Uiso   1.00
C106   C     0.60962   0.35861   0.20885   0.00000  Uiso   1.00
C107   C     0.60962   0.35861   0.12448   0.00000  Uiso   1.00
C108   C     0.94028   0.30908   0.16667   0.00000  Uiso   1.00
C109   C     0.89038   0.14139   0.20885   0.00000  Uiso   1.00
C110   C     0.60962   0.14139   0.20885   0.00000  Uiso   1.00
C111   C     0.89038   0.35861   0.12448   0.00000  Uiso   1.00
C112   C     0.89038   0.35861   0.20885   0.00000  Uiso   1.00
C113   C     0.60962   0.14139   0.12448   0.00000  Uiso   1.00
C114   C     0.64038   0.39139   0.12448   0.00000  Uiso   1.00
C115   C     0.85962   0.10861   0.20885   0.00000  Uiso   1.00
C116   C     0.85962   0.10861   0.12448   0.00000  Uiso   1.00
C117   C     0.64038   0.39139   0.20885   0.00000  Uiso   1.00
C118   C     0.85962   0.39139   0.20885   0.00000  Uiso   1.00
C119   C     0.94028   0.19092   0.16667   0.00000  Uiso   1.00
C120   C     0.64038   0.10861   0.12448   0.00000  Uiso   1.00
C121   C     0.64038   0.10861   0.20885   0.00000  Uiso   1.00
C122   C     0.85962   0.39139   0.12448   0.00000  Uiso   1.00
C123   C     0.59349   0.34229   0.16667   0.00000  Uiso   1.00
C124   C     0.90651   0.15772   0.16667   0.00000  Uiso   1.00
C125   C     0.90651   0.34229   0.16667   0.00000  Uiso   1.00
C126   C     0.59349   0.15772   0.16667   0.00000  Uiso   1.00
C127   C     0.84349   0.09229   0.16667   0.00000  Uiso   1.00
C128   C     0.65651   0.40772   0.16667   0.00000  Uiso   1.00
C129   C     0.65651   0.09229   0.16667   0.00000  Uiso   1.00
C130   C     0.55973   0.30908   0.16667   0.00000  Uiso   1.00
C131   C     0.84349   0.40772   0.16667   0.00000  Uiso   1.00
C132   C     0.80973   0.44092   0.16667   0.00000  Uiso   1.00
C133   C     0.69028   0.05908   0.16667   0.00000  Uiso   1.00
C134   C     0.69028   0.44092   0.16667   0.00000  Uiso   1.00
C135   C     0.80973   0.05908   0.16667   0.00000  Uiso   1.00
C136   C     0.50000   0.21059   0.02469   0.00000  Uiso   1.00
Cu137  Cu    0.50000   0.25000   0.21355   0.00000  Uiso   1.00
Cu138  Cu    0.50000   0.25000   0.11978   0.00000  Uiso   1.00
Cu139  Cu    0.75000   0.00000   0.21355   0.00000  Uiso   1.00
Cu140  Cu    0.75000   0.00000   0.11978   0.00000  Uiso   1.00
F141   F     0.90379   0.15717   0.08284   0.00000  Uiso   1.00
F142   F     0.84621   0.09284   0.25049   0.00000  Uiso   1.00
F143   F     0.84621   0.09284   0.08284   0.00000  Uiso   1.00
F144   F     0.65379   0.40717   0.25049   0.00000  Uiso   1.00
F145   F     0.84621   0.40717   0.25049   0.00000  Uiso   1.00
F146   F     0.65379   0.09284   0.08284   0.00000  Uiso   1.00
F147   F     0.65379   0.09284   0.25049   0.00000  Uiso   1.00
F148   F     0.84621   0.40717   0.08284   0.00000  Uiso   1.00
F149   F     0.59621   0.34284   0.25049   0.00000  Uiso   1.00
F150   F     0.59621   0.34284   0.08284   0.00000  Uiso   1.00
F151   F     0.90379   0.15717   0.25049   0.00000  Uiso   1.00
F152   F     0.59621   0.15717   0.25049   0.00000  Uiso   1.00
F153   F     0.90379   0.34284   0.08284   0.00000  Uiso   1.00
F154   F     0.90379   0.34284   0.25049   0.00000  Uiso   1.00
F155   F     0.59621   0.15717   0.08284   0.00000  Uiso   1.00
F156   F     0.65379   0.40717   0.08284   0.00000  Uiso   1.00
N157   N     0.50000   0.25000   0.28402   0.00000  Uiso   1.00
N158   N     0.50000   0.25000   0.04931   0.00000  Uiso   1.00
N159   N     0.75000   0.00000   0.28402   0.00000  Uiso   1.00
N160   N     0.75000   0.00000   0.04931   0.00000  Uiso   1.00
O161   O     0.54509   0.20491   0.20625   0.00000  Uiso   1.00
O162   O     0.70492   0.04509   0.12709   0.00000  Uiso   1.00
O163   O     0.70492   0.04509   0.20625   0.00000  Uiso   1.00
O164   O     0.79509   0.45491   0.12709   0.00000  Uiso   1.00
O165   O     0.70492   0.45491   0.12709   0.00000  Uiso   1.00
O166   O     0.79509   0.04509   0.20625   0.00000  Uiso   1.00
O167   O     0.79509   0.04509   0.12709   0.00000  Uiso   1.00
O168   O     0.70492   0.45491   0.20625   0.00000  Uiso   1.00
O169   O     0.95492   0.29509   0.12709   0.00000  Uiso   1.00
O170   O     0.95492   0.29509   0.20625   0.00000  Uiso   1.00
O171   O     0.54509   0.20491   0.12709   0.00000  Uiso   1.00
O172   O     0.95492   0.20491   0.12709   0.00000  Uiso   1.00
O173   O     0.54509   0.29509   0.20625   0.00000  Uiso   1.00
O174   O     0.54509   0.29509   0.12709   0.00000  Uiso   1.00
O175   O     0.95492   0.20491   0.20625   0.00000  Uiso   1.00
O176   O     0.79509   0.45491   0.20625   0.00000  Uiso   1.00
Br177  Br    0.00000   0.65375   0.05620   0.00000  Uiso   1.00
Br178  Br    0.00000   0.84625   0.27713   0.00000  Uiso   1.00
Br179  Br    0.00000   0.84625   0.05620   0.00000  Uiso   1.00
Br180  Br    0.00000   0.65375   0.27713   0.00000  Uiso   1.00
Br181  Br    0.25000   0.90375   0.05620   0.00000  Uiso   1.00
Br182  Br    0.25000   0.59625   0.27713   0.00000  Uiso   1.00
Br183  Br    0.25000   0.59625   0.05620   0.00000  Uiso   1.00
Br184  Br    0.25000   0.90375   0.27713   0.00000  Uiso   1.00
C185   C     0.05973   0.69092   0.16667   0.00000  Uiso   1.00
C186   C     0.00000   0.78941   0.30864   0.00000  Uiso   1.00
C187   C     0.00000   0.78941   0.02469   0.00000  Uiso   1.00
C188   C     0.00000   0.71059   0.30864   0.00000  Uiso   1.00
C189   C     0.25000   0.96059   0.02469   0.00000  Uiso   1.00
C190   C     0.25000   0.53941   0.30864   0.00000  Uiso   1.00
C191   C     0.25000   0.53941   0.02469   0.00000  Uiso   1.00
C192   C     0.25000   0.96059   0.30864   0.00000  Uiso   1.00
C193   C     0.39038   0.64139   0.12448   0.00000  Uiso   1.00
C194   C     0.10962   0.85861   0.20885   0.00000  Uiso   1.00
C195   C     0.10962   0.85861   0.12448   0.00000  Uiso   1.00
C196   C     0.44028   0.80908   0.16667   0.00000  Uiso   1.00
C197   C     0.39038   0.64139   0.20885   0.00000  Uiso   1.00
C198   C     0.10962   0.64139   0.20885   0.00000  Uiso   1.00
C199   C     0.39038   0.85861   0.12448   0.00000  Uiso   1.00
C200   C     0.39038   0.85861   0.20885   0.00000  Uiso   1.00
C201   C     0.10962   0.64139   0.12448   0.00000  Uiso   1.00
C202   C     0.14038   0.89139   0.12448   0.00000  Uiso   1.00
C203   C     0.35962   0.60861   0.20885   0.00000  Uiso   1.00
C204   C     0.35962   0.60861   0.12448   0.00000  Uiso   1.00
C205   C     0.14038   0.89139   0.20885   0.00000  Uiso   1.00
C206   C     0.35962   0.89139   0.20885   0.00000  Uiso   1.00
C207   C     0.44028   0.69092   0.16667   0.00000  Uiso   1.00
C208   C     0.14038   0.60861   0.12448   0.00000  Uiso   1.00
C209   C     0.14038   0.60861   0.20885   0.00000  Uiso   1.00
C210   C     0.35962   0.89139   0.12448   0.00000  Uiso   1.00
C211   C     0.09349   0.84229   0.16667   0.00000  Uiso   1.00
C212   C     0.40651   0.65772   0.16667   0.00000  Uiso   1.00
C213   C     0.40651   0.84229   0.16667   0.00000  Uiso   1.00
C214   C     0.09349   0.65772   0.16667   0.00000  Uiso   1.00
C215   C     0.34349   0.59229   0.16667   0.00000  Uiso   1.00
C216   C     0.15651   0.90772   0.16667   0.00000  Uiso   1.00
C217   C     0.15651   0.59229   0.16667   0.00000  Uiso   1.00
C218   C     0.05973   0.80908   0.16667   0.00000  Uiso   1.00
C219   C     0.34349   0.90772   0.16667   0.00000  Uiso   1.00
C220   C     0.30973   0.94092   0.16667   0.00000  Uiso   1.00
C221   C     0.19028   0.55908   0.16667   0.00000  Uiso   1.00
C222   C     0.19028   0.94092   0.16667   0.00000  Uiso   1.00
C223   C     0.30973   0.55908   0.16667   0.00000  Uiso   1.00
C224   C     0.00000   0.71059   0.02469   0.00000  Uiso   1.00
Cu225  Cu    0.00000   0.75000   0.21355   0.00000  Uiso   1.00
Cu226  Cu    0.00000   0.75000   0.11978   0.00000  Uiso   1.00
Cu227  Cu    0.25000   0.50000   0.21355   0.00000  Uiso   1.00
Cu228  Cu    0.25000   0.50000   0.11978   0.00000  Uiso   1.00
F229   F     0.40379   0.65717   0.08284   0.00000  Uiso   1.00
F230   F     0.34621   0.59284   0.25049   0.00000  Uiso   1.00
F231   F     0.34621   0.59284   0.08284   0.00000  Uiso   1.00
F232   F     0.15379   0.90717   0.25049   0.00000  Uiso   1.00
F233   F     0.34621   0.90717   0.25049   0.00000  Uiso   1.00
F234   F     0.15379   0.59284   0.08284   0.00000  Uiso   1.00
F235   F     0.15379   0.59284   0.25049   0.00000  Uiso   1.00
F236   F     0.34621   0.90717   0.08284   0.00000  Uiso   1.00
F237   F     0.09621   0.84284   0.25049   0.00000  Uiso   1.00
F238   F     0.09621   0.84284   0.08284   0.00000  Uiso   1.00
F239   F     0.40379   0.65717   0.25049   0.00000  Uiso   1.00
F240   F     0.09621   0.65717   0.25049   0.00000  Uiso   1.00
F241   F     0.40379   0.84284   0.08284   0.00000  Uiso   1.00
F242   F     0.40379   0.84284   0.25049   0.00000  Uiso   1.00
F243   F     0.09621   0.65717   0.08284   0.00000  Uiso   1.00
F244   F     0.15379   0.90717   0.08284   0.00000  Uiso   1.00
N245   N     0.00000   0.75000   0.28402   0.00000  Uiso   1.00
N246   N     0.00000   0.75000   0.04931   0.00000  Uiso   1.00
N247   N     0.25000   0.50000   0.28402   0.00000  Uiso   1.00
N248   N     0.25000   0.50000   0.04931   0.00000  Uiso   1.00
O249   O     0.04509   0.70491   0.20625   0.00000  Uiso   1.00
O250   O     0.20492   0.54509   0.12709   0.00000  Uiso   1.00
O251   O     0.20492   0.54509   0.20625   0.00000  Uiso   1.00
O252   O     0.29509   0.95491   0.12709   0.00000  Uiso   1.00
O253   O     0.20492   0.95491   0.12709   0.00000  Uiso   1.00
O254   O     0.29509   0.54509   0.20625   0.00000  Uiso   1.00
O255   O     0.29509   0.54509   0.12709   0.00000  Uiso   1.00
O256   O     0.20492   0.95491   0.20625   0.00000  Uiso   1.00
O257   O     0.45492   0.79509   0.12709   0.00000  Uiso   1.00
O258   O     0.45492   0.79509   0.20625   0.00000  Uiso   1.00
O259   O     0.04509   0.70491   0.12709   0.00000  Uiso   1.00
O260   O     0.45492   0.70491   0.12709   0.00000  Uiso   1.00
O261   O     0.04509   0.79509   0.20625   0.00000  Uiso   1.00
O262   O     0.04509   0.79509   0.12709   0.00000  Uiso   1.00
O263   O     0.45492   0.70491   0.20625   0.00000  Uiso   1.00
O264   O     0.29509   0.95491   0.20625   0.00000  Uiso   1.00
Br265  Br    0.50000   0.65375   0.05620   0.00000  Uiso   1.00
Br266  Br    0.50000   0.84625   0.27713   0.00000  Uiso   1.00
Br267  Br    0.50000   0.84625   0.05620   0.00000  Uiso   1.00
Br268  Br    0.50000   0.65375   0.27713   0.00000  Uiso   1.00
Br269  Br    0.75000   0.90375   0.05620   0.00000  Uiso   1.00
Br270  Br    0.75000   0.59625   0.27713   0.00000  Uiso   1.00
Br271  Br    0.75000   0.59625   0.05620   0.00000  Uiso   1.00
Br272  Br    0.75000   0.90375   0.27713   0.00000  Uiso   1.00
C273   C     0.55973   0.69092   0.16667   0.00000  Uiso   1.00
C274   C     0.50000   0.78941   0.30864   0.00000  Uiso   1.00
C275   C     0.50000   0.78941   0.02469   0.00000  Uiso   1.00
C276   C     0.50000   0.71059   0.30864   0.00000  Uiso   1.00
C277   C     0.75000   0.96059   0.02469   0.00000  Uiso   1.00
C278   C     0.75000   0.53941   0.30864   0.00000  Uiso   1.00
C279   C     0.75000   0.53941   0.02469   0.00000  Uiso   1.00
C280   C     0.75000   0.96059   0.30864   0.00000  Uiso   1.00
C281   C     0.89038   0.64139   0.12448   0.00000  Uiso   1.00
C282   C     0.60962   0.85861   0.20885   0.00000  Uiso   1.00
C283   C     0.60962   0.85861   0.12448   0.00000  Uiso   1.00
C284   C     0.94028   0.80908   0.16667   0.00000  Uiso   1.00
C285   C     0.89038   0.64139   0.20885   0.00000  Uiso   1.00
C286   C     0.60962   0.64139   0.20885   0.00000  Uiso   1.00
C287   C     0.89038   0.85861   0.12448   0.00000  Uiso   1.00
C288   C     0.89038   0.85861   0.20885   0.00000  Uiso   1.00
C289   C     0.60962   0.64139   0.12448   0.00000  Uiso   1.00
C290   C     0.64038   0.89139   0.12448   0.00000  Uiso   1.00
C291   C     0.85962   0.60861   0.20885   0.00000  Uiso   1.00
C292   C     0.85962   0.60861   0.12448   0.00000  Uiso   1.00
C293   C     0.64038   0.89139   0.20885   0.00000  Uiso   1.00
C294   C     0.85962   0.89139   0.20885   0.00000  Uiso   1.00
C295   C     0.94028   0.69092   0.16667   0.00000  Uiso   1.00
C296   C     0.64038   0.60861   0.12448   0.00000  Uiso   1.00
C297   C     0.64038   0.60861   0.20885   0.00000  Uiso   1.00
C298   C     0.85962   0.89139   0.12448   0.00000  Uiso   1.00
C299   C     0.59349   0.84229   0.16667   0.00000  Uiso   1.00
C300   C     0.90651   0.65772   0.16667   0.00000  Uiso   1.00
C301   C     0.90651   0.84229   0.16667   0.00000  Uiso   1.00
C302   C     0.59349   0.65772   0.16667   0.00000  Uiso   1.00
C303   C     0.84349   0.59229   0.16667   0.00000  Uiso   1.00
C304   C     0.65651   0.90772   0.16667   0.00000  Uiso   1.00
C305   C     0.65651   0.59229   0.16667   0.00000  Uiso   1.00
C306   C     0.55973   0.80908   0.16667   0.00000  Uiso   1.00
C307   C     0.84349   0.90772   0.16667   0.00000  Uiso   1.00
C308   C     0.80973   0.94092   0.16667   0.00000  Uiso   1.00
C309   C     0.69028   0.55908   0.16667   0.00000  Uiso   1.00
C310   C     0.69028   0.94092   0.16667   0.00000  Uiso   1.00
C311   C     0.80973   0.55908   0.16667   0.00000  Uiso   1.00
C312   C     0.50000   0.71059   0.02469   0.00000  Uiso   1.00
Cu313  Cu    0.50000   0.75000   0.21355   0.00000  Uiso   1.00
Cu314  Cu    0.50000   0.75000   0.11978   0.00000  Uiso   1.00
Cu315  Cu    0.75000   0.50000   0.21355   0.00000  Uiso   1.00
Cu316  Cu    0.75000   0.50000   0.11978   0.00000  Uiso   1.00
F317   F     0.90379   0.65717   0.08284   0.00000  Uiso   1.00
F318   F     0.84621   0.59284   0.25049   0.00000  Uiso   1.00
F319   F     0.84621   0.59284   0.08284   0.00000  Uiso   1.00
F320   F     0.65379   0.90717   0.25049   0.00000  Uiso   1.00
F321   F     0.84621   0.90717   0.25049   0.00000  Uiso   1.00
F322   F     0.65379   0.59284   0.08284   0.00000  Uiso   1.00
F323   F     0.65379   0.59284   0.25049   0.00000  Uiso   1.00
F324   F     0.84621   0.90717   0.08284   0.00000  Uiso   1.00
F325   F     0.59621   0.84284   0.25049   0.00000  Uiso   1.00
F326   F     0.59621   0.84284   0.08284   0.00000  Uiso   1.00
F327   F     0.90379   0.65717   0.25049   0.00000  Uiso   1.00
F328   F     0.59621   0.65717   0.25049   0.00000  Uiso   1.00
F329   F     0.90379   0.84284   0.08284   0.00000  Uiso   1.00
F330   F     0.90379   0.84284   0.25049   0.00000  Uiso   1.00
F331   F     0.59621   0.65717   0.08284   0.00000  Uiso   1.00
F332   F     0.65379   0.90717   0.08284   0.00000  Uiso   1.00
N333   N     0.50000   0.75000   0.28402   0.00000  Uiso   1.00
N334   N     0.50000   0.75000   0.04931   0.00000  Uiso   1.00
N335   N     0.75000   0.50000   0.28402   0.00000  Uiso   1.00
N336   N     0.75000   0.50000   0.04931   0.00000  Uiso   1.00
O337   O     0.54509   0.70491   0.20625   0.00000  Uiso   1.00
O338   O     0.70492   0.54509   0.12709   0.00000  Uiso   1.00
O339   O     0.70492   0.54509   0.20625   0.00000  Uiso   1.00
O340   O     0.79509   0.95491   0.12709   0.00000  Uiso   1.00
O341   O     0.70492   0.95491   0.12709   0.00000  Uiso   1.00
O342   O     0.79509   0.54509   0.20625   0.00000  Uiso   1.00
O343   O     0.79509   0.54509   0.12709   0.00000  Uiso   1.00
O344   O     0.70492   0.95491   0.20625   0.00000  Uiso   1.00
O345   O     0.95492   0.79509   0.12709   0.00000  Uiso   1.00
O346   O     0.95492   0.79509   0.20625   0.00000  Uiso   1.00
O347   O     0.54509   0.70491   0.12709   0.00000  Uiso   1.00
O348   O     0.95492   0.70491   0.12709   0.00000  Uiso   1.00
O349   O     0.54509   0.79509   0.20625   0.00000  Uiso   1.00
O350   O     0.54509   0.79509   0.12709   0.00000  Uiso   1.00
O351   O     0.95492   0.70491   0.20625   0.00000  Uiso   1.00
O352   O     0.79509   0.95491   0.20625   0.00000  Uiso   1.00
Br353  Br    0.00000   0.15375   0.38953   0.00000  Uiso   1.00
Br354  Br    0.00000   0.34625   0.61047   0.00000  Uiso   1.00
Br355  Br    0.00000   0.34625   0.38953   0.00000  Uiso   1.00
Br356  Br    0.00000   0.15375   0.61047   0.00000  Uiso   1.00
Br357  Br    0.25000   0.40375   0.38953   0.00000  Uiso   1.00
Br358  Br    0.25000   0.09625   0.61047   0.00000  Uiso   1.00
Br359  Br    0.25000   0.09625   0.38953   0.00000  Uiso   1.00
Br360  Br    0.25000   0.40375   0.61047   0.00000  Uiso   1.00
C361   C     0.05973   0.19092   0.50000   0.00000  Uiso   1.00
C362   C     0.00000   0.28941   0.64198   0.00000  Uiso   1.00
C363   C     0.00000   0.28941   0.35802   0.00000  Uiso   1.00
C364   C     0.00000   0.21059   0.64198   0.00000  Uiso   1.00
C365   C     0.25000   0.46059   0.35802   0.00000  Uiso   1.00
C366   C     0.25000   0.03941   0.64198   0.00000  Uiso   1.00
C367   C     0.25000   0.03941   0.35802   0.00000  Uiso   1.00
C368   C     0.25000   0.46059   0.64198   0.00000  Uiso   1.00
C369   C     0.39038   0.14139   0.45781   0.00000  Uiso   1.00
C370   C     0.10962   0.35861   0.54219   0.00000  Uiso   1.00
C371   C     0.10962   0.35861   0.45781   0.00000  Uiso   1.00
C372   C     0.44028   0.30908   0.50000   0.00000  Uiso   1.00
C373   C     0.39038   0.14139   0.54219   0.00000  Uiso   1.00
C374   C     0.10962   0.14139   0.54219   0.00000  Uiso   1.00
C375   C     0.39038   0.35861   0.45781   0.00000  Uiso   1.00
C376   C     0.39038   0.35861   0.54219   0.00000  Uiso   1.00
C377   C     0.10962   0.14139   0.45781   0.00000  Uiso   1.00
C378   C     0.14038   0.39139   0.45781   0.00000  Uiso   1.00
C379   C     0.35962   0.10861   0.54219   0.00000  Uiso   1.00
C380   C     0.35962   0.10861   0.45781   0.00000  Uiso   1.00
C381   C     0.14038   0.39139   0.54219   0.00000  Uiso   1.00
C382   C     0.35962   0.39139   0.54219   0.00000  Uiso   1.00
C383   C     0.44028   0.19092   0.50000   0.00000  Uiso   1.00
C384   C     0.14038   0.10861   0.45781   0.00000  Uiso   1.00
C385   C     0.14038   0.10861   0.54219   0.00000  Uiso   1.00
C386   C     0.35962   0.39139   0.45781   0.00000  Uiso   1.00
C387   C     0.09349   0.34229   0.50000   0.00000  Uiso   1.00
C388   C     0.40651   0.15772   0.50000   0.00000  Uiso   1.00
C389   C     0.40651   0.34229   0.50000   0.00000  Uiso   1.00
C390   C     0.09349   0.15772   0.50000   0.00000  Uiso   1.00
C391   C     0.34349   0.09229   0.50000   0.00000  Uiso   1.00
C392   C     0.15651   0.40772   0.50000   0.00000  Uiso   1.00
C393   C     0.15651   0.09229   0.50000   0.00000  Uiso   1.00
C394   C     0.05973   0.30908   0.50000   0.00000  Uiso   1.00
C395   C     0.34349   0.40772   0.50000   0.00000  Uiso   1.00
C396   C     0.30973   0.44092   0.50000   0.00000  Uiso   1.00
C397   C     0.19028   0.05908   0.50000   0.00000  Uiso   1.00
C398   C     0.19028   0.44092   0.50000   0.00000  Uiso   1.00
C399   C     0.30973   0.05908   0.50000   0.00000  Uiso   1.00
C400   C     0.00000   0.21059   0.35802   0.00000  Uiso   1.00
Cu401  Cu    0.00000   0.25000   0.54689   0.00000  Uiso   1.00
Cu402  Cu    0.00000   0.25000   0.45311   0.00000  Uiso   1.00
Cu403  Cu    0.25000   0.00000   0.54689   0.00000  Uiso   1.00
Cu404  Cu    0.25000   0.00000   0.45311   0.00000  Uiso   1.00
F405   F     0.40379   0.15717   0.41617   0.00000  Uiso   1.00
F406   F     0.34621   0.09284   0.58383   0.00000  Uiso   1.00
F407   F     0.34621   0.09284   0.41617   0.00000  Uiso   1.00
F408   F     0.15379   0.40717   0.58383   0.00000  Uiso   1.00
F409   F     0.34621   0.40717   0.58383   0.00000  Uiso   1.00
F410   F     0.15379   0.09284   0.41617   0.00000  Uiso   1.00
F411   F     0.15379   0.09284   0.58383   0.00000  Uiso   1.00
F412   F     0.34621   0.40717   0.41617   0.00000  Uiso   1.00
F413   F     0.09621   0.34284   0.58383   0.00000  Uiso   1.00
F414   F     0.09621   0.34284   0.41617   0.00000  Uiso   1.00
F415   F     0.40379   0.15717   0.58383   0.00000  Uiso   1.00
F416   F     0.09621   0.15717   0.58383   0.00000  Uiso   1.00
F417   F     0.40379   0.34284   0.41617   0.00000  Uiso   1.00
F418   F     0.40379   0.34284   0.58383   0.00000  Uiso   1.00
F419   F     0.09621   0.15717   0.41617   0.00000  Uiso   1.00
F420   F     0.15379   0.40717   0.41617   0.00000  Uiso   1.00
N421   N     0.00000   0.25000   0.61736   0.00000  Uiso   1.00
N422   N     0.00000   0.25000   0.38264   0.00000  Uiso   1.00
N423   N     0.25000   0.00000   0.61736   0.00000  Uiso   1.00
N424   N     0.25000   0.00000   0.38264   0.00000  Uiso   1.00
O425   O     0.04509   0.20491   0.53958   0.00000  Uiso   1.00
O426   O     0.20492   0.04509   0.46042   0.00000  Uiso   1.00
O427   O     0.20492   0.04509   0.53958   0.00000  Uiso   1.00
O428   O     0.29509   0.45491   0.46042   0.00000  Uiso   1.00
O429   O     0.20492   0.45491   0.46042   0.00000  Uiso   1.00
O430   O     0.29509   0.04509   0.53958   0.00000  Uiso   1.00
O431   O     0.29509   0.04509   0.46042   0.00000  Uiso   1.00
O432   O     0.20492   0.45491   0.53958   0.00000  Uiso   1.00
O433   O     0.45492   0.29509   0.46042   0.00000  Uiso   1.00
O434   O     0.45492   0.29509   0.53958   0.00000  Uiso   1.00
O435   O     0.04509   0.20491   0.46042   0.00000  Uiso   1.00
O436   O     0.45492   0.20491   0.46042   0.00000  Uiso   1.00
O437   O     0.04509   0.29509   0.53958   0.00000  Uiso   1.00
O438   O     0.04509   0.29509   0.46042   0.00000  Uiso   1.00
O439   O     0.45492   0.20491   0.53958   0.00000  Uiso   1.00
O440   O     0.29509   0.45491   0.53958   0.00000  Uiso   1.00
Br441  Br    0.50000   0.15375   0.38953   0.00000  Uiso   1.00
Br442  Br    0.50000   0.34625   0.61047   0.00000  Uiso   1.00
Br443  Br    0.50000   0.34625   0.38953   0.00000  Uiso   1.00
Br444  Br    0.50000   0.15375   0.61047   0.00000  Uiso   1.00
Br445  Br    0.75000   0.40375   0.38953   0.00000  Uiso   1.00
Br446  Br    0.75000   0.09625   0.61047   0.00000  Uiso   1.00
Br447  Br    0.75000   0.09625   0.38953   0.00000  Uiso   1.00
Br448  Br    0.75000   0.40375   0.61047   0.00000  Uiso   1.00
C449   C     0.55973   0.19092   0.50000   0.00000  Uiso   1.00
C450   C     0.50000   0.28941   0.64198   0.00000  Uiso   1.00
C451   C     0.50000   0.28941   0.35802   0.00000  Uiso   1.00
C452   C     0.50000   0.21059   0.64198   0.00000  Uiso   1.00
C453   C     0.75000   0.46059   0.35802   0.00000  Uiso   1.00
C454   C     0.75000   0.03941   0.64198   0.00000  Uiso   1.00
C455   C     0.75000   0.03941   0.35802   0.00000  Uiso   1.00
C456   C     0.75000   0.46059   0.64198   0.00000  Uiso   1.00
C457   C     0.89038   0.14139   0.45781   0.00000  Uiso   1.00
C458   C     0.60962   0.35861   0.54219   0.00000  Uiso   1.00
C459   C     0.60962   0.35861   0.45781   0.00000  Uiso   1.00
C460   C     0.94028   0.30908   0.50000   0.00000  Uiso   1.00
C461   C     0.89038   0.14139   0.54219   0.00000  Uiso   1.00
C462   C     0.60962   0.14139   0.54219   0.00000  Uiso   1.00
C463   C     0.89038   0.35861   0.45781   0.00000  Uiso   1.00
C464   C     0.89038   0.35861   0.54219   0.00000  Uiso   1.00
C465   C     0.60962   0.14139   0.45781   0.00000  Uiso   1.00
C466   C     0.64038   0.39139   0.45781   0.00000  Uiso   1.00
C467   C     0.85962   0.10861   0.54219   0.00000  Uiso   1.00
C468   C     0.85962   0.10861   0.45781   0.00000  Uiso   1.00
C469   C     0.64038   0.39139   0.54219   0.00000  Uiso   1.00
C470   C     0.85962   0.39139   0.54219   0.00000  Uiso   1.00
C471   C     0.94028   0.19092   0.50000   0.00000  Uiso   1.00
C472   C     0.64038   0.10861   0.45781   0.00000  Uiso   1.00
C473   C     0.64038   0.10861   0.54219   0.00000  Uiso   1.00
C474   C     0.85962   0.39139   0.45781   0.00000  Uiso   1.00
C475   C     0.59349   0.34229   0.50000   0.00000  Uiso   1.00
C476   C     0.90651   0.15772   0.50000   0.00000  Uiso   1.00
C477   C     0.90651   0.34229   0.50000   0.00000  Uiso   1.00
C478   C     0.59349   0.15772   0.50000   0.00000  Uiso   1.00
C479   C     0.84349   0.09229   0.50000   0.00000  Uiso   1.00
C480   C     0.65651   0.40772   0.50000   0.00000  Uiso   1.00
C481   C     0.65651   0.09229   0.50000   0.00000  Uiso   1.00
C482   C     0.55973   0.30908   0.50000   0.00000  Uiso   1.00
C483   C     0.84349   0.40772   0.50000   0.00000  Uiso   1.00
C484   C     0.80973   0.44092   0.50000   0.00000  Uiso   1.00
C485   C     0.69028   0.05908   0.50000   0.00000  Uiso   1.00
C486   C     0.69028   0.44092   0.50000   0.00000  Uiso   1.00
C487   C     0.80973   0.05908   0.50000   0.00000  Uiso   1.00
C488   C     0.50000   0.21059   0.35802   0.00000  Uiso   1.00
Cu489  Cu    0.50000   0.25000   0.54689   0.00000  Uiso   1.00
Cu490  Cu    0.50000   0.25000   0.45311   0.00000  Uiso   1.00
Cu491  Cu    0.75000   0.00000   0.54689   0.00000  Uiso   1.00
Cu492  Cu    0.75000   0.00000   0.45311   0.00000  Uiso   1.00
F493   F     0.90379   0.15717   0.41617   0.00000  Uiso   1.00
F494   F     0.84621   0.09284   0.58383   0.00000  Uiso   1.00
F495   F     0.84621   0.09284   0.41617   0.00000  Uiso   1.00
F496   F     0.65379   0.40717   0.58383   0.00000  Uiso   1.00
F497   F     0.84621   0.40717   0.58383   0.00000  Uiso   1.00
F498   F     0.65379   0.09284   0.41617   0.00000  Uiso   1.00
F499   F     0.65379   0.09284   0.58383   0.00000  Uiso   1.00
F500   F     0.84621   0.40717   0.41617   0.00000  Uiso   1.00
F501   F     0.59621   0.34284   0.58383   0.00000  Uiso   1.00
F502   F     0.59621   0.34284   0.41617   0.00000  Uiso   1.00
F503   F     0.90379   0.15717   0.58383   0.00000  Uiso   1.00
F504   F     0.59621   0.15717   0.58383   0.00000  Uiso   1.00
F505   F     0.90379   0.34284   0.41617   0.00000  Uiso   1.00
F506   F     0.90379   0.34284   0.58383   0.00000  Uiso   1.00
F507   F     0.59621   0.15717   0.41617   0.00000  Uiso   1.00
F508   F     0.65379   0.40717   0.41617   0.00000  Uiso   1.00
N509   N     0.50000   0.25000   0.61736   0.00000  Uiso   1.00
N510   N     0.50000   0.25000   0.38264   0.00000  Uiso   1.00
N511   N     0.75000   0.00000   0.61736   0.00000  Uiso   1.00
N512   N     0.75000   0.00000   0.38264   0.00000  Uiso   1.00
O513   O     0.54509   0.20491   0.53958   0.00000  Uiso   1.00
O514   O     0.70492   0.04509   0.46042   0.00000  Uiso   1.00
O515   O     0.70492   0.04509   0.53958   0.00000  Uiso   1.00
O516   O     0.79509   0.45491   0.46042   0.00000  Uiso   1.00
O517   O     0.70492   0.45491   0.46042   0.00000  Uiso   1.00
O518   O     0.79509   0.04509   0.53958   0.00000  Uiso   1.00
O519   O     0.79509   0.04509   0.46042   0.00000  Uiso   1.00
O520   O     0.70492   0.45491   0.53958   0.00000  Uiso   1.00
O521   O     0.95492   0.29509   0.46042   0.00000  Uiso   1.00
O522   O     0.95492   0.29509   0.53958   0.00000  Uiso   1.00
O523   O     0.54509   0.20491   0.46042   0.00000  Uiso   1.00
O524   O     0.95492   0.20491   0.46042   0.00000  Uiso   1.00
O525   O     0.54509   0.29509   0.53958   0.00000  Uiso   1.00
O526   O     0.54509   0.29509   0.46042   0.00000  Uiso   1.00
O527   O     0.95492   0.20491   0.53958   0.00000  Uiso   1.00
O528   O     0.79509   0.45491   0.53958   0.00000  Uiso   1.00
Br529  Br    0.00000   0.65375   0.38953   0.00000  Uiso   1.00
Br530  Br    0.00000   0.84625   0.61047   0.00000  Uiso   1.00
Br531  Br    0.00000   0.84625   0.38953   0.00000  Uiso   1.00
Br532  Br    0.00000   0.65375   0.61047   0.00000  Uiso   1.00
Br533  Br    0.25000   0.90375   0.38953   0.00000  Uiso   1.00
Br534  Br    0.25000   0.59625   0.61047   0.00000  Uiso   1.00
Br535  Br    0.25000   0.59625   0.38953   0.00000  Uiso   1.00
Br536  Br    0.25000   0.90375   0.61047   0.00000  Uiso   1.00
C537   C     0.05973   0.69092   0.50000   0.00000  Uiso   1.00
C538   C     0.00000   0.78941   0.64198   0.00000  Uiso   1.00
C539   C     0.00000   0.78941   0.35802   0.00000  Uiso   1.00
C540   C     0.00000   0.71059   0.64198   0.00000  Uiso   1.00
C541   C     0.25000   0.96059   0.35802   0.00000  Uiso   1.00
C542   C     0.25000   0.53941   0.64198   0.00000  Uiso   1.00
C543   C     0.25000   0.53941   0.35802   0.00000  Uiso   1.00
C544   C     0.25000   0.96059   0.64198   0.00000  Uiso   1.00
C545   C     0.39038   0.64139   0.45781   0.00000  Uiso   1.00
C546   C     0.10962   0.85861   0.54219   0.00000  Uiso   1.00
C547   C     0.10962   0.85861   0.45781   0.00000  Uiso   1.00
C548   C     0.44028   0.80908   0.50000   0.00000  Uiso   1.00
C549   C     0.39038   0.64139   0.54219   0.00000  Uiso   1.00
C550   C     0.10962   0.64139   0.54219   0.00000  Uiso   1.00
C551   C     0.39038   0.85861   0.45781   0.00000  Uiso   1.00
C552   C     0.39038   0.85861   0.54219   0.00000  Uiso   1.00
C553   C     0.10962   0.64139   0.45781   0.00000  Uiso   1.00
C554   C     0.14038   0.89139   0.45781   0.00000  Uiso   1.00
C555   C     0.35962   0.60861   0.54219   0.00000  Uiso   1.00
C556   C     0.35962   0.60861   0.45781   0.00000  Uiso   1.00
C557   C     0.14038   0.89139   0.54219   0.00000  Uiso   1.00
C558   C     0.35962   0.89139   0.54219   0.00000  Uiso   1.00
C559   C     0.44028   0.69092   0.50000   0.00000  Uiso   1.00
C560   C     0.14038   0.60861   0.45781   0.00000  Uiso   1.00
C561   C     0.14038   0.60861   0.54219   0.00000  Uiso   1.00
C562   C     0.35962   0.89139   0.45781   0.00000  Uiso   1.00
C563   C     0.09349   0.84229   0.50000   0.00000  Uiso   1.00
C564   C     0.40651   0.65772   0.50000   0.00000  Uiso   1.00
C565   C     0.40651   0.84229   0.50000   0.00000  Uiso   1.00
C566   C     0.09349   0.65772   0.50000   0.00000  Uiso   1.00
C567   C     0.34349   0.59229   0.50000   0.00000  Uiso   1.00
C568   C     0.15651   0.90772   0.50000   0.00000  Uiso   1.00
C569   C     0.15651   0.59229   0.50000   0.00000  Uiso   1.00
C570   C     0.05973   0.80908   0.50000   0.00000  Uiso   1.00
C571   C     0.34349   0.90772   0.50000   0.00000  Uiso   1.00
C572   C     0.30973   0.94092   0.50000   0.00000  Uiso   1.00
C573   C     0.19028   0.55908   0.50000   0.00000  Uiso   1.00
C574   C     0.19028   0.94092   0.50000   0.00000  Uiso   1.00
C575   C     0.30973   0.55908   0.50000   0.00000  Uiso   1.00
C576   C     0.00000   0.71059   0.35802   0.00000  Uiso   1.00
Cu577  Cu    0.00000   0.75000   0.54689   0.00000  Uiso   1.00
Cu578  Cu    0.00000   0.75000   0.45311   0.00000  Uiso   1.00
Cu579  Cu    0.25000   0.50000   0.54689   0.00000  Uiso   1.00
Cu580  Cu    0.25000   0.50000   0.45311   0.00000  Uiso   1.00
F581   F     0.40379   0.65717   0.41617   0.00000  Uiso   1.00
F582   F     0.34621   0.59284   0.58383   0.00000  Uiso   1.00
F583   F     0.34621   0.59284   0.41617   0.00000  Uiso   1.00
F584   F     0.15379   0.90717   0.58383   0.00000  Uiso   1.00
F585   F     0.34621   0.90717   0.58383   0.00000  Uiso   1.00
F586   F     0.15379   0.59284   0.41617   0.00000  Uiso   1.00
F587   F     0.15379   0.59284   0.58383   0.00000  Uiso   1.00
F588   F     0.34621   0.90717   0.41617   0.00000  Uiso   1.00
F589   F     0.09621   0.84284   0.58383   0.00000  Uiso   1.00
F590   F     0.09621   0.84284   0.41617   0.00000  Uiso   1.00
F591   F     0.40379   0.65717   0.58383   0.00000  Uiso   1.00
F592   F     0.09621   0.65717   0.58383   0.00000  Uiso   1.00
F593   F     0.40379   0.84284   0.41617   0.00000  Uiso   1.00
F594   F     0.40379   0.84284   0.58383   0.00000  Uiso   1.00
F595   F     0.09621   0.65717   0.41617   0.00000  Uiso   1.00
F596   F     0.15379   0.90717   0.41617   0.00000  Uiso   1.00
N597   N     0.00000   0.75000   0.61736   0.00000  Uiso   1.00
N598   N     0.00000   0.75000   0.38264   0.00000  Uiso   1.00
N599   N     0.25000   0.50000   0.61736   0.00000  Uiso   1.00
N600   N     0.25000   0.50000   0.38264   0.00000  Uiso   1.00
O601   O     0.04509   0.70491   0.53958   0.00000  Uiso   1.00
O602   O     0.20492   0.54509   0.46042   0.00000  Uiso   1.00
O603   O     0.20492   0.54509   0.53958   0.00000  Uiso   1.00
O604   O     0.29509   0.95491   0.46042   0.00000  Uiso   1.00
O605   O     0.20492   0.95491   0.46042   0.00000  Uiso   1.00
O606   O     0.29509   0.54509   0.53958   0.00000  Uiso   1.00
O607   O     0.29509   0.54509   0.46042   0.00000  Uiso   1.00
O608   O     0.20492   0.95491   0.53958   0.00000  Uiso   1.00
O609   O     0.45492   0.79509   0.46042   0.00000  Uiso   1.00
O610   O     0.45492   0.79509   0.53958   0.00000  Uiso   1.00
O611   O     0.04509   0.70491   0.46042   0.00000  Uiso   1.00
O612   O     0.45492   0.70491   0.46042   0.00000  Uiso   1.00
O613   O     0.04509   0.79509   0.53958   0.00000  Uiso   1.00
O614   O     0.04509   0.79509   0.46042   0.00000  Uiso   1.00
O615   O     0.45492   0.70491   0.53958   0.00000  Uiso   1.00
O616   O     0.29509   0.95491   0.53958   0.00000  Uiso   1.00
Br617  Br    0.50000   0.65375   0.38953   0.00000  Uiso   1.00
Br618  Br    0.50000   0.84625   0.61047   0.00000  Uiso   1.00
Br619  Br    0.50000   0.84625   0.38953   0.00000  Uiso   1.00
Br620  Br    0.50000   0.65375   0.61047   0.00000  Uiso   1.00
Br621  Br    0.75000   0.90375   0.38953   0.00000  Uiso   1.00
Br622  Br    0.75000   0.59625   0.61047   0.00000  Uiso   1.00
Br623  Br    0.75000   0.59625   0.38953   0.00000  Uiso   1.00
Br624  Br    0.75000   0.90375   0.61047   0.00000  Uiso   1.00
C625   C     0.55973   0.69092   0.50000   0.00000  Uiso   1.00
C626   C     0.50000   0.78941   0.64198   0.00000  Uiso   1.00
C627   C     0.50000   0.78941   0.35802   0.00000  Uiso   1.00
C628   C     0.50000   0.71059   0.64198   0.00000  Uiso   1.00
C629   C     0.75000   0.96059   0.35802   0.00000  Uiso   1.00
C630   C     0.75000   0.53941   0.64198   0.00000  Uiso   1.00
C631   C     0.75000   0.53941   0.35802   0.00000  Uiso   1.00
C632   C     0.75000   0.96059   0.64198   0.00000  Uiso   1.00
C633   C     0.89038   0.64139   0.45781   0.00000  Uiso   1.00
C634   C     0.60962   0.85861   0.54219   0.00000  Uiso   1.00
C635   C     0.60962   0.85861   0.45781   0.00000  Uiso   1.00
C636   C     0.94028   0.80908   0.50000   0.00000  Uiso   1.00
C637   C     0.89038   0.64139   0.54219   0.00000  Uiso   1.00
C638   C     0.60962   0.64139   0.54219   0.00000  Uiso   1.00
C639   C     0.89038   0.85861   0.45781   0.00000  Uiso   1.00
C640   C     0.89038   0.85861   0.54219   0.00000  Uiso   1.00
C641   C     0.60962   0.64139   0.45781   0.00000  Uiso   1.00
C642   C     0.64038   0.89139   0.45781   0.00000  Uiso   1.00
C643   C     0.85962   0.60861   0.54219   0.00000  Uiso   1.00
C644   C     0.85962   0.60861   0.45781   0.00000  Uiso   1.00
C645   C     0.64038   0.89139   0.54219   0.00000  Uiso   1.00
C646   C     0.85962   0.89139   0.54219   0.00000  Uiso   1.00
C647   C     0.94028   0.69092   0.50000   0.00000  Uiso   1.00
C648   C     0.64038   0.60861   0.45781   0.00000  Uiso   1.00
C649   C     0.64038   0.60861   0.54219   0.00000  Uiso   1.00
C650   C     0.85962   0.89139   0.45781   0.00000  Uiso   1.00
C651   C     0.59349   0.84229   0.50000   0.00000  Uiso   1.00
C652   C     0.90651   0.65772   0.50000   0.00000  Uiso   1.00
C653   C     0.90651   0.84229   0.50000   0.00000  Uiso   1.00
C654   C     0.59349   0.65772   0.50000   0.00000  Uiso   1.00
C655   C     0.84349   0.59229   0.50000   0.00000  Uiso   1.00
C656   C     0.65651   0.90772   0.50000   0.00000  Uiso   1.00
C657   C     0.65651   0.59229   0.50000   0.00000  Uiso   1.00
C658   C     0.55973   0.80908   0.50000   0.00000  Uiso   1.00
C659   C     0.84349   0.90772   0.50000   0.00000  Uiso   1.00
C660   C     0.80973   0.94092   0.50000   0.00000  Uiso   1.00
C661   C     0.69028   0.55908   0.50000   0.00000  Uiso   1.00
C662   C     0.69028   0.94092   0.50000   0.00000  Uiso   1.00
C663   C     0.80973   0.55908   0.50000   0.00000  Uiso   1.00
C664   C     0.50000   0.71059   0.35802   0.00000  Uiso   1.00
Cu665  Cu    0.50000   0.75000   0.54689   0.00000  Uiso   1.00
Cu666  Cu    0.50000   0.75000   0.45311   0.00000  Uiso   1.00
Cu667  Cu    0.75000   0.50000   0.54689   0.00000  Uiso   1.00
Cu668  Cu    0.75000   0.50000   0.45311   0.00000  Uiso   1.00
F669   F     0.90379   0.65717   0.41617   0.00000  Uiso   1.00
F670   F     0.84621   0.59284   0.58383   0.00000  Uiso   1.00
F671   F     0.84621   0.59284   0.41617   0.00000  Uiso   1.00
F672   F     0.65379   0.90717   0.58383   0.00000  Uiso   1.00
F673   F     0.84621   0.90717   0.58383   0.00000  Uiso   1.00
F674   F     0.65379   0.59284   0.41617   0.00000  Uiso   1.00
F675   F     0.65379   0.59284   0.58383   0.00000  Uiso   1.00
F676   F     0.84621   0.90717   0.41617   0.00000  Uiso   1.00
F677   F     0.59621   0.84284   0.58383   0.00000  Uiso   1.00
F678   F     0.59621   0.84284   0.41617   0.00000  Uiso   1.00
F679   F     0.90379   0.65717   0.58383   0.00000  Uiso   1.00
F680   F     0.59621   0.65717   0.58383   0.00000  Uiso   1.00
F681   F     0.90379   0.84284   0.41617   0.00000  Uiso   1.00
F682   F     0.90379   0.84284   0.58383   0.00000  Uiso   1.00
F683   F     0.59621   0.65717   0.41617   0.00000  Uiso   1.00
F684   F     0.65379   0.90717   0.41617   0.00000  Uiso   1.00
N685   N     0.50000   0.75000   0.61736   0.00000  Uiso   1.00
N686   N     0.50000   0.75000   0.38264   0.00000  Uiso   1.00
N687   N     0.75000   0.50000   0.61736   0.00000  Uiso   1.00
N688   N     0.75000   0.50000   0.38264   0.00000  Uiso   1.00
O689   O     0.54509   0.70491   0.53958   0.00000  Uiso   1.00
O690   O     0.70492   0.54509   0.46042   0.00000  Uiso   1.00
O691   O     0.70492   0.54509   0.53958   0.00000  Uiso   1.00
O692   O     0.79509   0.95491   0.46042   0.00000  Uiso   1.00
O693   O     0.70492   0.95491   0.46042   0.00000  Uiso   1.00
O694   O     0.79509   0.54509   0.53958   0.00000  Uiso   1.00
O695   O     0.79509   0.54509   0.46042   0.00000  Uiso   1.00
O696   O     0.70492   0.95491   0.53958   0.00000  Uiso   1.00
O697   O     0.95492   0.79509   0.46042   0.00000  Uiso   1.00
O698   O     0.95492   0.79509   0.53958   0.00000  Uiso   1.00
O699   O     0.54509   0.70491   0.46042   0.00000  Uiso   1.00
O700   O     0.95492   0.70491   0.46042   0.00000  Uiso   1.00
O701   O     0.54509   0.79509   0.53958   0.00000  Uiso   1.00
O702   O     0.54509   0.79509   0.46042   0.00000  Uiso   1.00
O703   O     0.95492   0.70491   0.53958   0.00000  Uiso   1.00
O704   O     0.79509   0.95491   0.53958   0.00000  Uiso   1.00
Br705  Br    0.00000   0.15375   0.72287   0.00000  Uiso   1.00
Br706  Br    0.00000   0.34625   0.94380   0.00000  Uiso   1.00
Br707  Br    0.00000   0.34625   0.72287   0.00000  Uiso   1.00
Br708  Br    0.00000   0.15375   0.94380   0.00000  Uiso   1.00
Br709  Br    0.25000   0.40375   0.72287   0.00000  Uiso   1.00
Br710  Br    0.25000   0.09625   0.94380   0.00000  Uiso   1.00
Br711  Br    0.25000   0.09625   0.72287   0.00000  Uiso   1.00
Br712  Br    0.25000   0.40375   0.94380   0.00000  Uiso   1.00
C713   C     0.05973   0.19092   0.83333   0.00000  Uiso   1.00
C714   C     0.00000   0.28941   0.97531   0.00000  Uiso   1.00
C715   C     0.00000   0.28941   0.69136   0.00000  Uiso   1.00
C716   C     0.00000   0.21059   0.97531   0.00000  Uiso   1.00
C717   C     0.25000   0.46059   0.69136   0.00000  Uiso   1.00
C718   C     0.25000   0.03941   0.97531   0.00000  Uiso   1.00
C719   C     0.25000   0.03941   0.69136   0.00000  Uiso   1.00
C720   C     0.25000   0.46059   0.97531   0.00000  Uiso   1.00
C721   C     0.39038   0.14139   0.79115   0.00000  Uiso   1.00
C722   C     0.10962   0.35861   0.87552   0.00000  Uiso   1.00
C723   C     0.10962   0.35861   0.79115   0.00000  Uiso   1.00
C724   C     0.44028   0.30908   0.83333   0.00000  Uiso   1.00
C725   C     0.39038   0.14139   0.87552   0.00000  Uiso   1.00
C726   C     0.10962   0.14139   0.87552   0.00000  Uiso   1.00
C727   C     0.39038   0.35861   0.79115   0.00000  Uiso   1.00
C728   C     0.39038   0.35861   0.87552   0.00000  Uiso   1.00
C729   C     0.10962   0.14139   0.79115   0.00000  Uiso   1.00
C730   C     0.14038   0.39139   0.79115   0.00000  Uiso   1.00
C731   C     0.35962   0.10861   0.87552   0.00000  Uiso   1.00
C732   C     0.35962   0.10861   0.79115   0.00000  Uiso   1.00
C733   C     0.14038   0.39139   0.87552   0.00000  Uiso   1.00
C734   C     0.35962   0.39139   0.87552   0.00000  Uiso   1.00
C735   C     0.44028   0.19092   0.83333   0.00000  Uiso   1.00
C736   C     0.14038   0.10861   0.79115   0.00000  Uiso   1.00
C737   C     0.14038   0.10861   0.87552   0.00000  Uiso   1.00
C738   C     0.35962   0.39139   0.79115   0.00000  Uiso   1.00
C739   C     0.09349   0.34229   0.83333   0.00000  Uiso   1.00
C740   C     0.40651   0.15772   0.83333   0.00000  Uiso   1.00
C741   C     0.40651   0.34229   0.83333   0.00000  Uiso   1.00
C742   C     0.09349   0.15772   0.83333   0.00000  Uiso   1.00
C743   C     0.34349   0.09229   0.83333   0.00000  Uiso   1.00
C744   C     0.15651   0.40772   0.83333   0.00000  Uiso   1.00
C745   C     0.15651   0.09229   0.83333   0.00000  Uiso   1.00
C746   C     0.05973   0.30908   0.83333   0.00000  Uiso   1.00
C747   C     0.34349   0.40772   0.83333   0.00000  Uiso   1.00
C748   C     0.30973   0.44092   0.83333   0.00000  Uiso   1.00
C749   C     0.19028   0.05908   0.83333   0.00000  Uiso   1.00
C750   C     0.19028   0.44092   0.83333   0.00000  Uiso   1.00
C751   C     0.30973   0.05908   0.83333   0.00000  Uiso   1.00
C752   C     0.00000   0.21059   0.69136   0.00000  Uiso   1.00
Cu753  Cu    0.00000   0.25000   0.88022   0.00000  Uiso   1.00
Cu754  Cu    0.00000   0.25000   0.78645   0.00000  Uiso   1.00
Cu755  Cu    0.25000   0.00000   0.88022   0.00000  Uiso   1.00
Cu756  Cu    0.25000   0.00000   0.78645   0.00000  Uiso   1.00
F757   F     0.40379   0.15717   0.74951   0.00000  Uiso   1.00
F758   F     0.34621   0.09284   0.91716   0.00000  Uiso   1.00
F759   F     0.34621   0.09284   0.74951   0.00000  Uiso   1.00
F760   F     0.15379   0.40717   0.91716   0.00000  Uiso   1.00
F761   F     0.34621   0.40717   0.91716   0.00000  Uiso   1.00
F762   F     0.15379   0.09284   0.74951   0.00000  Uiso   1.00
F763   F     0.15379   0.09284   0.91716   0.00000  Uiso   1.00
F764   F     0.34621   0.40717   0.74951   0.00000  Uiso   1.00
F765   F     0.09621   0.34284   0.91716   0.00000  Uiso   1.00
F766   F     0.09621   0.34284   0.74951   0.00000  Uiso   1.00
F767   F     0.40379   0.15717   0.91716   0.00000  Uiso   1.00
F768   F     0.09621   0.15717   0.91716   0.00000  Uiso   1.00
F769   F     0.40379   0.34284   0.74951   0.00000  Uiso   1.00
F770   F     0.40379   0.34284   0.91716   0.00000  Uiso   1.00
F771   F     0.09621   0.15717   0.74951   0.00000  Uiso   1.00
F772   F     0.15379   0.40717   0.74951   0.00000  Uiso   1.00
N773   N     0.00000   0.25000   0.95069   0.00000  Uiso   1.00
N774   N     0.00000   0.25000   0.71598   0.00000  Uiso   1.00
N775   N     0.25000   0.00000   0.95069   0.00000  Uiso   1.00
N776   N     0.25000   0.00000   0.71598   0.00000  Uiso   1.00
O777   O     0.04509   0.20491   0.87291   0.00000  Uiso   1.00
O778   O     0.20492   0.04509   0.79375   0.00000  Uiso   1.00
O779   O     0.20492   0.04509   0.87291   0.00000  Uiso   1.00
O780   O     0.29509   0.45491   0.79375   0.00000  Uiso   1.00
O781   O     0.20492   0.45491   0.79375   0.00000  Uiso   1.00
O782   O     0.29509   0.04509   0.87291   0.00000  Uiso   1.00
O783   O     0.29509   0.04509   0.79375   0.00000  Uiso   1.00
O784   O     0.20492   0.45491   0.87291   0.00000  Uiso   1.00
O785   O     0.45492   0.29509   0.79375   0.00000  Uiso   1.00
O786   O     0.45492   0.29509   0.87291   0.00000  Uiso   1.00
O787   O     0.04509   0.20491   0.79375   0.00000  Uiso   1.00
O788   O     0.45492   0.20491   0.79375   0.00000  Uiso   1.00
O789   O     0.04509   0.29509   0.87291   0.00000  Uiso   1.00
O790   O     0.04509   0.29509   0.79375   0.00000  Uiso   1.00
O791   O     0.45492   0.20491   0.87291   0.00000  Uiso   1.00
O792   O     0.29509   0.45491   0.87291   0.00000  Uiso   1.00
Br793  Br    0.50000   0.15375   0.72287   0.00000  Uiso   1.00
Br794  Br    0.50000   0.34625   0.94380   0.00000  Uiso   1.00
Br795  Br    0.50000   0.34625   0.72287   0.00000  Uiso   1.00
Br796  Br    0.50000   0.15375   0.94380   0.00000  Uiso   1.00
Br797  Br    0.75000   0.40375   0.72287   0.00000  Uiso   1.00
Br798  Br    0.75000   0.09625   0.94380   0.00000  Uiso   1.00
Br799  Br    0.75000   0.09625   0.72287   0.00000  Uiso   1.00
Br800  Br    0.75000   0.40375   0.94380   0.00000  Uiso   1.00
C801   C     0.55973   0.19092   0.83333   0.00000  Uiso   1.00
C802   C     0.50000   0.28941   0.97531   0.00000  Uiso   1.00
C803   C     0.50000   0.28941   0.69136   0.00000  Uiso   1.00
C804   C     0.50000   0.21059   0.97531   0.00000  Uiso   1.00
C805   C     0.75000   0.46059   0.69136   0.00000  Uiso   1.00
C806   C     0.75000   0.03941   0.97531   0.00000  Uiso   1.00
C807   C     0.75000   0.03941   0.69136   0.00000  Uiso   1.00
C808   C     0.75000   0.46059   0.97531   0.00000  Uiso   1.00
C809   C     0.89038   0.14139   0.79115   0.00000  Uiso   1.00
C810   C     0.60962   0.35861   0.87552   0.00000  Uiso   1.00
C811   C     0.60962   0.35861   0.79115   0.00000  Uiso   1.00
C812   C     0.94028   0.30908   0.83333   0.00000  Uiso   1.00
C813   C     0.89038   0.14139   0.87552   0.00000  Uiso   1.00
C814   C     0.60962   0.14139   0.87552   0.00000  Uiso   1.00
C815   C     0.89038   0.35861   0.79115   0.00000  Uiso   1.00
C816   C     0.89038   0.35861   0.87552   0.00000  Uiso   1.00
C817   C     0.60962   0.14139   0.79115   0.00000  Uiso   1.00
C818   C     0.64038   0.39139   0.79115   0.00000  Uiso   1.00
C819   C     0.85962   0.10861   0.87552   0.00000  Uiso   1.00
C820   C     0.85962   0.10861   0.79115   0.00000  Uiso   1.00
C821   C     0.64038   0.39139   0.87552   0.00000  Uiso   1.00
C822   C     0.85962   0.39139   0.87552   0.00000  Uiso   1.00
C823   C     0.94028   0.19092   0.83333   0.00000  Uiso   1.00
C824   C     0.64038   0.10861   0.79115   0.00000  Uiso   1.00
C825   C     0.64038   0.10861   0.87552   0.00000  Uiso   1.00
C826   C     0.85962   0.39139   0.79115   0.00000  Uiso   1.00
C827   C     0.59349   0.34229   0.83333   0.00000  Uiso   1.00
C828   C     0.90651   0.15772   0.83333   0.00000  Uiso   1.00
C829   C     0.90651   0.34229   0.83333   0.00000  Uiso   1.00
C830   C     0.59349   0.15772   0.83333   0.00000  Uiso   1.00
C831   C     0.84349   0.09229   0.83333   0.00000  Uiso   1.00
C832   C     0.65651   0.40772   0.83333   0.00000  Uiso   1.00
C833   C     0.65651   0.09229   0.83333   0.00000  Uiso   1.00
C834   C     0.55973   0.30908   0.83333   0.00000  Uiso   1.00
C835   C     0.84349   0.40772   0.83333   0.00000  Uiso   1.00
C836   C     0.80973   0.44092   0.83333   0.00000  Uiso   1.00
C837   C     0.69028   0.05908   0.83333   0.00000  Uiso   1.00
C838   C     0.69028   0.44092   0.83333   0.00000  Uiso   1.00
C839   C     0.80973   0.05908   0.83333   0.00000  Uiso   1.00
C840   C     0.50000   0.21059   0.69136   0.00000  Uiso   1.00
Cu841  Cu    0.50000   0.25000   0.88022   0.00000  Uiso   1.00
Cu842  Cu    0.50000   0.25000   0.78645   0.00000  Uiso   1.00
Cu843  Cu    0.75000   0.00000   0.88022   0.00000  Uiso   1.00
Cu844  Cu    0.75000   0.00000   0.78645   0.00000  Uiso   1.00
F845   F     0.90379   0.15717   0.74951   0.00000  Uiso   1.00
F846   F     0.84621   0.09284   0.91716   0.00000  Uiso   1.00
F847   F     0.84621   0.09284   0.74951   0.00000  Uiso   1.00
F848   F     0.65379   0.40717   0.91716   0.00000  Uiso   1.00
F849   F     0.84621   0.40717   0.91716   0.00000  Uiso   1.00
F850   F     0.65379   0.09284   0.74951   0.00000  Uiso   1.00
F851   F     0.65379   0.09284   0.91716   0.00000  Uiso   1.00
F852   F     0.84621   0.40717   0.74951   0.00000  Uiso   1.00
F853   F     0.59621   0.34284   0.91716   0.00000  Uiso   1.00
F854   F     0.59621   0.34284   0.74951   0.00000  Uiso   1.00
F855   F     0.90379   0.15717   0.91716   0.00000  Uiso   1.00
F856   F     0.59621   0.15717   0.91716   0.00000  Uiso   1.00
F857   F     0.90379   0.34284   0.74951   0.00000  Uiso   1.00
F858   F     0.90379   0.34284   0.91716   0.00000  Uiso   1.00
F859   F     0.59621   0.15717   0.74951   0.00000  Uiso   1.00
F860   F     0.65379   0.40717   0.74951   0.00000  Uiso   1.00
N861   N     0.50000   0.25000   0.95069   0.00000  Uiso   1.00
N862   N     0.50000   0.25000   0.71598   0.00000  Uiso   1.00
N863   N     0.75000   0.00000   0.95069   0.00000  Uiso   1.00
N864   N     0.75000   0.00000   0.71598   0.00000  Uiso   1.00
O865   O     0.54509   0.20491   0.87291   0.00000  Uiso   1.00
O866   O     0.70492   0.04509   0.79375   0.00000  Uiso   1.00
O867   O     0.70492   0.04509   0.87291   0.00000  Uiso   1.00
O868   O     0.79509   0.45491   0.79375   0.00000  Uiso   1.00
O869   O     0.70492   0.45491   0.79375   0.00000  Uiso   1.00
O870   O     0.79509   0.04509   0.87291   0.00000  Uiso   1.00
O871   O     0.79509   0.04509   0.79375   0.00000  Uiso   1.00
O872   O     0.70492   0.45491   0.87291   0.00000  Uiso   1.00
O873   O     0.95492   0.29509   0.79375   0.00000  Uiso   1.00
O874   O     0.95492   0.29509   0.87291   0.00000  Uiso   1.00
O875   O     0.54509   0.20491   0.79375   0.00000  Uiso   1.00
O876   O     0.95492   0.20491   0.79375   0.00000  Uiso   1.00
O877   O     0.54509   0.29509   0.87291   0.00000  Uiso   1.00
O878   O     0.54509   0.29509   0.79375   0.00000  Uiso   1.00
O879   O     0.95492   0.20491   0.87291   0.00000  Uiso   1.00
O880   O     0.79509   0.45491   0.87291   0.00000  Uiso   1.00
Br881  Br    0.00000   0.65375   0.72287   0.00000  Uiso   1.00
Br882  Br    0.00000   0.84625   0.94380   0.00000  Uiso   1.00
Br883  Br    0.00000   0.84625   0.72287   0.00000  Uiso   1.00
Br884  Br    0.00000   0.65375   0.94380   0.00000  Uiso   1.00
Br885  Br    0.25000   0.90375   0.72287   0.00000  Uiso   1.00
Br886  Br    0.25000   0.59625   0.94380   0.00000  Uiso   1.00
Br887  Br    0.25000   0.59625   0.72287   0.00000  Uiso   1.00
Br888  Br    0.25000   0.90375   0.94380   0.00000  Uiso   1.00
C889   C     0.05973   0.69092   0.83333   0.00000  Uiso   1.00
C890   C     0.00000   0.78941   0.97531   0.00000  Uiso   1.00
C891   C     0.00000   0.78941   0.69136   0.00000  Uiso   1.00
C892   C     0.00000   0.71059   0.97531   0.00000  Uiso   1.00
C893   C     0.25000   0.96059   0.69136   0.00000  Uiso   1.00
C894   C     0.25000   0.53941   0.97531   0.00000  Uiso   1.00
C895   C     0.25000   0.53941   0.69136   0.00000  Uiso   1.00
C896   C     0.25000   0.96059   0.97531   0.00000  Uiso   1.00
C897   C     0.39038   0.64139   0.79115   0.00000  Uiso   1.00
C898   C     0.10962   0.85861   0.87552   0.00000  Uiso   1.00
C899   C     0.10962   0.85861   0.79115   0.00000  Uiso   1.00
C900   C     0.44028   0.80908   0.83333   0.00000  Uiso   1.00
C901   C     0.39038   0.64139   0.87552   0.00000  Uiso   1.00
C902   C     0.10962   0.64139   0.87552   0.00000  Uiso   1.00
C903   C     0.39038   0.85861   0.79115   0.00000  Uiso   1.00
C904   C     0.39038   0.85861   0.87552   0.00000  Uiso   1.00
C905   C     0.10962   0.64139   0.79115   0.00000  Uiso   1.00
C906   C     0.14038   0.89139   0.79115   0.00000  Uiso   1.00
C907   C     0.35962   0.60861   0.87552   0.00000  Uiso   1.00
C908   C     0.35962   0.60861   0.79115   0.00000  Uiso   1.00
C909   C     0.14038   0.89139   0.87552   0.00000  Uiso   1.00
C910   C     0.35962   0.89139   0.87552   0.00000  Uiso   1.00
C911   C     0.44028   0.69092   0.83333   0.00000  Uiso   1.00
C912   C     0.14038   0.60861   0.79115   0.00000  Uiso   1.00
C913   C     0.14038   0.60861   0.87552   0.00000  Uiso   1.00
C914   C     0.35962   0.89139   0.79115   0.00000  Uiso   1.00
C915   C     0.09349   0.84229   0.83333   0.00000  Uiso   1.00
C916   C     0.40651   0.65772   0.83333   0.00000  Uiso   1.00
C917   C     0.40651   0.84229   0.83333   0.00000  Uiso   1.00
C918   C     0.09349   0.65772   0.83333   0.00000  Uiso   1.00
C919   C     0.34349   0.59229   0.83333   0.00000  Uiso   1.00
C920   C     0.15651   0.90772   0.83333   0.00000  Uiso   1.00
C921   C     0.15651   0.59229   0.83333   0.00000  Uiso   1.00
C922   C     0.05973   0.80908   0.83333   0.00000  Uiso   1.00
C923   C     0.34349   0.90772   0.83333   0.00000  Uiso   1.00
C924   C     0.30973   0.94092   0.83333   0.00000  Uiso   1.00
C925   C     0.19028   0.55908   0.83333   0.00000  Uiso   1.00
C926   C     0.19028   0.94092   0.83333   0.00000  Uiso   1.00
C927   C     0.30973   0.55908   0.83333   0.00000  Uiso   1.00
C928   C     0.00000   0.71059   0.69136   0.00000  Uiso   1.00
Cu929  Cu    0.00000   0.75000   0.88022   0.00000  Uiso   1.00
Cu930  Cu    0.00000   0.75000   0.78645   0.00000  Uiso   1.00
Cu931  Cu    0.25000   0.50000   0.88022   0.00000  Uiso   1.00
Cu932  Cu    0.25000   0.50000   0.78645   0.00000  Uiso   1.00
F933   F     0.40379   0.65717   0.74951   0.00000  Uiso   1.00
F934   F     0.34621   0.59284   0.91716   0.00000  Uiso   1.00
F935   F     0.34621   0.59284   0.74951   0.00000  Uiso   1.00
F936   F     0.15379   0.90717   0.91716   0.00000  Uiso   1.00
F937   F     0.34621   0.90717   0.91716   0.00000  Uiso   1.00
F938   F     0.15379   0.59284   0.74951   0.00000  Uiso   1.00
F939   F     0.15379   0.59284   0.91716   0.00000  Uiso   1.00
F940   F     0.34621   0.90717   0.74951   0.00000  Uiso   1.00
F941   F     0.09621   0.84284   0.91716   0.00000  Uiso   1.00
F942   F     0.09621   0.84284   0.74951   0.00000  Uiso   1.00
F943   F     0.40379   0.65717   0.91716   0.00000  Uiso   1.00
F944   F     0.09621   0.65717   0.91716   0.00000  Uiso   1.00
F945   F     0.40379   0.84284   0.74951   0.00000  Uiso   1.00
F946   F     0.40379   0.84284   0.91716   0.00000  Uiso   1.00
F947   F     0.09621   0.65717   0.74951   0.00000  Uiso   1.00
F948   F     0.15379   0.90717   0.74951   0.00000  Uiso   1.00
N949   N     0.00000   0.75000   0.95069   0.00000  Uiso   1.00
N950   N     0.00000   0.75000   0.71598   0.00000  Uiso   1.00
N951   N     0.25000   0.50000   0.95069   0.00000  Uiso   1.00
N952   N     0.25000   0.50000   0.71598   0.00000  Uiso   1.00
O953   O     0.04509   0.70491   0.87291   0.00000  Uiso   1.00
O954   O     0.20492   0.54509   0.79375   0.00000  Uiso   1.00
O955   O     0.20492   0.54509   0.87291   0.00000  Uiso   1.00
O956   O     0.29509   0.95491   0.79375   0.00000  Uiso   1.00
O957   O     0.20492   0.95491   0.79375   0.00000  Uiso   1.00
O958   O     0.29509   0.54509   0.87291   0.00000  Uiso   1.00
O959   O     0.29509   0.54509   0.79375   0.00000  Uiso   1.00
O960   O     0.20492   0.95491   0.87291   0.00000  Uiso   1.00
O961   O     0.45492   0.79509   0.79375   0.00000  Uiso   1.00
O962   O     0.45492   0.79509   0.87291   0.00000  Uiso   1.00
O963   O     0.04509   0.70491   0.79375   0.00000  Uiso   1.00
O964   O     0.45492   0.70491   0.79375   0.00000  Uiso   1.00
O965   O     0.04509   0.79509   0.87291   0.00000  Uiso   1.00
O966   O     0.04509   0.79509   0.79375   0.00000  Uiso   1.00
O967   O     0.45492   0.70491   0.87291   0.00000  Uiso   1.00
O968   O     0.29509   0.95491   0.87291   0.00000  Uiso   1.00
Br969  Br    0.50000   0.65375   0.72287   0.00000  Uiso   1.00
Br970  Br    0.50000   0.84625   0.94380   0.00000  Uiso   1.00
Br971  Br    0.50000   0.84625   0.72287   0.00000  Uiso   1.00
Br972  Br    0.50000   0.65375   0.94380   0.00000  Uiso   1.00
Br973  Br    0.75000   0.90375   0.72287   0.00000  Uiso   1.00
Br974  Br    0.75000   0.59625   0.94380   0.00000  Uiso   1.00
Br975  Br    0.75000   0.59625   0.72287   0.00000  Uiso   1.00
Br976  Br    0.75000   0.90375   0.94380   0.00000  Uiso   1.00
C977   C     0.55973   0.69092   0.83333   0.00000  Uiso   1.00
C978   C     0.50000   0.78941   0.97531   0.00000  Uiso   1.00
C979   C     0.50000   0.78941   0.69136   0.00000  Uiso   1.00
C980   C     0.50000   0.71059   0.97531   0.00000  Uiso   1.00
C981   C     0.75000   0.96059   0.69136   0.00000  Uiso   1.00
C982   C     0.75000   0.53941   0.97531   0.00000  Uiso   1.00
C983   C     0.75000   0.53941   0.69136   0.00000  Uiso   1.00
C984   C     0.75000   0.96059   0.97531   0.00000  Uiso   1.00
C985   C     0.89038   0.64139   0.79115   0.00000  Uiso   1.00
C986   C     0.60962   0.85861   0.87552   0.00000  Uiso   1.00
C987   C     0.60962   0.85861   0.79115   0.00000  Uiso   1.00
C988   C     0.94028   0.80908   0.83333   0.00000  Uiso   1.00
C989   C     0.89038   0.64139   0.87552   0.00000  Uiso   1.00
C990   C     0.60962   0.64139   0.87552   0.00000  Uiso   1.00
C991   C     0.89038   0.85861   0.79115   0.00000  Uiso   1.00
C992   C     0.89038   0.85861   0.87552   0.00000  Uiso   1.00
C993   C     0.60962   0.64139   0.79115   0.00000  Uiso   1.00
C994   C     0.64038   0.89139   0.79115   0.00000  Uiso   1.00
C995   C     0.85962   0.60861   0.87552   0.00000  Uiso   1.00
C996   C     0.85962   0.60861   0.79115   0.00000  Uiso   1.00
C997   C     0.64038   0.89139   0.87552   0.00000  Uiso   1.00
C998   C     0.85962   0.89139   0.87552   0.00000  Uiso   1.00
C999   C     0.94028   0.69092   0.83333   0.00000  Uiso   1.00
C1000  C     0.64038   0.60861   0.79115   0.00000  Uiso   1.00
C1001  C     0.64038   0.60861   0.87552   0.00000  Uiso   1.00
C1002  C     0.85962   0.89139   0.79115   0.00000  Uiso   1.00
C1003  C     0.59349   0.84229   0.83333   0.00000  Uiso   1.00
C1004  C     0.90651   0.65772   0.83333   0.00000  Uiso   1.00
C1005  C     0.90651   0.84229   0.83333   0.00000  Uiso   1.00
C1006  C     0.59349   0.65772   0.83333   0.00000  Uiso   1.00
C1007  C     0.84349   0.59229   0.83333   0.00000  Uiso   1.00
C1008  C     0.65651   0.90772   0.83333   0.00000  Uiso   1.00
C1009  C     0.65651   0.59229   0.83333   0.00000  Uiso   1.00
C1010  C     0.55973   0.80908   0.83333   0.00000  Uiso   1.00
C1011  C     0.84349   0.90772   0.83333   0.00000  Uiso   1.00
C1012  C     0.80973   0.94092   0.83333   0.00000  Uiso   1.00
C1013  C     0.69028   0.55908   0.83333   0.00000  Uiso   1.00
C1014  C     0.69028   0.94092   0.83333   0.00000  Uiso   1.00
C1015  C     0.80973   0.55908   0.83333   0.00000  Uiso   1.00
C1016  C     0.50000   0.71059   0.69136   0.00000  Uiso   1.00
Cu1017 Cu    0.50000   0.75000   0.88022   0.00000  Uiso   1.00
Cu1018 Cu    0.50000   0.75000   0.78645   0.00000  Uiso   1.00
Cu1019 Cu    0.75000   0.50000   0.88022   0.00000  Uiso   1.00
Cu1020 Cu    0.75000   0.50000   0.78645   0.00000  Uiso   1.00
F1021  F     0.90379   0.65717   0.74951   0.00000  Uiso   1.00
F1022  F     0.84621   0.59284   0.91716   0.00000  Uiso   1.00
F1023  F     0.84621   0.59284   0.74951   0.00000  Uiso   1.00
F1024  F     0.65379   0.90717   0.91716   0.00000  Uiso   1.00
F1025  F     0.84621   0.90717   0.91716   0.00000  Uiso   1.00
F1026  F     0.65379   0.59284   0.74951   0.00000  Uiso   1.00
F1027  F     0.65379   0.59284   0.91716   0.00000  Uiso   1.00
F1028  F     0.84621   0.90717   0.74951   0.00000  Uiso   1.00
F1029  F     0.59621   0.84284   0.91716   0.00000  Uiso   1.00
F1030  F     0.59621   0.84284   0.74951   0.00000  Uiso   1.00
F1031  F     0.90379   0.65717   0.91716   0.00000  Uiso   1.00
F1032  F     0.59621   0.65717   0.91716   0.00000  Uiso   1.00
F1033  F     0.90379   0.84284   0.74951   0.00000  Uiso   1.00
F1034  F     0.90379   0.84284   0.91716   0.00000  Uiso   1.00
F1035  F     0.59621   0.65717   0.74951   0.00000  Uiso   1.00
F1036  F     0.65379   0.90717   0.74951   0.00000  Uiso   1.00
N1037  N     0.50000   0.75000   0.95069   0.00000  Uiso   1.00
N1038  N     0.50000   0.75000   0.71598   0.00000  Uiso   1.00
N1039  N     0.75000   0.50000   0.95069   0.00000  Uiso   1.00
N1040  N     0.75000   0.50000   0.71598   0.00000  Uiso   1.00
O1041  O     0.54509   0.70491   0.87291   0.00000  Uiso   1.00
O1042  O     0.70492   0.54509   0.79375   0.00000  Uiso   1.00
O1043  O     0.70492   0.54509   0.87291   0.00000  Uiso   1.00
O1044  O     0.79509   0.95491   0.79375   0.00000  Uiso   1.00
O1045  O     0.70492   0.95491   0.79375   0.00000  Uiso   1.00
O1046  O     0.79509   0.54509   0.87291   0.00000  Uiso   1.00
O1047  O     0.79509   0.54509   0.79375   0.00000  Uiso   1.00
O1048  O     0.70492   0.95491   0.87291   0.00000  Uiso   1.00
O1049  O     0.95492   0.79509   0.79375   0.00000  Uiso   1.00
O1050  O     0.95492   0.79509   0.87291   0.00000  Uiso   1.00
O1051  O     0.54509   0.70491   0.79375   0.00000  Uiso   1.00
O1052  O     0.95492   0.70491   0.79375   0.00000  Uiso   1.00
O1053  O     0.54509   0.79509   0.87291   0.00000  Uiso   1.00
O1054  O     0.54509   0.79509   0.79375   0.00000  Uiso   1.00
O1055  O     0.95492   0.70491   0.87291   0.00000  Uiso   1.00
O1056  O     0.79509   0.95491   0.87291   0.00000  Uiso   1.00
loop_
_geom_bond_atom_site_label_1
_geom_bond_atom_site_label_2
_geom_bond_distance
_geom_bond_site_symmetry_2
_ccdc_geom_bond_type
Br1    C48     1.927   .     S
Br2    C10     1.927   .     S
Br3    C11     1.927   .     S
Br4    C12     1.927   .     S
Br5    C13     1.927   .     S
Br6    C14     1.927   .     S
Br7    C15     1.927   .     S
Br8    C16     1.927   .     S
C9     O73     1.300   .     A
C9     O83     1.300   .     A
C9     C38     1.460   .     S
C10    N69     1.375   .     A
C10    C363    1.423   .     S
C11    N70     1.375   .     A
C11    C714    1.423   1_554 S
C12    N69     1.375   .     A
C12    C400    1.423   .     S
C13    C720    1.423   1_554 S
C13    N248    1.375   .     S
C14    N71     1.375   .     A
C14    C367    1.423   .     S
C15    N72     1.375   .     A
C15    C718    1.423   1_554 S
C16    C365    1.423   .     S
C16    N247    1.375   .     S
C17    C36     1.406   .     A
C17    F53     1.357   .     S
C17    C28     1.382   .     A
C18    C35     1.406   .     A
C18    C29     1.382   .     A
C18    F61     1.357   .     S
C19    F62     1.357   .     S
C19    C26     1.382   .     A
C19    C35     1.406   .     A
C20    O82     1.300   .     A
C20    O81     1.300   .     A
C20    C37     1.460   .     S
C21    C36     1.406   .     A
C21    C27     1.382   .     A
C21    F63     1.357   .     S
C22    C38     1.406   .     A
C22    C33     1.382   .     A
C22    F64     1.357   .     S
C23    C37     1.406   .     A
C23    C34     1.382   .     A
C23    F65     1.357   .     S
C24    F66     1.357   .     S
C24    C37     1.406   .     A
C24    C30     1.382   .     A
C25    F67     1.357   .     S
C25    C32     1.382   .     A
C25    C38     1.406   .     A
C26    F68     1.357   .     S
C26    C40     1.406   .     A
C27    C39     1.406   .     A
C27    F54     1.357   .     S
C28    F55     1.357   .     S
C28    C39     1.406   .     A
C29    F56     1.357   .     S
C29    C40     1.406   .     A
C30    F57     1.357   .     S
C30    C43     1.406   .     A
C31    O87     1.300   .     A
C31    O84     1.300   .     A
C31    C36     1.460   .     S
C32    F58     1.357   .     S
C32    C41     1.406   .     A
C33    F59     1.357   .     S
C33    C41     1.406   .     A
C34    F60     1.357   .     S
C34    C43     1.406   .     A
C35    C42     1.460   .     S
C39    C47     1.460   .     S
C40    C46     1.460   .     S
C41    C45     1.460   .     S
C42    O86     1.300   .     A
C42    O85     1.300   .     A
C43    C44     1.460   .     S
C44    O76     1.300   .     A
C44    O88     1.300   .     A
C45    O74     1.300   .     A
C45    O75     1.300   .     A
C46    O77     1.300   .     A
C46    O80     1.300   .     A
C47    O79     1.300   .     A
C47    O78     1.300   .     A
C48    N70     1.375   .     A
C48    C716    1.423   1_554 S
Cu49   N69     2.030   .     S
Cu49   O85     1.976   .     S
Cu49   O73     1.976   .     S
Cu49   Cu50    2.702   .     S
Cu49   O170    1.976   1_455 S
Cu49   O175    1.976   1_455 S
Cu50   O83     1.976   .     S
Cu50   N70     2.030   .     S
Cu50   O86     1.976   .     S
Cu50   O169    1.976   1_455 S
Cu50   O172    1.976   1_455 S
Cu51   O75     1.976   .     S
Cu51   N71     2.030   .     S
Cu51   Cu52    2.702   .     S
Cu51   O78     1.976   .     S
Cu51   O256    1.976   1_545 S
Cu51   O264    1.976   1_545 S
Cu52   O74     1.976   .     S
Cu52   O79     1.976   .     S
Cu52   N72     2.030   .     S
Cu52   O252    1.976   1_545 S
Cu52   O253    1.976   1_545 S
N71    C192    1.375   1_545 S
N72    C189    1.375   1_545 S
O76    Cu228   1.976   .     S
O77    Cu228   1.976   .     S
O80    Cu227   1.976   .     S
O81    Cu138   1.976   .     S
O82    Cu137   1.976   .     S
O84    Cu138   1.976   .     S
O87    Cu137   1.976   .     S
O88    Cu227   1.976   .     S
Br89   C136    1.927   .     S
Br90   C98     1.927   .     S
Br91   C99     1.927   .     S
Br92   C100    1.927   .     S
Br93   C101    1.927   .     S
Br94   C102    1.927   .     S
Br95   C103    1.927   .     S
Br96   C104    1.927   .     S
C97    O161    1.300   .     A
C97    O171    1.300   .     A
C97    C126    1.460   .     S
C98    N157    1.375   .     A
C98    C451    1.423   .     S
C99    N158    1.375   .     A
C99    C802    1.423   1_554 S
C100   N157    1.375   .     A
C100   C488    1.423   .     S
C101   C808    1.423   1_554 S
C101   N336    1.375   .     S
C102   N159    1.375   .     A
C102   C455    1.423   .     S
C103   N160    1.375   .     A
C103   C806    1.423   1_554 S
C104   C453    1.423   .     S
C104   N335    1.375   .     S
C105   C124    1.406   .     A
C105   F141    1.357   .     S
C105   C116    1.382   .     A
C106   C123    1.406   .     A
C106   C117    1.382   .     A
C106   F149    1.357   .     S
C107   F150    1.357   .     S
C107   C114    1.382   .     A
C107   C123    1.406   .     A
C108   O170    1.300   .     A
C108   O169    1.300   .     A
C108   C125    1.460   .     S
C109   C124    1.406   .     A
C109   C115    1.382   .     A
C109   F151    1.357   .     S
C110   C126    1.406   .     A
C110   C121    1.382   .     A
C110   F152    1.357   .     S
C111   C125    1.406   .     A
C111   C122    1.382   .     A
C111   F153    1.357   .     S
C112   F154    1.357   .     S
C112   C125    1.406   .     A
C112   C118    1.382   .     A
C113   F155    1.357   .     S
C113   C120    1.382   .     A
C113   C126    1.406   .     A
C114   F156    1.357   .     S
C114   C128    1.406   .     A
C115   C127    1.406   .     A
C115   F142    1.357   .     S
C116   F143    1.357   .     S
C116   C127    1.406   .     A
C117   F144    1.357   .     S
C117   C128    1.406   .     A
C118   F145    1.357   .     S
C118   C131    1.406   .     A
C119   O175    1.300   .     A
C119   O172    1.300   .     A
C119   C124    1.460   .     S
C120   F146    1.357   .     S
C120   C129    1.406   .     A
C121   F147    1.357   .     S
C121   C129    1.406   .     A
C122   F148    1.357   .     S
C122   C131    1.406   .     A
C123   C130    1.460   .     S
C127   C135    1.460   .     S
C128   C134    1.460   .     S
C129   C133    1.460   .     S
C130   O174    1.300   .     A
C130   O173    1.300   .     A
C131   C132    1.460   .     S
C132   O164    1.300   .     A
C132   O176    1.300   .     A
C133   O162    1.300   .     A
C133   O163    1.300   .     A
C134   O165    1.300   .     A
C134   O168    1.300   .     A
C135   O167    1.300   .     A
C135   O166    1.300   .     A
C136   N158    1.375   .     A
C136   C804    1.423   1_554 S
Cu137  N157    2.030   .     S
Cu137  O173    1.976   .     S
Cu137  O161    1.976   .     S
Cu137  Cu138   2.702   .     S
Cu138  O171    1.976   .     S
Cu138  N158    2.030   .     S
Cu138  O174    1.976   .     S
Cu139  O163    1.976   .     S
Cu139  N159    2.030   .     S
Cu139  Cu140   2.702   .     S
Cu139  O166    1.976   .     S
Cu139  O344    1.976   1_545 S
Cu139  O352    1.976   1_545 S
Cu140  O162    1.976   .     S
Cu140  O167    1.976   .     S
Cu140  N160    2.030   .     S
Cu140  O340    1.976   1_545 S
Cu140  O341    1.976   1_545 S
N159   C280    1.375   1_545 S
N160   C277    1.375   1_545 S
O164   Cu316   1.976   .     S
O165   Cu316   1.976   .     S
O168   Cu315   1.976   .     S
O169   Cu50    1.976   1_655 S
O170   Cu49    1.976   1_655 S
O172   Cu50    1.976   1_655 S
O175   Cu49    1.976   1_655 S
O176   Cu315   1.976   .     S
Br177  C224    1.927   .     S
Br178  C186    1.927   .     S
Br179  C187    1.927   .     S
Br180  C188    1.927   .     S
Br181  C189    1.927   .     S
Br182  C190    1.927   .     S
Br183  C191    1.927   .     S
Br184  C192    1.927   .     S
C185   O249    1.300   .     A
C185   O259    1.300   .     A
C185   C214    1.460   .     S
C186   N245    1.375   .     A
C186   C539    1.423   .     S
C187   N246    1.375   .     A
C187   C890    1.423   1_554 S
C188   N245    1.375   .     A
C188   C576    1.423   .     S
C189   C896    1.423   1_554 S
C189   N72     1.375   1_565 S
C190   N247    1.375   .     A
C190   C543    1.423   .     S
C191   N248    1.375   .     A
C191   C894    1.423   1_554 S
C192   C541    1.423   .     S
C192   N71     1.375   1_565 S
C193   C212    1.406   .     A
C193   F229    1.357   .     S
C193   C204    1.382   .     A
C194   C211    1.406   .     A
C194   C205    1.382   .     A
C194   F237    1.357   .     S
C195   F238    1.357   .     S
C195   C202    1.382   .     A
C195   C211    1.406   .     A
C196   O258    1.300   .     A
C196   O257    1.300   .     A
C196   C213    1.460   .     S
C197   C212    1.406   .     A
C197   C203    1.382   .     A
C197   F239    1.357   .     S
C198   C214    1.406   .     A
C198   C209    1.382   .     A
C198   F240    1.357   .     S
C199   C213    1.406   .     A
C199   C210    1.382   .     A
C199   F241    1.357   .     S
C200   F242    1.357   .     S
C200   C213    1.406   .     A
C200   C206    1.382   .     A
C201   F243    1.357   .     S
C201   C208    1.382   .     A
C201   C214    1.406   .     A
C202   F244    1.357   .     S
C202   C216    1.406   .     A
C203   C215    1.406   .     A
C203   F230    1.357   .     S
C204   F231    1.357   .     S
C204   C215    1.406   .     A
C205   F232    1.357   .     S
C205   C216    1.406   .     A
C206   F233    1.357   .     S
C206   C219    1.406   .     A
C207   O263    1.300   .     A
C207   O260    1.300   .     A
C207   C212    1.460   .     S
C208   F234    1.357   .     S
C208   C217    1.406   .     A
C209   F235    1.357   .     S
C209   C217    1.406   .     A
C210   F236    1.357   .     S
C210   C219    1.406   .     A
C211   C218    1.460   .     S
C215   C223    1.460   .     S
C216   C222    1.460   .     S
C217   C221    1.460   .     S
C218   O262    1.300   .     A
C218   O261    1.300   .     A
C219   C220    1.460   .     S
C220   O252    1.300   .     A
C220   O264    1.300   .     A
C221   O250    1.300   .     A
C221   O251    1.300   .     A
C222   O253    1.300   .     A
C222   O256    1.300   .     A
C223   O255    1.300   .     A
C223   O254    1.300   .     A
C224   N246    1.375   .     A
C224   C892    1.423   1_554 S
Cu225  N245    2.030   .     S
Cu225  O261    1.976   .     S
Cu225  O249    1.976   .     S
Cu225  Cu226   2.702   .     S
Cu225  O346    1.976   1_455 S
Cu225  O351    1.976   1_455 S
Cu226  O259    1.976   .     S
Cu226  N246    2.030   .     S
Cu226  O262    1.976   .     S
Cu226  O345    1.976   1_455 S
Cu226  O348    1.976   1_455 S
Cu227  O251    1.976   .     S
Cu227  N247    2.030   .     S
Cu227  Cu228   2.702   .     S
Cu227  O254    1.976   .     S
Cu228  O250    1.976   .     S
Cu228  O255    1.976   .     S
Cu228  N248    2.030   .     S
O252   Cu52    1.976   1_565 S
O253   Cu52    1.976   1_565 S
O256   Cu51    1.976   1_565 S
O257   Cu314   1.976   .     S
O258   Cu313   1.976   .     S
O260   Cu314   1.976   .     S
O263   Cu313   1.976   .     S
O264   Cu51    1.976   1_565 S
Br265  C312    1.927   .     S
Br266  C274    1.927   .     S
Br267  C275    1.927   .     S
Br268  C276    1.927   .     S
Br269  C277    1.927   .     S
Br270  C278    1.927   .     S
Br271  C279    1.927   .     S
Br272  C280    1.927   .     S
C273   O337    1.300   .     A
C273   O347    1.300   .     A
C273   C302    1.460   .     S
C274   N333    1.375   .     A
C274   C627    1.423   .     S
C275   N334    1.375   .     A
C275   C978    1.423   1_554 S
C276   N333    1.375   .     A
C276   C664    1.423   .     S
C277   C984    1.423   1_554 S
C277   N160    1.375   1_565 S
C278   N335    1.375   .     A
C278   C631    1.423   .     S
C279   N336    1.375   .     A
C279   C982    1.423   1_554 S
C280   C629    1.423   .     S
C280   N159    1.375   1_565 S
C281   C300    1.406   .     A
C281   F317    1.357   .     S
C281   C292    1.382   .     A
C282   C299    1.406   .     A
C282   C293    1.382   .     A
C282   F325    1.357   .     S
C283   F326    1.357   .     S
C283   C290    1.382   .     A
C283   C299    1.406   .     A
C284   O346    1.300   .     A
C284   O345    1.300   .     A
C284   C301    1.460   .     S
C285   C300    1.406   .     A
C285   C291    1.382   .     A
C285   F327    1.357   .     S
C286   C302    1.406   .     A
C286   C297    1.382   .     A
C286   F328    1.357   .     S
C287   C301    1.406   .     A
C287   C298    1.382   .     A
C287   F329    1.357   .     S
C288   F330    1.357   .     S
C288   C301    1.406   .     A
C288   C294    1.382   .     A
C289   F331    1.357   .     S
C289   C296    1.382   .     A
C289   C302    1.406   .     A
C290   F332    1.357   .     S
C290   C304    1.406   .     A
C291   C303    1.406   .     A
C291   F318    1.357   .     S
C292   F319    1.357   .     S
C292   C303    1.406   .     A
C293   F320    1.357   .     S
C293   C304    1.406   .     A
C294   F321    1.357   .     S
C294   C307    1.406   .     A
C295   O351    1.300   .     A
C295   O348    1.300   .     A
C295   C300    1.460   .     S
C296   F322    1.357   .     S
C296   C305    1.406   .     A
C297   F323    1.357   .     S
C297   C305    1.406   .     A
C298   F324    1.357   .     S
C298   C307    1.406   .     A
C299   C306    1.460   .     S
C303   C311    1.460   .     S
C304   C310    1.460   .     S
C305   C309    1.460   .     S
C306   O350    1.300   .     A
C306   O349    1.300   .     A
C307   C308    1.460   .     S
C308   O340    1.300   .     A
C308   O352    1.300   .     A
C309   O338    1.300   .     A
C309   O339    1.300   .     A
C310   O341    1.300   .     A
C310   O344    1.300   .     A
C311   O343    1.300   .     A
C311   O342    1.300   .     A
C312   N334    1.375   .     A
C312   C980    1.423   1_554 S
Cu313  N333    2.030   .     S
Cu313  O349    1.976   .     S
Cu313  O337    1.976   .     S
Cu313  Cu314   2.702   .     S
Cu314  O347    1.976   .     S
Cu314  N334    2.030   .     S
Cu314  O350    1.976   .     S
Cu315  O339    1.976   .     S
Cu315  N335    2.030   .     S
Cu315  Cu316   2.702   .     S
Cu315  O342    1.976   .     S
Cu316  O338    1.976   .     S
Cu316  O343    1.976   .     S
Cu316  N336    2.030   .     S
O340   Cu140   1.976   1_565 S
O341   Cu140   1.976   1_565 S
O344   Cu139   1.976   1_565 S
O345   Cu226   1.976   1_655 S
O346   Cu225   1.976   1_655 S
O348   Cu226   1.976   1_655 S
O351   Cu225   1.976   1_655 S
O352   Cu139   1.976   1_565 S
Br353  C400    1.927   .     S
Br354  C362    1.927   .     S
Br355  C363    1.927   .     S
Br356  C364    1.927   .     S
Br357  C365    1.927   .     S
Br358  C366    1.927   .     S
Br359  C367    1.927   .     S
Br360  C368    1.927   .     S
C361   O425    1.300   .     A
C361   O435    1.300   .     A
C361   C390    1.460   .     S
C362   N421    1.375   .     A
C362   C715    1.423   .     S
C363   N422    1.375   .     A
C364   N421    1.375   .     A
C364   C752    1.423   .     S
C365   N600    1.375   .     S
C366   N423    1.375   .     A
C366   C719    1.423   .     S
C367   N424    1.375   .     A
C368   C717    1.423   .     S
C368   N599    1.375   .     S
C369   C388    1.406   .     A
C369   F405    1.357   .     S
C369   C380    1.382   .     A
C370   C387    1.406   .     A
C370   C381    1.382   .     A
C370   F413    1.357   .     S
C371   F414    1.357   .     S
C371   C378    1.382   .     A
C371   C387    1.406   .     A
C372   O434    1.300   .     A
C372   O433    1.300   .     A
C372   C389    1.460   .     S
C373   C388    1.406   .     A
C373   C379    1.382   .     A
C373   F415    1.357   .     S
C374   C390    1.406   .     A
C374   C385    1.382   .     A
C374   F416    1.357   .     S
C375   C389    1.406   .     A
C375   C386    1.382   .     A
C375   F417    1.357   .     S
C376   F418    1.357   .     S
C376   C389    1.406   .     A
C376   C382    1.382   .     A
C377   F419    1.357   .     S
C377   C384    1.382   .     A
C377   C390    1.406   .     A
C378   F420    1.357   .     S
C378   C392    1.406   .     A
C379   C391    1.406   .     A
C379   F406    1.357   .     S
C380   F407    1.357   .     S
C380   C391    1.406   .     A
C381   F408    1.357   .     S
C381   C392    1.406   .     A
C382   F409    1.357   .     S
C382   C395    1.406   .     A
C383   O439    1.300   .     A
C383   O436    1.300   .     A
C383   C388    1.460   .     S
C384   F410    1.357   .     S
C384   C393    1.406   .     A
C385   F411    1.357   .     S
C385   C393    1.406   .     A
C386   F412    1.357   .     S
C386   C395    1.406   .     A
C387   C394    1.460   .     S
C391   C399    1.460   .     S
C392   C398    1.460   .     S
C393   C397    1.460   .     S
C394   O438    1.300   .     A
C394   O437    1.300   .     A
C395   C396    1.460   .     S
C396   O428    1.300   .     A
C396   O440    1.300   .     A
C397   O426    1.300   .     A
C397   O427    1.300   .     A
C398   O429    1.300   .     A
C398   O432    1.300   .     A
C399   O431    1.300   .     A
C399   O430    1.300   .     A
C400   N422    1.375   .     A
Cu401  N421    2.030   .     S
Cu401  O437    1.976   .     S
Cu401  O425    1.976   .     S
Cu401  Cu402   2.702   .     S
Cu401  O522    1.976   1_455 S
Cu401  O527    1.976   1_455 S
Cu402  O435    1.976   .     S
Cu402  N422    2.030   .     S
Cu402  O438    1.976   .     S
Cu402  O521    1.976   1_455 S
Cu402  O524    1.976   1_455 S
Cu403  O427    1.976   .     S
Cu403  N423    2.030   .     S
Cu403  Cu404   2.702   .     S
Cu403  O430    1.976   .     S
Cu403  O608    1.976   1_545 S
Cu403  O616    1.976   1_545 S
Cu404  O426    1.976   .     S
Cu404  O431    1.976   .     S
Cu404  N424    2.030   .     S
Cu404  O604    1.976   1_545 S
Cu404  O605    1.976   1_545 S
N423   C544    1.375   1_545 S
N424   C541    1.375   1_545 S
O428   Cu580   1.976   .     S
O429   Cu580   1.976   .     S
O432   Cu579   1.976   .     S
O433   Cu490   1.976   .     S
O434   Cu489   1.976   .     S
O436   Cu490   1.976   .     S
O439   Cu489   1.976   .     S
O440   Cu579   1.976   .     S
Br441  C488    1.927   .     S
Br442  C450    1.927   .     S
Br443  C451    1.927   .     S
Br444  C452    1.927   .     S
Br445  C453    1.927   .     S
Br446  C454    1.927   .     S
Br447  C455    1.927   .     S
Br448  C456    1.927   .     S
C449   O513    1.300   .     A
C449   O523    1.300   .     A
C449   C478    1.460   .     S
C450   N509    1.375   .     A
C450   C803    1.423   .     S
C451   N510    1.375   .     A
C452   N509    1.375   .     A
C452   C840    1.423   .     S
C453   N688    1.375   .     S
C454   N511    1.375   .     A
C454   C807    1.423   .     S
C455   N512    1.375   .     A
C456   C805    1.423   .     S
C456   N687    1.375   .     S
C457   C476    1.406   .     A
C457   F493    1.357   .     S
C457   C468    1.382   .     A
C458   C475    1.406   .     A
C458   C469    1.382   .     A
C458   F501    1.357   .     S
C459   F502    1.357   .     S
C459   C466    1.382   .     A
C459   C475    1.406   .     A
C460   O522    1.300   .     A
C460   O521    1.300   .     A
C460   C477    1.460   .     S
C461   C476    1.406   .     A
C461   C467    1.382   .     A
C461   F503    1.357   .     S
C462   C478    1.406   .     A
C462   C473    1.382   .     A
C462   F504    1.357   .     S
C463   C477    1.406   .     A
C463   C474    1.382   .     A
C463   F505    1.357   .     S
C464   F506    1.357   .     S
C464   C477    1.406   .     A
C464   C470    1.382   .     A
C465   F507    1.357   .     S
C465   C472    1.382   .     A
C465   C478    1.406   .     A
C466   F508    1.357   .     S
C466   C480    1.406   .     A
C467   C479    1.406   .     A
C467   F494    1.357   .     S
C468   F495    1.357   .     S
C468   C479    1.406   .     A
C469   F496    1.357   .     S
C469   C480    1.406   .     A
C470   F497    1.357   .     S
C470   C483    1.406   .     A
C471   O527    1.300   .     A
C471   O524    1.300   .     A
C471   C476    1.460   .     S
C472   F498    1.357   .     S
C472   C481    1.406   .     A
C473   F499    1.357   .     S
C473   C481    1.406   .     A
C474   F500    1.357   .     S
C474   C483    1.406   .     A
C475   C482    1.460   .     S
C479   C487    1.460   .     S
C480   C486    1.460   .     S
C481   C485    1.460   .     S
C482   O526    1.300   .     A
C482   O525    1.300   .     A
C483   C484    1.460   .     S
C484   O516    1.300   .     A
C484   O528    1.300   .     A
C485   O514    1.300   .     A
C485   O515    1.300   .     A
C486   O517    1.300   .     A
C486   O520    1.300   .     A
C487   O519    1.300   .     A
C487   O518    1.300   .     A
C488   N510    1.375   .     A
Cu489  N509    2.030   .     S
Cu489  O525    1.976   .     S
Cu489  O513    1.976   .     S
Cu489  Cu490   2.702   .     S
Cu490  O523    1.976   .     S
Cu490  N510    2.030   .     S
Cu490  O526    1.976   .     S
Cu491  O515    1.976   .     S
Cu491  N511    2.030   .     S
Cu491  Cu492   2.702   .     S
Cu491  O518    1.976   .     S
Cu491  O696    1.976   1_545 S
Cu491  O704    1.976   1_545 S
Cu492  O514    1.976   .     S
Cu492  O519    1.976   .     S
Cu492  N512    2.030   .     S
Cu492  O692    1.976   1_545 S
Cu492  O693    1.976   1_545 S
N511   C632    1.375   1_545 S
N512   C629    1.375   1_545 S
O516   Cu668   1.976   .     S
O517   Cu668   1.976   .     S
O520   Cu667   1.976   .     S
O521   Cu402   1.976   1_655 S
O522   Cu401   1.976   1_655 S
O524   Cu402   1.976   1_655 S
O527   Cu401   1.976   1_655 S
O528   Cu667   1.976   .     S
Br529  C576    1.927   .     S
Br530  C538    1.927   .     S
Br531  C539    1.927   .     S
Br532  C540    1.927   .     S
Br533  C541    1.927   .     S
Br534  C542    1.927   .     S
Br535  C543    1.927   .     S
Br536  C544    1.927   .     S
C537   O601    1.300   .     A
C537   O611    1.300   .     A
C537   C566    1.460   .     S
C538   N597    1.375   .     A
C538   C891    1.423   .     S
C539   N598    1.375   .     A
C540   N597    1.375   .     A
C540   C928    1.423   .     S
C541   N424    1.375   1_565 S
C542   N599    1.375   .     A
C542   C895    1.423   .     S
C543   N600    1.375   .     A
C544   C893    1.423   .     S
C544   N423    1.375   1_565 S
C545   C564    1.406   .     A
C545   F581    1.357   .     S
C545   C556    1.382   .     A
C546   C563    1.406   .     A
C546   C557    1.382   .     A
C546   F589    1.357   .     S
C547   F590    1.357   .     S
C547   C554    1.382   .     A
C547   C563    1.406   .     A
C548   O610    1.300   .     A
C548   O609    1.300   .     A
C548   C565    1.460   .     S
C549   C564    1.406   .     A
C549   C555    1.382   .     A
C549   F591    1.357   .     S
C550   C566    1.406   .     A
C550   C561    1.382   .     A
C550   F592    1.357   .     S
C551   C565    1.406   .     A
C551   C562    1.382   .     A
C551   F593    1.357   .     S
C552   F594    1.357   .     S
C552   C565    1.406   .     A
C552   C558    1.382   .     A
C553   F595    1.357   .     S
C553   C560    1.382   .     A
C553   C566    1.406   .     A
C554   F596    1.357   .     S
C554   C568    1.406   .     A
C555   C567    1.406   .     A
C555   F582    1.357   .     S
C556   F583    1.357   .     S
C556   C567    1.406   .     A
C557   F584    1.357   .     S
C557   C568    1.406   .     A
C558   F585    1.357   .     S
C558   C571    1.406   .     A
C559   O615    1.300   .     A
C559   O612    1.300   .     A
C559   C564    1.460   .     S
C560   F586    1.357   .     S
C560   C569    1.406   .     A
C561   F587    1.357   .     S
C561   C569    1.406   .     A
C562   F588    1.357   .     S
C562   C571    1.406   .     A
C563   C570    1.460   .     S
C567   C575    1.460   .     S
C568   C574    1.460   .     S
C569   C573    1.460   .     S
C570   O614    1.300   .     A
C570   O613    1.300   .     A
C571   C572    1.460   .     S
C572   O604    1.300   .     A
C572   O616    1.300   .     A
C573   O602    1.300   .     A
C573   O603    1.300   .     A
C574   O605    1.300   .     A
C574   O608    1.300   .     A
C575   O607    1.300   .     A
C575   O606    1.300   .     A
C576   N598    1.375   .     A
Cu577  N597    2.030   .     S
Cu577  O613    1.976   .     S
Cu577  O601    1.976   .     S
Cu577  Cu578   2.702   .     S
Cu577  O698    1.976   1_455 S
Cu577  O703    1.976   1_455 S
Cu578  O611    1.976   .     S
Cu578  N598    2.030   .     S
Cu578  O614    1.976   .     S
Cu578  O697    1.976   1_455 S
Cu578  O700    1.976   1_455 S
Cu579  O603    1.976   .     S
Cu579  N599    2.030   .     S
Cu579  Cu580   2.702   .     S
Cu579  O606    1.976   .     S
Cu580  O602    1.976   .     S
Cu580  O607    1.976   .     S
Cu580  N600    2.030   .     S
O604   Cu404   1.976   1_565 S
O605   Cu404   1.976   1_565 S
O608   Cu403   1.976   1_565 S
O609   Cu666   1.976   .     S
O610   Cu665   1.976   .     S
O612   Cu666   1.976   .     S
O615   Cu665   1.976   .     S
O616   Cu403   1.976   1_565 S
Br617  C664    1.927   .     S
Br618  C626    1.927   .     S
Br619  C627    1.927   .     S
Br620  C628    1.927   .     S
Br621  C629    1.927   .     S
Br622  C630    1.927   .     S
Br623  C631    1.927   .     S
Br624  C632    1.927   .     S
C625   O689    1.300   .     A
C625   O699    1.300   .     A
C625   C654    1.460   .     S
C626   N685    1.375   .     A
C626   C979    1.423   .     S
C627   N686    1.375   .     A
C628   N685    1.375   .     A
C628   C1016   1.423   .     S
C629   N512    1.375   1_565 S
C630   N687    1.375   .     A
C630   C983    1.423   .     S
C631   N688    1.375   .     A
C632   C981    1.423   .     S
C632   N511    1.375   1_565 S
C633   C652    1.406   .     A
C633   F669    1.357   .     S
C633   C644    1.382   .     A
C634   C651    1.406   .     A
C634   C645    1.382   .     A
C634   F677    1.357   .     S
C635   F678    1.357   .     S
C635   C642    1.382   .     A
C635   C651    1.406   .     A
C636   O698    1.300   .     A
C636   O697    1.300   .     A
C636   C653    1.460   .     S
C637   C652    1.406   .     A
C637   C643    1.382   .     A
C637   F679    1.357   .     S
C638   C654    1.406   .     A
C638   C649    1.382   .     A
C638   F680    1.357   .     S
C639   C653    1.406   .     A
C639   C650    1.382   .     A
C639   F681    1.357   .     S
C640   F682    1.357   .     S
C640   C653    1.406   .     A
C640   C646    1.382   .     A
C641   F683    1.357   .     S
C641   C648    1.382   .     A
C641   C654    1.406   .     A
C642   F684    1.357   .     S
C642   C656    1.406   .     A
C643   C655    1.406   .     A
C643   F670    1.357   .     S
C644   F671    1.357   .     S
C644   C655    1.406   .     A
C645   F672    1.357   .     S
C645   C656    1.406   .     A
C646   F673    1.357   .     S
C646   C659    1.406   .     A
C647   O703    1.300   .     A
C647   O700    1.300   .     A
C647   C652    1.460   .     S
C648   F674    1.357   .     S
C648   C657    1.406   .     A
C649   F675    1.357   .     S
C649   C657    1.406   .     A
C650   F676    1.357   .     S
C650   C659    1.406   .     A
C651   C658    1.460   .     S
C655   C663    1.460   .     S
C656   C662    1.460   .     S
C657   C661    1.460   .     S
C658   O702    1.300   .     A
C658   O701    1.300   .     A
C659   C660    1.460   .     S
C660   O692    1.300   .     A
C660   O704    1.300   .     A
C661   O690    1.300   .     A
C661   O691    1.300   .     A
C662   O693    1.300   .     A
C662   O696    1.300   .     A
C663   O695    1.300   .     A
C663   O694    1.300   .     A
C664   N686    1.375   .     A
Cu665  N685    2.030   .     S
Cu665  O701    1.976   .     S
Cu665  O689    1.976   .     S
Cu665  Cu666   2.702   .     S
Cu666  O699    1.976   .     S
Cu666  N686    2.030   .     S
Cu666  O702    1.976   .     S
Cu667  O691    1.976   .     S
Cu667  N687    2.030   .     S
Cu667  Cu668   2.702   .     S
Cu667  O694    1.976   .     S
Cu668  O690    1.976   .     S
Cu668  O695    1.976   .     S
Cu668  N688    2.030   .     S
O692   Cu492   1.976   1_565 S
O693   Cu492   1.976   1_565 S
O696   Cu491   1.976   1_565 S
O697   Cu578   1.976   1_655 S
O698   Cu577   1.976   1_655 S
O700   Cu578   1.976   1_655 S
O703   Cu577   1.976   1_655 S
O704   Cu491   1.976   1_565 S
Br705  C752    1.927   .     S
Br706  C714    1.927   .     S
Br707  C715    1.927   .     S
Br708  C716    1.927   .     S
Br709  C717    1.927   .     S
Br710  C718    1.927   .     S
Br711  C719    1.927   .     S
Br712  C720    1.927   .     S
C713   O777    1.300   .     A
C713   O787    1.300   .     A
C713   C742    1.460   .     S
C714   N773    1.375   .     A
C714   C11     1.423   1_556 S
C715   N774    1.375   .     A
C716   N773    1.375   .     A
C716   C48     1.423   1_556 S
C717   N952    1.375   .     S
C718   N775    1.375   .     A
C718   C15     1.423   1_556 S
C719   N776    1.375   .     A
C720   C13     1.423   1_556 S
C720   N951    1.375   .     S
C721   C740    1.406   .     A
C721   F757    1.357   .     S
C721   C732    1.382   .     A
C722   C739    1.406   .     A
C722   C733    1.382   .     A
C722   F765    1.357   .     S
C723   F766    1.357   .     S
C723   C730    1.382   .     A
C723   C739    1.406   .     A
C724   O786    1.300   .     A
C724   O785    1.300   .     A
C724   C741    1.460   .     S
C725   C740    1.406   .     A
C725   C731    1.382   .     A
C725   F767    1.357   .     S
C726   C742    1.406   .     A
C726   C737    1.382   .     A
C726   F768    1.357   .     S
C727   C741    1.406   .     A
C727   C738    1.382   .     A
C727   F769    1.357   .     S
C728   F770    1.357   .     S
C728   C741    1.406   .     A
C728   C734    1.382   .     A
C729   F771    1.357   .     S
C729   C736    1.382   .     A
C729   C742    1.406   .     A
C730   F772    1.357   .     S
C730   C744    1.406   .     A
C731   C743    1.406   .     A
C731   F758    1.357   .     S
C732   F759    1.357   .     S
C732   C743    1.406   .     A
C733   F760    1.357   .     S
C733   C744    1.406   .     A
C734   F761    1.357   .     S
C734   C747    1.406   .     A
C735   O791    1.300   .     A
C735   O788    1.300   .     A
C735   C740    1.460   .     S
C736   F762    1.357   .     S
C736   C745    1.406   .     A
C737   F763    1.357   .     S
C737   C745    1.406   .     A
C738   F764    1.357   .     S
C738   C747    1.406   .     A
C739   C746    1.460   .     S
C743   C751    1.460   .     S
C744   C750    1.460   .     S
C745   C749    1.460   .     S
C746   O790    1.300   .     A
C746   O789    1.300   .     A
C747   C748    1.460   .     S
C748   O780    1.300   .     A
C748   O792    1.300   .     A
C749   O778    1.300   .     A
C749   O779    1.300   .     A
C750   O781    1.300   .     A
C750   O784    1.300   .     A
C751   O783    1.300   .     A
C751   O782    1.300   .     A
C752   N774    1.375   .     A
Cu753  N773    2.030   .     S
Cu753  O789    1.976   .     S
Cu753  O777    1.976   .     S
Cu753  Cu754   2.702   .     S
Cu753  O874    1.976   1_455 S
Cu753  O879    1.976   1_455 S
Cu754  O787    1.976   .     S
Cu754  N774    2.030   .     S
Cu754  O790    1.976   .     S
Cu754  O873    1.976   1_455 S
Cu754  O876    1.976   1_455 S
Cu755  O779    1.976   .     S
Cu755  N775    2.030   .     S
Cu755  Cu756   2.702   .     S
Cu755  O782    1.976   .     S
Cu755  O960    1.976   1_545 S
Cu755  O968    1.976   1_545 S
Cu756  O778    1.976   .     S
Cu756  O783    1.976   .     S
Cu756  N776    2.030   .     S
Cu756  O956    1.976   1_545 S
Cu756  O957    1.976   1_545 S
N775   C896    1.375   1_545 S
N776   C893    1.375   1_545 S
O780   Cu932   1.976   .     S
O781   Cu932   1.976   .     S
O784   Cu931   1.976   .     S
O785   Cu842   1.976   .     S
O786   Cu841   1.976   .     S
O788   Cu842   1.976   .     S
O791   Cu841   1.976   .     S
O792   Cu931   1.976   .     S
Br793  C840    1.927   .     S
Br794  C802    1.927   .     S
Br795  C803    1.927   .     S
Br796  C804    1.927   .     S
Br797  C805    1.927   .     S
Br798  C806    1.927   .     S
Br799  C807    1.927   .     S
Br800  C808    1.927   .     S
C801   O865    1.300   .     A
C801   O875    1.300   .     A
C801   C830    1.460   .     S
C802   N861    1.375   .     A
C802   C99     1.423   1_556 S
C803   N862    1.375   .     A
C804   N861    1.375   .     A
C804   C136    1.423   1_556 S
C805   N1040   1.375   .     S
C806   N863    1.375   .     A
C806   C103    1.423   1_556 S
C807   N864    1.375   .     A
C808   C101    1.423   1_556 S
C808   N1039   1.375   .     S
C809   C828    1.406   .     A
C809   F845    1.357   .     S
C809   C820    1.382   .     A
C810   C827    1.406   .     A
C810   C821    1.382   .     A
C810   F853    1.357   .     S
C811   F854    1.357   .     S
C811   C818    1.382   .     A
C811   C827    1.406   .     A
C812   O874    1.300   .     A
C812   O873    1.300   .     A
C812   C829    1.460   .     S
C813   C828    1.406   .     A
C813   C819    1.382   .     A
C813   F855    1.357   .     S
C814   C830    1.406   .     A
C814   C825    1.382   .     A
C814   F856    1.357   .     S
C815   C829    1.406   .     A
C815   C826    1.382   .     A
C815   F857    1.357   .     S
C816   F858    1.357   .     S
C816   C829    1.406   .     A
C816   C822    1.382   .     A
C817   F859    1.357   .     S
C817   C824    1.382   .     A
C817   C830    1.406   .     A
C818   F860    1.357   .     S
C818   C832    1.406   .     A
C819   C831    1.406   .     A
C819   F846    1.357   .     S
C820   F847    1.357   .     S
C820   C831    1.406   .     A
C821   F848    1.357   .     S
C821   C832    1.406   .     A
C822   F849    1.357   .     S
C822   C835    1.406   .     A
C823   O879    1.300   .     A
C823   O876    1.300   .     A
C823   C828    1.460   .     S
C824   F850    1.357   .     S
C824   C833    1.406   .     A
C825   F851    1.357   .     S
C825   C833    1.406   .     A
C826   F852    1.357   .     S
C826   C835    1.406   .     A
C827   C834    1.460   .     S
C831   C839    1.460   .     S
C832   C838    1.460   .     S
C833   C837    1.460   .     S
C834   O878    1.300   .     A
C834   O877    1.300   .     A
C835   C836    1.460   .     S
C836   O868    1.300   .     A
C836   O880    1.300   .     A
C837   O866    1.300   .     A
C837   O867    1.300   .     A
C838   O869    1.300   .     A
C838   O872    1.300   .     A
C839   O871    1.300   .     A
C839   O870    1.300   .     A
C840   N862    1.375   .     A
Cu841  N861    2.030   .     S
Cu841  O877    1.976   .     S
Cu841  O865    1.976   .     S
Cu841  Cu842   2.702   .     S
Cu842  O875    1.976   .     S
Cu842  N862    2.030   .     S
Cu842  O878    1.976   .     S
Cu843  O867    1.976   .     S
Cu843  N863    2.030   .     S
Cu843  Cu844   2.702   .     S
Cu843  O870    1.976   .     S
Cu843  O1048   1.976   1_545 S
Cu843  O1056   1.976   1_545 S
Cu844  O866    1.976   .     S
Cu844  O871    1.976   .     S
Cu844  N864    2.030   .     S
Cu844  O1044   1.976   1_545 S
Cu844  O1045   1.976   1_545 S
N863   C984    1.375   1_545 S
N864   C981    1.375   1_545 S
O868   Cu1020  1.976   .     S
O869   Cu1020  1.976   .     S
O872   Cu1019  1.976   .     S
O873   Cu754   1.976   1_655 S
O874   Cu753   1.976   1_655 S
O876   Cu754   1.976   1_655 S
O879   Cu753   1.976   1_655 S
O880   Cu1019  1.976   .     S
Br881  C928    1.927   .     S
Br882  C890    1.927   .     S
Br883  C891    1.927   .     S
Br884  C892    1.927   .     S
Br885  C893    1.927   .     S
Br886  C894    1.927   .     S
Br887  C895    1.927   .     S
Br888  C896    1.927   .     S
C889   O953    1.300   .     A
C889   O963    1.300   .     A
C889   C918    1.460   .     S
C890   N949    1.375   .     A
C890   C187    1.423   1_556 S
C891   N950    1.375   .     A
C892   N949    1.375   .     A
C892   C224    1.423   1_556 S
C893   N776    1.375   1_565 S
C894   N951    1.375   .     A
C894   C191    1.423   1_556 S
C895   N952    1.375   .     A
C896   C189    1.423   1_556 S
C896   N775    1.375   1_565 S
C897   C916    1.406   .     A
C897   F933    1.357   .     S
C897   C908    1.382   .     A
C898   C915    1.406   .     A
C898   C909    1.382   .     A
C898   F941    1.357   .     S
C899   F942    1.357   .     S
C899   C906    1.382   .     A
C899   C915    1.406   .     A
C900   O962    1.300   .     A
C900   O961    1.300   .     A
C900   C917    1.460   .     S
C901   C916    1.406   .     A
C901   C907    1.382   .     A
C901   F943    1.357   .     S
C902   C918    1.406   .     A
C902   C913    1.382   .     A
C902   F944    1.357   .     S
C903   C917    1.406   .     A
C903   C914    1.382   .     A
C903   F945    1.357   .     S
C904   F946    1.357   .     S
C904   C917    1.406   .     A
C904   C910    1.382   .     A
C905   F947    1.357   .     S
C905   C912    1.382   .     A
C905   C918    1.406   .     A
C906   F948    1.357   .     S
C906   C920    1.406   .     A
C907   C919    1.406   .     A
C907   F934    1.357   .     S
C908   F935    1.357   .     S
C908   C919    1.406   .     A
C909   F936    1.357   .     S
C909   C920    1.406   .     A
C910   F937    1.357   .     S
C910   C923    1.406   .     A
C911   O967    1.300   .     A
C911   O964    1.300   .     A
C911   C916    1.460   .     S
C912   F938    1.357   .     S
C912   C921    1.406   .     A
C913   F939    1.357   .     S
C913   C921    1.406   .     A
C914   F940    1.357   .     S
C914   C923    1.406   .     A
C915   C922    1.460   .     S
C919   C927    1.460   .     S
C920   C926    1.460   .     S
C921   C925    1.460   .     S
C922   O966    1.300   .     A
C922   O965    1.300   .     A
C923   C924    1.460   .     S
C924   O956    1.300   .     A
C924   O968    1.300   .     A
C925   O954    1.300   .     A
C925   O955    1.300   .     A
C926   O957    1.300   .     A
C926   O960    1.300   .     A
C927   O959    1.300   .     A
C927   O958    1.300   .     A
C928   N950    1.375   .     A
Cu929  N949    2.030   .     S
Cu929  O965    1.976   .     S
Cu929  O953    1.976   .     S
Cu929  Cu930   2.702   .     S
Cu929  O1050   1.976   1_455 S
Cu929  O1055   1.976   1_455 S
Cu930  O963    1.976   .     S
Cu930  N950    2.030   .     S
Cu930  O966    1.976   .     S
Cu930  O1049   1.976   1_455 S
Cu930  O1052   1.976   1_455 S
Cu931  O955    1.976   .     S
Cu931  N951    2.030   .     S
Cu931  Cu932   2.702   .     S
Cu931  O958    1.976   .     S
Cu932  O954    1.976   .     S
Cu932  O959    1.976   .     S
Cu932  N952    2.030   .     S
O956   Cu756   1.976   1_565 S
O957   Cu756   1.976   1_565 S
O960   Cu755   1.976   1_565 S
O961   Cu1018  1.976   .     S
O962   Cu1017  1.976   .     S
O964   Cu1018  1.976   .     S
O967   Cu1017  1.976   .     S
O968   Cu755   1.976   1_565 S
Br969  C1016   1.927   .     S
Br970  C978    1.927   .     S
Br971  C979    1.927   .     S
Br972  C980    1.927   .     S
Br973  C981    1.927   .     S
Br974  C982    1.927   .     S
Br975  C983    1.927   .     S
Br976  C984    1.927   .     S
C977   O1041   1.300   .     A
C977   O1051   1.300   .     A
C977   C1006   1.460   .     S
C978   N1037   1.375   .     A
C978   C275    1.423   1_556 S
C979   N1038   1.375   .     A
C980   N1037   1.375   .     A
C980   C312    1.423   1_556 S
C981   N864    1.375   1_565 S
C982   N1039   1.375   .     A
C982   C279    1.423   1_556 S
C983   N1040   1.375   .     A
C984   C277    1.423   1_556 S
C984   N863    1.375   1_565 S
C985   C1004   1.406   .     A
C985   F1021   1.357   .     S
C985   C996    1.382   .     A
C986   C1003   1.406   .     A
C986   C997    1.382   .     A
C986   F1029   1.357   .     S
C987   F1030   1.357   .     S
C987   C994    1.382   .     A
C987   C1003   1.406   .     A
C988   O1050   1.300   .     A
C988   O1049   1.300   .     A
C988   C1005   1.460   .     S
C989   C1004   1.406   .     A
C989   C995    1.382   .     A
C989   F1031   1.357   .     S
C990   C1006   1.406   .     A
C990   C1001   1.382   .     A
C990   F1032   1.357   .     S
C991   C1005   1.406   .     A
C991   C1002   1.382   .     A
C991   F1033   1.357   .     S
C992   F1034   1.357   .     S
C992   C1005   1.406   .     A
C992   C998    1.382   .     A
C993   F1035   1.357   .     S
C993   C1000   1.382   .     A
C993   C1006   1.406   .     A
C994   F1036   1.357   .     S
C994   C1008   1.406   .     A
C995   C1007   1.406   .     A
C995   F1022   1.357   .     S
C996   F1023   1.357   .     S
C996   C1007   1.406   .     A
C997   F1024   1.357   .     S
C997   C1008   1.406   .     A
C998   F1025   1.357   .     S
C998   C1011   1.406   .     A
C999   O1055   1.300   .     A
C999   O1052   1.300   .     A
C999   C1004   1.460   .     S
C1000  F1026   1.357   .     S
C1000  C1009   1.406   .     A
C1001  F1027   1.357   .     S
C1001  C1009   1.406   .     A
C1002  F1028   1.357   .     S
C1002  C1011   1.406   .     A
C1003  C1010   1.460   .     S
C1007  C1015   1.460   .     S
C1008  C1014   1.460   .     S
C1009  C1013   1.460   .     S
C1010  O1054   1.300   .     A
C1010  O1053   1.300   .     A
C1011  C1012   1.460   .     S
C1012  O1044   1.300   .     A
C1012  O1056   1.300   .     A
C1013  O1042   1.300   .     A
C1013  O1043   1.300   .     A
C1014  O1045   1.300   .     A
C1014  O1048   1.300   .     A
C1015  O1047   1.300   .     A
C1015  O1046   1.300   .     A
C1016  N1038   1.375   .     A
Cu1017 N1037   2.030   .     S
Cu1017 O1053   1.976   .     S
Cu1017 O1041   1.976   .     S
Cu1017 Cu1018  2.702   .     S
Cu1018 O1051   1.976   .     S
Cu1018 N1038   2.030   .     S
Cu1018 O1054   1.976   .     S
Cu1019 O1043   1.976   .     S
Cu1019 N1039   2.030   .     S
Cu1019 Cu1020  2.702   .     S
Cu1019 O1046   1.976   .     S
Cu1020 O1042   1.976   .     S
Cu1020 O1047   1.976   .     S
Cu1020 N1040   2.030   .     S
O1044  Cu844   1.976   1_565 S
O1045  Cu844   1.976   1_565 S
O1048  Cu843   1.976   1_565 S
O1049  Cu930   1.976   1_655 S
O1050  Cu929   1.976   1_655 S
O1052  Cu930   1.976   1_655 S
O1055  Cu929   1.976   1_655 S
O1056  Cu843   1.976   1_565 S
