data_str_m2_o2_o10_pcu_sym.82
_audit_creation_date              2020-01-03
_audit_creation_method            'Materials Studio'
_symmetry_space_group_name_H-M    'P1'
_symmetry_Int_Tables_number       1
_symmetry_cell_setting            triclinic
loop_
_symmetry_equiv_pos_as_xyz
  x,y,z
_cell_length_a                    26.3705
_cell_length_b                    30.2752
_cell_length_c                    27.7116
_cell_angle_alpha                 89.9770
_cell_angle_beta                  97.5086
_cell_angle_gamma                 90.1643
loop_
_atom_site_label
_atom_site_type_symbol
_atom_site_fract_x
_atom_site_fract_y
_atom_site_fract_z
_atom_site_U_iso_or_equiv
_atom_site_adp_type
_atom_site_occupancy
C1     C     0.16666   0.16494   0.25000   0.00000  Uiso   1.00
C2     C     0.19099   0.28377   0.44905   0.00000  Uiso   1.00
C3     C     0.16666   0.24999   0.02733   0.00000  Uiso   1.00
C4     C     0.16664   0.25000   0.47265   0.00000  Uiso   1.00
C5     C     0.06809   0.24961   0.23789   0.00000  Uiso   1.00
C6     C     0.26524   0.25036   0.26212   0.00000  Uiso   1.00
C7     C     0.01369   0.24366   0.23214   0.00000  Uiso   1.00
C8     C     0.31965   0.25626   0.26787   0.00000  Uiso   1.00
C9     C     0.15082   0.04756   0.28919   0.00000  Uiso   1.00
C10    C     0.15141   0.45240   0.20684   0.00000  Uiso   1.00
C11    C     0.15111   0.09347   0.28933   0.00000  Uiso   1.00
C12    C     0.16670   0.33507   0.25001   0.00000  Uiso   1.00
C13    C     0.15173   0.40649   0.20675   0.00000  Uiso   1.00
C14    C     0.16669   0.11671   0.25003   0.00000  Uiso   1.00
C15    C     0.16676   0.38330   0.25002   0.00000  Uiso   1.00
C16    C     0.18233   0.09358   0.21076   0.00000  Uiso   1.00
C17    C     0.18182   0.40650   0.29331   0.00000  Uiso   1.00
C18    C     0.18272   0.04767   0.21094   0.00000  Uiso   1.00
C19    C     0.18217   0.45242   0.29327   0.00000  Uiso   1.00
C20    C     0.16679   0.02429   0.25007   0.00000  Uiso   1.00
C21    C     0.16679   0.47573   0.25006   0.00000  Uiso   1.00
C22    C     0.20633   0.27023   0.05887   0.00000  Uiso   1.00
C23    C     0.14226   0.21624   0.44301   0.00000  Uiso   1.00
C24    C     0.20536   0.27018   0.10949   0.00000  Uiso   1.00
C25    C     0.14239   0.21706   0.39228   0.00000  Uiso   1.00
C26    C     0.12798   0.22982   0.09990   0.00000  Uiso   1.00
C27    C     0.19088   0.28296   0.39829   0.00000  Uiso   1.00
C28    C     0.12701   0.22974   0.04903   0.00000  Uiso   1.00
Cl29   Cl    0.32157   0.21303   0.17976   0.00000  Uiso   1.00
Cl30   Cl    0.01181   0.28675   0.32036   0.00000  Uiso   1.00
Cu31   Cu    0.16667   0.24999   0.29821   0.00000  Uiso   1.00
Cu32   Cu    0.16667   0.25000   0.20178   0.00000  Uiso   1.00
H33    H     0.13751   0.03029   0.31940   0.00000  Uiso   1.00
H34    H     0.12367   0.18886   0.45869   0.00000  Uiso   1.00
H35    H     0.23593   0.28626   0.13291   0.00000  Uiso   1.00
H36    H     0.12310   0.19104   0.37023   0.00000  Uiso   1.00
H37    H     0.09740   0.21375   0.11574   0.00000  Uiso   1.00
H38    H     0.21014   0.30899   0.38102   0.00000  Uiso   1.00
H39    H     0.09487   0.21435   0.02707   0.00000  Uiso   1.00
H40    H     0.20956   0.31116   0.46933   0.00000  Uiso   1.00
H41    H     0.13853   0.46961   0.17322   0.00000  Uiso   1.00
H42    H     0.13847   0.11075   0.31982   0.00000  Uiso   1.00
H43    H     0.13955   0.38918   0.17300   0.00000  Uiso   1.00
H44    H     0.19494   0.11094   0.18026   0.00000  Uiso   1.00
H45    H     0.19399   0.38919   0.32704   0.00000  Uiso   1.00
H46    H     0.19606   0.03050   0.18074   0.00000  Uiso   1.00
H47    H     0.19505   0.46964   0.32690   0.00000  Uiso   1.00
H48    H     0.23847   0.28561   0.04488   0.00000  Uiso   1.00
N49    N     0.16667   0.25001   0.12934   0.00000  Uiso   1.00
N50    N     0.16667   0.24999   0.37065   0.00000  Uiso   1.00
O51    O     0.16667   0.18573   0.29071   0.00000  Uiso   1.00
O52    O     0.16666   0.31427   0.20928   0.00000  Uiso   1.00
O53    O     0.16667   0.18573   0.20928   0.00000  Uiso   1.00
O54    O     0.16666   0.31427   0.29072   0.00000  Uiso   1.00
O55    O     0.09161   0.24999   0.28132   0.00000  Uiso   1.00
O56    O     0.24172   0.25001   0.21868   0.00000  Uiso   1.00
O57    O     0.09161   0.25000   0.19988   0.00000  Uiso   1.00
O58    O     0.24172   0.25000   0.30011   0.00000  Uiso   1.00
C59    C     0.49999   0.16494   0.25000   0.00000  Uiso   1.00
C60    C     0.52432   0.28377   0.44905   0.00000  Uiso   1.00
C61    C     0.49999   0.24999   0.02733   0.00000  Uiso   1.00
C62    C     0.49997   0.25000   0.47265   0.00000  Uiso   1.00
C63    C     0.40142   0.24961   0.23789   0.00000  Uiso   1.00
C64    C     0.59858   0.25036   0.26212   0.00000  Uiso   1.00
C65    C     0.34703   0.24366   0.23214   0.00000  Uiso   1.00
C66    C     0.65298   0.25626   0.26787   0.00000  Uiso   1.00
C67    C     0.48415   0.04756   0.28919   0.00000  Uiso   1.00
C68    C     0.48474   0.45240   0.20684   0.00000  Uiso   1.00
C69    C     0.48444   0.09347   0.28933   0.00000  Uiso   1.00
C70    C     0.50004   0.33507   0.25001   0.00000  Uiso   1.00
C71    C     0.48507   0.40649   0.20675   0.00000  Uiso   1.00
C72    C     0.50002   0.11671   0.25003   0.00000  Uiso   1.00
C73    C     0.50009   0.38330   0.25002   0.00000  Uiso   1.00
C74    C     0.51566   0.09358   0.21076   0.00000  Uiso   1.00
C75    C     0.51516   0.40650   0.29331   0.00000  Uiso   1.00
C76    C     0.51605   0.04767   0.21094   0.00000  Uiso   1.00
C77    C     0.51550   0.45242   0.29327   0.00000  Uiso   1.00
C78    C     0.50012   0.02429   0.25007   0.00000  Uiso   1.00
C79    C     0.50013   0.47573   0.25006   0.00000  Uiso   1.00
C80    C     0.53966   0.27023   0.05887   0.00000  Uiso   1.00
C81    C     0.47559   0.21624   0.44301   0.00000  Uiso   1.00
C82    C     0.53869   0.27018   0.10949   0.00000  Uiso   1.00
C83    C     0.47572   0.21706   0.39228   0.00000  Uiso   1.00
C84    C     0.46131   0.22982   0.09990   0.00000  Uiso   1.00
C85    C     0.52421   0.28296   0.39829   0.00000  Uiso   1.00
C86    C     0.46035   0.22974   0.04903   0.00000  Uiso   1.00
Cl87   Cl    0.65490   0.21303   0.17976   0.00000  Uiso   1.00
Cl88   Cl    0.34515   0.28675   0.32036   0.00000  Uiso   1.00
Cu89   Cu    0.50000   0.24999   0.29821   0.00000  Uiso   1.00
Cu90   Cu    0.50000   0.25000   0.20178   0.00000  Uiso   1.00
H91    H     0.47085   0.03029   0.31940   0.00000  Uiso   1.00
H92    H     0.45700   0.18886   0.45869   0.00000  Uiso   1.00
H93    H     0.56926   0.28626   0.13291   0.00000  Uiso   1.00
H94    H     0.45643   0.19104   0.37023   0.00000  Uiso   1.00
H95    H     0.43074   0.21375   0.11574   0.00000  Uiso   1.00
H96    H     0.54348   0.30899   0.38102   0.00000  Uiso   1.00
H97    H     0.42820   0.21435   0.02707   0.00000  Uiso   1.00
H98    H     0.54289   0.31116   0.46933   0.00000  Uiso   1.00
H99    H     0.47186   0.46961   0.17322   0.00000  Uiso   1.00
H100   H     0.47181   0.11075   0.31982   0.00000  Uiso   1.00
H101   H     0.47289   0.38918   0.17300   0.00000  Uiso   1.00
H102   H     0.52827   0.11094   0.18026   0.00000  Uiso   1.00
H103   H     0.52732   0.38919   0.32704   0.00000  Uiso   1.00
H104   H     0.52940   0.03050   0.18074   0.00000  Uiso   1.00
H105   H     0.52839   0.46964   0.32690   0.00000  Uiso   1.00
H106   H     0.57180   0.28561   0.04488   0.00000  Uiso   1.00
N107   N     0.50000   0.25001   0.12934   0.00000  Uiso   1.00
N108   N     0.50000   0.24999   0.37065   0.00000  Uiso   1.00
O109   O     0.50000   0.18573   0.29071   0.00000  Uiso   1.00
O110   O     0.50000   0.31427   0.20928   0.00000  Uiso   1.00
O111   O     0.50000   0.18573   0.20928   0.00000  Uiso   1.00
O112   O     0.50000   0.31427   0.29072   0.00000  Uiso   1.00
O113   O     0.42495   0.24999   0.28132   0.00000  Uiso   1.00
O114   O     0.57505   0.25001   0.21868   0.00000  Uiso   1.00
O115   O     0.42495   0.25000   0.19988   0.00000  Uiso   1.00
O116   O     0.57505   0.25000   0.30011   0.00000  Uiso   1.00
C117   C     0.83332   0.16494   0.25000   0.00000  Uiso   1.00
C118   C     0.85765   0.28377   0.44905   0.00000  Uiso   1.00
C119   C     0.83333   0.24999   0.02733   0.00000  Uiso   1.00
C120   C     0.83330   0.25000   0.47265   0.00000  Uiso   1.00
C121   C     0.73476   0.24961   0.23789   0.00000  Uiso   1.00
C122   C     0.93191   0.25036   0.26212   0.00000  Uiso   1.00
C123   C     0.68036   0.24366   0.23214   0.00000  Uiso   1.00
C124   C     0.98632   0.25626   0.26787   0.00000  Uiso   1.00
C125   C     0.81749   0.04756   0.28919   0.00000  Uiso   1.00
C126   C     0.81808   0.45240   0.20684   0.00000  Uiso   1.00
C127   C     0.81778   0.09347   0.28933   0.00000  Uiso   1.00
C128   C     0.83337   0.33507   0.25001   0.00000  Uiso   1.00
C129   C     0.81840   0.40649   0.20675   0.00000  Uiso   1.00
C130   C     0.83336   0.11671   0.25003   0.00000  Uiso   1.00
C131   C     0.83343   0.38330   0.25002   0.00000  Uiso   1.00
C132   C     0.84900   0.09358   0.21076   0.00000  Uiso   1.00
C133   C     0.84849   0.40650   0.29331   0.00000  Uiso   1.00
C134   C     0.84939   0.04767   0.21094   0.00000  Uiso   1.00
C135   C     0.84884   0.45242   0.29327   0.00000  Uiso   1.00
C136   C     0.83345   0.02429   0.25007   0.00000  Uiso   1.00
C137   C     0.83346   0.47573   0.25006   0.00000  Uiso   1.00
C138   C     0.87299   0.27023   0.05887   0.00000  Uiso   1.00
C139   C     0.80892   0.21624   0.44301   0.00000  Uiso   1.00
C140   C     0.87203   0.27018   0.10949   0.00000  Uiso   1.00
C141   C     0.80905   0.21706   0.39228   0.00000  Uiso   1.00
C142   C     0.79464   0.22982   0.09990   0.00000  Uiso   1.00
C143   C     0.85755   0.28296   0.39829   0.00000  Uiso   1.00
C144   C     0.79368   0.22974   0.04903   0.00000  Uiso   1.00
Cl145  Cl    0.98824   0.21303   0.17976   0.00000  Uiso   1.00
Cl146  Cl    0.67848   0.28675   0.32036   0.00000  Uiso   1.00
Cu147  Cu    0.83333   0.24999   0.29821   0.00000  Uiso   1.00
Cu148  Cu    0.83333   0.25000   0.20178   0.00000  Uiso   1.00
H149   H     0.80418   0.03029   0.31940   0.00000  Uiso   1.00
H150   H     0.79033   0.18886   0.45869   0.00000  Uiso   1.00
H151   H     0.90259   0.28626   0.13291   0.00000  Uiso   1.00
H152   H     0.78977   0.19104   0.37023   0.00000  Uiso   1.00
H153   H     0.76407   0.21375   0.11574   0.00000  Uiso   1.00
H154   H     0.87681   0.30899   0.38102   0.00000  Uiso   1.00
H155   H     0.76154   0.21435   0.02707   0.00000  Uiso   1.00
H156   H     0.87622   0.31116   0.46933   0.00000  Uiso   1.00
H157   H     0.80520   0.46961   0.17322   0.00000  Uiso   1.00
H158   H     0.80514   0.11075   0.31982   0.00000  Uiso   1.00
H159   H     0.80622   0.38918   0.17300   0.00000  Uiso   1.00
H160   H     0.86161   0.11094   0.18026   0.00000  Uiso   1.00
H161   H     0.86066   0.38919   0.32704   0.00000  Uiso   1.00
H162   H     0.86273   0.03050   0.18074   0.00000  Uiso   1.00
H163   H     0.86172   0.46964   0.32690   0.00000  Uiso   1.00
H164   H     0.90514   0.28561   0.04488   0.00000  Uiso   1.00
N165   N     0.83333   0.25001   0.12934   0.00000  Uiso   1.00
N166   N     0.83333   0.24999   0.37065   0.00000  Uiso   1.00
O167   O     0.83334   0.18573   0.29071   0.00000  Uiso   1.00
O168   O     0.83333   0.31427   0.20928   0.00000  Uiso   1.00
O169   O     0.83334   0.18573   0.20928   0.00000  Uiso   1.00
O170   O     0.83333   0.31427   0.29072   0.00000  Uiso   1.00
O171   O     0.75828   0.24999   0.28132   0.00000  Uiso   1.00
O172   O     0.90839   0.25001   0.21868   0.00000  Uiso   1.00
O173   O     0.75828   0.25000   0.19988   0.00000  Uiso   1.00
O174   O     0.90839   0.25000   0.30011   0.00000  Uiso   1.00
C175   C     0.16666   0.66494   0.25000   0.00000  Uiso   1.00
C176   C     0.19099   0.78377   0.44905   0.00000  Uiso   1.00
C177   C     0.16666   0.74999   0.02733   0.00000  Uiso   1.00
C178   C     0.16664   0.75000   0.47265   0.00000  Uiso   1.00
C179   C     0.06809   0.74961   0.23789   0.00000  Uiso   1.00
C180   C     0.26524   0.75036   0.26212   0.00000  Uiso   1.00
C181   C     0.01369   0.74366   0.23214   0.00000  Uiso   1.00
C182   C     0.31965   0.75626   0.26787   0.00000  Uiso   1.00
C183   C     0.15082   0.54756   0.28919   0.00000  Uiso   1.00
C184   C     0.15141   0.95240   0.20684   0.00000  Uiso   1.00
C185   C     0.15111   0.59347   0.28933   0.00000  Uiso   1.00
C186   C     0.16670   0.83507   0.25001   0.00000  Uiso   1.00
C187   C     0.15173   0.90649   0.20675   0.00000  Uiso   1.00
C188   C     0.16669   0.61671   0.25003   0.00000  Uiso   1.00
C189   C     0.16676   0.88330   0.25002   0.00000  Uiso   1.00
C190   C     0.18233   0.59358   0.21076   0.00000  Uiso   1.00
C191   C     0.18182   0.90650   0.29331   0.00000  Uiso   1.00
C192   C     0.18272   0.54767   0.21094   0.00000  Uiso   1.00
C193   C     0.18217   0.95242   0.29327   0.00000  Uiso   1.00
C194   C     0.16679   0.52429   0.25007   0.00000  Uiso   1.00
C195   C     0.16679   0.97573   0.25006   0.00000  Uiso   1.00
C196   C     0.20633   0.77023   0.05887   0.00000  Uiso   1.00
C197   C     0.14226   0.71624   0.44301   0.00000  Uiso   1.00
C198   C     0.20536   0.77018   0.10949   0.00000  Uiso   1.00
C199   C     0.14239   0.71706   0.39228   0.00000  Uiso   1.00
C200   C     0.12798   0.72982   0.09990   0.00000  Uiso   1.00
C201   C     0.19088   0.78296   0.39829   0.00000  Uiso   1.00
C202   C     0.12701   0.72974   0.04903   0.00000  Uiso   1.00
Cl203  Cl    0.32157   0.71303   0.17976   0.00000  Uiso   1.00
Cl204  Cl    0.01181   0.78675   0.32036   0.00000  Uiso   1.00
Cu205  Cu    0.16667   0.74999   0.29821   0.00000  Uiso   1.00
Cu206  Cu    0.16667   0.75000   0.20178   0.00000  Uiso   1.00
H207   H     0.13751   0.53029   0.31940   0.00000  Uiso   1.00
H208   H     0.12367   0.68886   0.45869   0.00000  Uiso   1.00
H209   H     0.23593   0.78626   0.13291   0.00000  Uiso   1.00
H210   H     0.12310   0.69104   0.37023   0.00000  Uiso   1.00
H211   H     0.09740   0.71375   0.11574   0.00000  Uiso   1.00
H212   H     0.21014   0.80899   0.38102   0.00000  Uiso   1.00
H213   H     0.09487   0.71435   0.02707   0.00000  Uiso   1.00
H214   H     0.20956   0.81116   0.46933   0.00000  Uiso   1.00
H215   H     0.13853   0.96961   0.17322   0.00000  Uiso   1.00
H216   H     0.13847   0.61075   0.31982   0.00000  Uiso   1.00
H217   H     0.13955   0.88918   0.17300   0.00000  Uiso   1.00
H218   H     0.19494   0.61094   0.18026   0.00000  Uiso   1.00
H219   H     0.19399   0.88919   0.32704   0.00000  Uiso   1.00
H220   H     0.19606   0.53050   0.18074   0.00000  Uiso   1.00
H221   H     0.19505   0.96964   0.32690   0.00000  Uiso   1.00
H222   H     0.23847   0.78561   0.04488   0.00000  Uiso   1.00
N223   N     0.16667   0.75001   0.12934   0.00000  Uiso   1.00
N224   N     0.16667   0.74999   0.37065   0.00000  Uiso   1.00
O225   O     0.16667   0.68573   0.29071   0.00000  Uiso   1.00
O226   O     0.16666   0.81427   0.20928   0.00000  Uiso   1.00
O227   O     0.16667   0.68573   0.20928   0.00000  Uiso   1.00
O228   O     0.16666   0.81427   0.29072   0.00000  Uiso   1.00
O229   O     0.09161   0.74999   0.28132   0.00000  Uiso   1.00
O230   O     0.24172   0.75001   0.21868   0.00000  Uiso   1.00
O231   O     0.09161   0.75000   0.19988   0.00000  Uiso   1.00
O232   O     0.24172   0.75000   0.30011   0.00000  Uiso   1.00
C233   C     0.49999   0.66494   0.25000   0.00000  Uiso   1.00
C234   C     0.52432   0.78377   0.44905   0.00000  Uiso   1.00
C235   C     0.49999   0.74999   0.02733   0.00000  Uiso   1.00
C236   C     0.49997   0.75000   0.47265   0.00000  Uiso   1.00
C237   C     0.40142   0.74961   0.23789   0.00000  Uiso   1.00
C238   C     0.59858   0.75036   0.26212   0.00000  Uiso   1.00
C239   C     0.34703   0.74366   0.23214   0.00000  Uiso   1.00
C240   C     0.65298   0.75626   0.26787   0.00000  Uiso   1.00
C241   C     0.48415   0.54756   0.28919   0.00000  Uiso   1.00
C242   C     0.48474   0.95240   0.20684   0.00000  Uiso   1.00
C243   C     0.48444   0.59347   0.28933   0.00000  Uiso   1.00
C244   C     0.50004   0.83507   0.25001   0.00000  Uiso   1.00
C245   C     0.48507   0.90649   0.20675   0.00000  Uiso   1.00
C246   C     0.50002   0.61671   0.25003   0.00000  Uiso   1.00
C247   C     0.50009   0.88330   0.25002   0.00000  Uiso   1.00
C248   C     0.51566   0.59358   0.21076   0.00000  Uiso   1.00
C249   C     0.51516   0.90650   0.29331   0.00000  Uiso   1.00
C250   C     0.51605   0.54767   0.21094   0.00000  Uiso   1.00
C251   C     0.51550   0.95242   0.29327   0.00000  Uiso   1.00
C252   C     0.50012   0.52429   0.25007   0.00000  Uiso   1.00
C253   C     0.50013   0.97573   0.25006   0.00000  Uiso   1.00
C254   C     0.53966   0.77023   0.05887   0.00000  Uiso   1.00
C255   C     0.47559   0.71624   0.44301   0.00000  Uiso   1.00
C256   C     0.53869   0.77018   0.10949   0.00000  Uiso   1.00
C257   C     0.47572   0.71706   0.39228   0.00000  Uiso   1.00
C258   C     0.46131   0.72982   0.09990   0.00000  Uiso   1.00
C259   C     0.52421   0.78296   0.39829   0.00000  Uiso   1.00
C260   C     0.46035   0.72974   0.04903   0.00000  Uiso   1.00
Cl261  Cl    0.65490   0.71303   0.17976   0.00000  Uiso   1.00
Cl262  Cl    0.34515   0.78675   0.32036   0.00000  Uiso   1.00
Cu263  Cu    0.50000   0.74999   0.29821   0.00000  Uiso   1.00
Cu264  Cu    0.50000   0.75000   0.20178   0.00000  Uiso   1.00
H265   H     0.47085   0.53029   0.31940   0.00000  Uiso   1.00
H266   H     0.45700   0.68886   0.45869   0.00000  Uiso   1.00
H267   H     0.56926   0.78626   0.13291   0.00000  Uiso   1.00
H268   H     0.45643   0.69104   0.37023   0.00000  Uiso   1.00
H269   H     0.43074   0.71375   0.11574   0.00000  Uiso   1.00
H270   H     0.54348   0.80899   0.38102   0.00000  Uiso   1.00
H271   H     0.42820   0.71435   0.02707   0.00000  Uiso   1.00
H272   H     0.54289   0.81116   0.46933   0.00000  Uiso   1.00
H273   H     0.47186   0.96961   0.17322   0.00000  Uiso   1.00
H274   H     0.47181   0.61075   0.31982   0.00000  Uiso   1.00
H275   H     0.47289   0.88918   0.17300   0.00000  Uiso   1.00
H276   H     0.52827   0.61094   0.18026   0.00000  Uiso   1.00
H277   H     0.52732   0.88919   0.32704   0.00000  Uiso   1.00
H278   H     0.52940   0.53050   0.18074   0.00000  Uiso   1.00
H279   H     0.52839   0.96964   0.32690   0.00000  Uiso   1.00
H280   H     0.57180   0.78561   0.04488   0.00000  Uiso   1.00
N281   N     0.50000   0.75001   0.12934   0.00000  Uiso   1.00
N282   N     0.50000   0.74999   0.37065   0.00000  Uiso   1.00
O283   O     0.50000   0.68573   0.29071   0.00000  Uiso   1.00
O284   O     0.50000   0.81427   0.20928   0.00000  Uiso   1.00
O285   O     0.50000   0.68573   0.20928   0.00000  Uiso   1.00
O286   O     0.50000   0.81427   0.29072   0.00000  Uiso   1.00
O287   O     0.42495   0.74999   0.28132   0.00000  Uiso   1.00
O288   O     0.57505   0.75001   0.21868   0.00000  Uiso   1.00
O289   O     0.42495   0.75000   0.19988   0.00000  Uiso   1.00
O290   O     0.57505   0.75000   0.30011   0.00000  Uiso   1.00
C291   C     0.83332   0.66494   0.25000   0.00000  Uiso   1.00
C292   C     0.85765   0.78377   0.44905   0.00000  Uiso   1.00
C293   C     0.83333   0.74999   0.02733   0.00000  Uiso   1.00
C294   C     0.83330   0.75000   0.47265   0.00000  Uiso   1.00
C295   C     0.73476   0.74961   0.23789   0.00000  Uiso   1.00
C296   C     0.93191   0.75036   0.26212   0.00000  Uiso   1.00
C297   C     0.68036   0.74366   0.23214   0.00000  Uiso   1.00
C298   C     0.98632   0.75626   0.26787   0.00000  Uiso   1.00
C299   C     0.81749   0.54756   0.28919   0.00000  Uiso   1.00
C300   C     0.81808   0.95240   0.20684   0.00000  Uiso   1.00
C301   C     0.81778   0.59347   0.28933   0.00000  Uiso   1.00
C302   C     0.83337   0.83507   0.25001   0.00000  Uiso   1.00
C303   C     0.81840   0.90649   0.20675   0.00000  Uiso   1.00
C304   C     0.83336   0.61671   0.25003   0.00000  Uiso   1.00
C305   C     0.83343   0.88330   0.25002   0.00000  Uiso   1.00
C306   C     0.84900   0.59358   0.21076   0.00000  Uiso   1.00
C307   C     0.84849   0.90650   0.29331   0.00000  Uiso   1.00
C308   C     0.84939   0.54767   0.21094   0.00000  Uiso   1.00
C309   C     0.84884   0.95242   0.29327   0.00000  Uiso   1.00
C310   C     0.83345   0.52429   0.25007   0.00000  Uiso   1.00
C311   C     0.83346   0.97573   0.25006   0.00000  Uiso   1.00
C312   C     0.87299   0.77023   0.05887   0.00000  Uiso   1.00
C313   C     0.80892   0.71624   0.44301   0.00000  Uiso   1.00
C314   C     0.87203   0.77018   0.10949   0.00000  Uiso   1.00
C315   C     0.80905   0.71706   0.39228   0.00000  Uiso   1.00
C316   C     0.79464   0.72982   0.09990   0.00000  Uiso   1.00
C317   C     0.85755   0.78296   0.39829   0.00000  Uiso   1.00
C318   C     0.79368   0.72974   0.04903   0.00000  Uiso   1.00
Cl319  Cl    0.98824   0.71303   0.17976   0.00000  Uiso   1.00
Cl320  Cl    0.67848   0.78675   0.32036   0.00000  Uiso   1.00
Cu321  Cu    0.83333   0.74999   0.29821   0.00000  Uiso   1.00
Cu322  Cu    0.83333   0.75000   0.20178   0.00000  Uiso   1.00
H323   H     0.80418   0.53029   0.31940   0.00000  Uiso   1.00
H324   H     0.79033   0.68886   0.45869   0.00000  Uiso   1.00
H325   H     0.90259   0.78626   0.13291   0.00000  Uiso   1.00
H326   H     0.78977   0.69104   0.37023   0.00000  Uiso   1.00
H327   H     0.76407   0.71375   0.11574   0.00000  Uiso   1.00
H328   H     0.87681   0.80899   0.38102   0.00000  Uiso   1.00
H329   H     0.76154   0.71435   0.02707   0.00000  Uiso   1.00
H330   H     0.87622   0.81116   0.46933   0.00000  Uiso   1.00
H331   H     0.80520   0.96961   0.17322   0.00000  Uiso   1.00
H332   H     0.80514   0.61075   0.31982   0.00000  Uiso   1.00
H333   H     0.80622   0.88918   0.17300   0.00000  Uiso   1.00
H334   H     0.86161   0.61094   0.18026   0.00000  Uiso   1.00
H335   H     0.86066   0.88919   0.32704   0.00000  Uiso   1.00
H336   H     0.86273   0.53050   0.18074   0.00000  Uiso   1.00
H337   H     0.86172   0.96964   0.32690   0.00000  Uiso   1.00
H338   H     0.90514   0.78561   0.04488   0.00000  Uiso   1.00
N339   N     0.83333   0.75001   0.12934   0.00000  Uiso   1.00
N340   N     0.83333   0.74999   0.37065   0.00000  Uiso   1.00
O341   O     0.83334   0.68573   0.29071   0.00000  Uiso   1.00
O342   O     0.83333   0.81427   0.20928   0.00000  Uiso   1.00
O343   O     0.83334   0.68573   0.20928   0.00000  Uiso   1.00
O344   O     0.83333   0.81427   0.29072   0.00000  Uiso   1.00
O345   O     0.75828   0.74999   0.28132   0.00000  Uiso   1.00
O346   O     0.90839   0.75001   0.21868   0.00000  Uiso   1.00
O347   O     0.75828   0.75000   0.19988   0.00000  Uiso   1.00
O348   O     0.90839   0.75000   0.30011   0.00000  Uiso   1.00
C349   C     0.16666   0.16494   0.75000   0.00000  Uiso   1.00
C350   C     0.19099   0.28377   0.94905   0.00000  Uiso   1.00
C351   C     0.16666   0.24999   0.52733   0.00000  Uiso   1.00
C352   C     0.16664   0.25000   0.97265   0.00000  Uiso   1.00
C353   C     0.06809   0.24961   0.73789   0.00000  Uiso   1.00
C354   C     0.26524   0.25036   0.76212   0.00000  Uiso   1.00
C355   C     0.01369   0.24366   0.73214   0.00000  Uiso   1.00
C356   C     0.31965   0.25626   0.76787   0.00000  Uiso   1.00
C357   C     0.15082   0.04756   0.78919   0.00000  Uiso   1.00
C358   C     0.15141   0.45240   0.70684   0.00000  Uiso   1.00
C359   C     0.15111   0.09347   0.78933   0.00000  Uiso   1.00
C360   C     0.16670   0.33507   0.75001   0.00000  Uiso   1.00
C361   C     0.15173   0.40649   0.70675   0.00000  Uiso   1.00
C362   C     0.16669   0.11671   0.75003   0.00000  Uiso   1.00
C363   C     0.16676   0.38330   0.75002   0.00000  Uiso   1.00
C364   C     0.18233   0.09358   0.71076   0.00000  Uiso   1.00
C365   C     0.18182   0.40650   0.79331   0.00000  Uiso   1.00
C366   C     0.18272   0.04767   0.71094   0.00000  Uiso   1.00
C367   C     0.18217   0.45242   0.79327   0.00000  Uiso   1.00
C368   C     0.16679   0.02429   0.75007   0.00000  Uiso   1.00
C369   C     0.16679   0.47573   0.75006   0.00000  Uiso   1.00
C370   C     0.20633   0.27023   0.55887   0.00000  Uiso   1.00
C371   C     0.14226   0.21624   0.94301   0.00000  Uiso   1.00
C372   C     0.20536   0.27018   0.60949   0.00000  Uiso   1.00
C373   C     0.14239   0.21706   0.89228   0.00000  Uiso   1.00
C374   C     0.12798   0.22982   0.59990   0.00000  Uiso   1.00
C375   C     0.19088   0.28296   0.89829   0.00000  Uiso   1.00
C376   C     0.12701   0.22974   0.54903   0.00000  Uiso   1.00
Cl377  Cl    0.32157   0.21303   0.67976   0.00000  Uiso   1.00
Cl378  Cl    0.01181   0.28675   0.82036   0.00000  Uiso   1.00
Cu379  Cu    0.16667   0.24999   0.79821   0.00000  Uiso   1.00
Cu380  Cu    0.16667   0.25000   0.70178   0.00000  Uiso   1.00
H381   H     0.13751   0.03029   0.81940   0.00000  Uiso   1.00
H382   H     0.12367   0.18886   0.95869   0.00000  Uiso   1.00
H383   H     0.23593   0.28626   0.63291   0.00000  Uiso   1.00
H384   H     0.12310   0.19104   0.87023   0.00000  Uiso   1.00
H385   H     0.09740   0.21375   0.61574   0.00000  Uiso   1.00
H386   H     0.21014   0.30899   0.88102   0.00000  Uiso   1.00
H387   H     0.09487   0.21435   0.52707   0.00000  Uiso   1.00
H388   H     0.20956   0.31116   0.96933   0.00000  Uiso   1.00
H389   H     0.13853   0.46961   0.67322   0.00000  Uiso   1.00
H390   H     0.13847   0.11075   0.81982   0.00000  Uiso   1.00
H391   H     0.13955   0.38918   0.67300   0.00000  Uiso   1.00
H392   H     0.19494   0.11094   0.68026   0.00000  Uiso   1.00
H393   H     0.19399   0.38919   0.82704   0.00000  Uiso   1.00
H394   H     0.19606   0.03050   0.68074   0.00000  Uiso   1.00
H395   H     0.19505   0.46964   0.82690   0.00000  Uiso   1.00
H396   H     0.23847   0.28561   0.54488   0.00000  Uiso   1.00
N397   N     0.16667   0.25001   0.62934   0.00000  Uiso   1.00
N398   N     0.16667   0.24999   0.87065   0.00000  Uiso   1.00
O399   O     0.16667   0.18573   0.79071   0.00000  Uiso   1.00
O400   O     0.16666   0.31427   0.70928   0.00000  Uiso   1.00
O401   O     0.16667   0.18573   0.70928   0.00000  Uiso   1.00
O402   O     0.16666   0.31427   0.79072   0.00000  Uiso   1.00
O403   O     0.09161   0.24999   0.78132   0.00000  Uiso   1.00
O404   O     0.24172   0.25001   0.71868   0.00000  Uiso   1.00
O405   O     0.09161   0.25000   0.69988   0.00000  Uiso   1.00
O406   O     0.24172   0.25000   0.80011   0.00000  Uiso   1.00
C407   C     0.49999   0.16494   0.75000   0.00000  Uiso   1.00
C408   C     0.52432   0.28377   0.94905   0.00000  Uiso   1.00
C409   C     0.49999   0.24999   0.52733   0.00000  Uiso   1.00
C410   C     0.49997   0.25000   0.97265   0.00000  Uiso   1.00
C411   C     0.40142   0.24961   0.73789   0.00000  Uiso   1.00
C412   C     0.59858   0.25036   0.76212   0.00000  Uiso   1.00
C413   C     0.34703   0.24366   0.73214   0.00000  Uiso   1.00
C414   C     0.65298   0.25626   0.76787   0.00000  Uiso   1.00
C415   C     0.48415   0.04756   0.78919   0.00000  Uiso   1.00
C416   C     0.48474   0.45240   0.70684   0.00000  Uiso   1.00
C417   C     0.48444   0.09347   0.78933   0.00000  Uiso   1.00
C418   C     0.50004   0.33507   0.75001   0.00000  Uiso   1.00
C419   C     0.48507   0.40649   0.70675   0.00000  Uiso   1.00
C420   C     0.50002   0.11671   0.75003   0.00000  Uiso   1.00
C421   C     0.50009   0.38330   0.75002   0.00000  Uiso   1.00
C422   C     0.51566   0.09358   0.71076   0.00000  Uiso   1.00
C423   C     0.51516   0.40650   0.79331   0.00000  Uiso   1.00
C424   C     0.51605   0.04767   0.71094   0.00000  Uiso   1.00
C425   C     0.51550   0.45242   0.79327   0.00000  Uiso   1.00
C426   C     0.50012   0.02429   0.75007   0.00000  Uiso   1.00
C427   C     0.50013   0.47573   0.75006   0.00000  Uiso   1.00
C428   C     0.53966   0.27023   0.55887   0.00000  Uiso   1.00
C429   C     0.47559   0.21624   0.94301   0.00000  Uiso   1.00
C430   C     0.53869   0.27018   0.60949   0.00000  Uiso   1.00
C431   C     0.47572   0.21706   0.89228   0.00000  Uiso   1.00
C432   C     0.46131   0.22982   0.59990   0.00000  Uiso   1.00
C433   C     0.52421   0.28296   0.89829   0.00000  Uiso   1.00
C434   C     0.46035   0.22974   0.54903   0.00000  Uiso   1.00
Cl435  Cl    0.65490   0.21303   0.67976   0.00000  Uiso   1.00
Cl436  Cl    0.34515   0.28675   0.82036   0.00000  Uiso   1.00
Cu437  Cu    0.50000   0.24999   0.79821   0.00000  Uiso   1.00
Cu438  Cu    0.50000   0.25000   0.70178   0.00000  Uiso   1.00
H439   H     0.47085   0.03029   0.81940   0.00000  Uiso   1.00
H440   H     0.45700   0.18886   0.95869   0.00000  Uiso   1.00
H441   H     0.56926   0.28626   0.63291   0.00000  Uiso   1.00
H442   H     0.45643   0.19104   0.87023   0.00000  Uiso   1.00
H443   H     0.43074   0.21375   0.61574   0.00000  Uiso   1.00
H444   H     0.54348   0.30899   0.88102   0.00000  Uiso   1.00
H445   H     0.42820   0.21435   0.52707   0.00000  Uiso   1.00
H446   H     0.54289   0.31116   0.96933   0.00000  Uiso   1.00
H447   H     0.47186   0.46961   0.67322   0.00000  Uiso   1.00
H448   H     0.47181   0.11075   0.81982   0.00000  Uiso   1.00
H449   H     0.47289   0.38918   0.67300   0.00000  Uiso   1.00
H450   H     0.52827   0.11094   0.68026   0.00000  Uiso   1.00
H451   H     0.52732   0.38919   0.82704   0.00000  Uiso   1.00
H452   H     0.52940   0.03050   0.68074   0.00000  Uiso   1.00
H453   H     0.52839   0.46964   0.82690   0.00000  Uiso   1.00
H454   H     0.57180   0.28561   0.54488   0.00000  Uiso   1.00
N455   N     0.50000   0.25001   0.62934   0.00000  Uiso   1.00
N456   N     0.50000   0.24999   0.87065   0.00000  Uiso   1.00
O457   O     0.50000   0.18573   0.79071   0.00000  Uiso   1.00
O458   O     0.50000   0.31427   0.70928   0.00000  Uiso   1.00
O459   O     0.50000   0.18573   0.70928   0.00000  Uiso   1.00
O460   O     0.50000   0.31427   0.79072   0.00000  Uiso   1.00
O461   O     0.42495   0.24999   0.78132   0.00000  Uiso   1.00
O462   O     0.57505   0.25001   0.71868   0.00000  Uiso   1.00
O463   O     0.42495   0.25000   0.69988   0.00000  Uiso   1.00
O464   O     0.57505   0.25000   0.80011   0.00000  Uiso   1.00
C465   C     0.83332   0.16494   0.75000   0.00000  Uiso   1.00
C466   C     0.85765   0.28377   0.94905   0.00000  Uiso   1.00
C467   C     0.83333   0.24999   0.52733   0.00000  Uiso   1.00
C468   C     0.83330   0.25000   0.97265   0.00000  Uiso   1.00
C469   C     0.73476   0.24961   0.73789   0.00000  Uiso   1.00
C470   C     0.93191   0.25036   0.76212   0.00000  Uiso   1.00
C471   C     0.68036   0.24366   0.73214   0.00000  Uiso   1.00
C472   C     0.98632   0.25626   0.76787   0.00000  Uiso   1.00
C473   C     0.81749   0.04756   0.78919   0.00000  Uiso   1.00
C474   C     0.81808   0.45240   0.70684   0.00000  Uiso   1.00
C475   C     0.81778   0.09347   0.78933   0.00000  Uiso   1.00
C476   C     0.83337   0.33507   0.75001   0.00000  Uiso   1.00
C477   C     0.81840   0.40649   0.70675   0.00000  Uiso   1.00
C478   C     0.83336   0.11671   0.75003   0.00000  Uiso   1.00
C479   C     0.83343   0.38330   0.75002   0.00000  Uiso   1.00
C480   C     0.84900   0.09358   0.71076   0.00000  Uiso   1.00
C481   C     0.84849   0.40650   0.79331   0.00000  Uiso   1.00
C482   C     0.84939   0.04767   0.71094   0.00000  Uiso   1.00
C483   C     0.84884   0.45242   0.79327   0.00000  Uiso   1.00
C484   C     0.83345   0.02429   0.75007   0.00000  Uiso   1.00
C485   C     0.83346   0.47573   0.75006   0.00000  Uiso   1.00
C486   C     0.87299   0.27023   0.55887   0.00000  Uiso   1.00
C487   C     0.80892   0.21624   0.94301   0.00000  Uiso   1.00
C488   C     0.87203   0.27018   0.60949   0.00000  Uiso   1.00
C489   C     0.80905   0.21706   0.89228   0.00000  Uiso   1.00
C490   C     0.79464   0.22982   0.59990   0.00000  Uiso   1.00
C491   C     0.85755   0.28296   0.89829   0.00000  Uiso   1.00
C492   C     0.79368   0.22974   0.54903   0.00000  Uiso   1.00
Cl493  Cl    0.98824   0.21303   0.67976   0.00000  Uiso   1.00
Cl494  Cl    0.67848   0.28675   0.82036   0.00000  Uiso   1.00
Cu495  Cu    0.83333   0.24999   0.79821   0.00000  Uiso   1.00
Cu496  Cu    0.83333   0.25000   0.70178   0.00000  Uiso   1.00
H497   H     0.80418   0.03029   0.81940   0.00000  Uiso   1.00
H498   H     0.79033   0.18886   0.95869   0.00000  Uiso   1.00
H499   H     0.90259   0.28626   0.63291   0.00000  Uiso   1.00
H500   H     0.78977   0.19104   0.87023   0.00000  Uiso   1.00
H501   H     0.76407   0.21375   0.61574   0.00000  Uiso   1.00
H502   H     0.87681   0.30899   0.88102   0.00000  Uiso   1.00
H503   H     0.76154   0.21435   0.52707   0.00000  Uiso   1.00
H504   H     0.87622   0.31116   0.96933   0.00000  Uiso   1.00
H505   H     0.80520   0.46961   0.67322   0.00000  Uiso   1.00
H506   H     0.80514   0.11075   0.81982   0.00000  Uiso   1.00
H507   H     0.80622   0.38918   0.67300   0.00000  Uiso   1.00
H508   H     0.86161   0.11094   0.68026   0.00000  Uiso   1.00
H509   H     0.86066   0.38919   0.82704   0.00000  Uiso   1.00
H510   H     0.86273   0.03050   0.68074   0.00000  Uiso   1.00
H511   H     0.86172   0.46964   0.82690   0.00000  Uiso   1.00
H512   H     0.90514   0.28561   0.54488   0.00000  Uiso   1.00
N513   N     0.83333   0.25001   0.62934   0.00000  Uiso   1.00
N514   N     0.83333   0.24999   0.87065   0.00000  Uiso   1.00
O515   O     0.83334   0.18573   0.79071   0.00000  Uiso   1.00
O516   O     0.83333   0.31427   0.70928   0.00000  Uiso   1.00
O517   O     0.83334   0.18573   0.70928   0.00000  Uiso   1.00
O518   O     0.83333   0.31427   0.79072   0.00000  Uiso   1.00
O519   O     0.75828   0.24999   0.78132   0.00000  Uiso   1.00
O520   O     0.90839   0.25001   0.71868   0.00000  Uiso   1.00
O521   O     0.75828   0.25000   0.69988   0.00000  Uiso   1.00
O522   O     0.90839   0.25000   0.80011   0.00000  Uiso   1.00
C523   C     0.16666   0.66494   0.75000   0.00000  Uiso   1.00
C524   C     0.19099   0.78377   0.94905   0.00000  Uiso   1.00
C525   C     0.16666   0.74999   0.52733   0.00000  Uiso   1.00
C526   C     0.16664   0.75000   0.97265   0.00000  Uiso   1.00
C527   C     0.06809   0.74961   0.73789   0.00000  Uiso   1.00
C528   C     0.26524   0.75036   0.76212   0.00000  Uiso   1.00
C529   C     0.01369   0.74366   0.73214   0.00000  Uiso   1.00
C530   C     0.31965   0.75626   0.76787   0.00000  Uiso   1.00
C531   C     0.15082   0.54756   0.78919   0.00000  Uiso   1.00
C532   C     0.15141   0.95240   0.70684   0.00000  Uiso   1.00
C533   C     0.15111   0.59347   0.78933   0.00000  Uiso   1.00
C534   C     0.16670   0.83507   0.75001   0.00000  Uiso   1.00
C535   C     0.15173   0.90649   0.70675   0.00000  Uiso   1.00
C536   C     0.16669   0.61671   0.75003   0.00000  Uiso   1.00
C537   C     0.16676   0.88330   0.75002   0.00000  Uiso   1.00
C538   C     0.18233   0.59358   0.71076   0.00000  Uiso   1.00
C539   C     0.18182   0.90650   0.79331   0.00000  Uiso   1.00
C540   C     0.18272   0.54767   0.71094   0.00000  Uiso   1.00
C541   C     0.18217   0.95242   0.79327   0.00000  Uiso   1.00
C542   C     0.16679   0.52429   0.75007   0.00000  Uiso   1.00
C543   C     0.16679   0.97573   0.75006   0.00000  Uiso   1.00
C544   C     0.20633   0.77023   0.55887   0.00000  Uiso   1.00
C545   C     0.14226   0.71624   0.94301   0.00000  Uiso   1.00
C546   C     0.20536   0.77018   0.60949   0.00000  Uiso   1.00
C547   C     0.14239   0.71706   0.89228   0.00000  Uiso   1.00
C548   C     0.12798   0.72982   0.59990   0.00000  Uiso   1.00
C549   C     0.19088   0.78296   0.89829   0.00000  Uiso   1.00
C550   C     0.12701   0.72974   0.54903   0.00000  Uiso   1.00
Cl551  Cl    0.32157   0.71303   0.67976   0.00000  Uiso   1.00
Cl552  Cl    0.01181   0.78675   0.82036   0.00000  Uiso   1.00
Cu553  Cu    0.16667   0.74999   0.79821   0.00000  Uiso   1.00
Cu554  Cu    0.16667   0.75000   0.70178   0.00000  Uiso   1.00
H555   H     0.13751   0.53029   0.81940   0.00000  Uiso   1.00
H556   H     0.12367   0.68886   0.95869   0.00000  Uiso   1.00
H557   H     0.23593   0.78626   0.63291   0.00000  Uiso   1.00
H558   H     0.12310   0.69104   0.87023   0.00000  Uiso   1.00
H559   H     0.09740   0.71375   0.61574   0.00000  Uiso   1.00
H560   H     0.21014   0.80899   0.88102   0.00000  Uiso   1.00
H561   H     0.09487   0.71435   0.52707   0.00000  Uiso   1.00
H562   H     0.20956   0.81116   0.96933   0.00000  Uiso   1.00
H563   H     0.13853   0.96961   0.67322   0.00000  Uiso   1.00
H564   H     0.13847   0.61075   0.81982   0.00000  Uiso   1.00
H565   H     0.13955   0.88918   0.67300   0.00000  Uiso   1.00
H566   H     0.19494   0.61094   0.68026   0.00000  Uiso   1.00
H567   H     0.19399   0.88919   0.82704   0.00000  Uiso   1.00
H568   H     0.19606   0.53050   0.68074   0.00000  Uiso   1.00
H569   H     0.19505   0.96964   0.82690   0.00000  Uiso   1.00
H570   H     0.23847   0.78561   0.54488   0.00000  Uiso   1.00
N571   N     0.16667   0.75001   0.62934   0.00000  Uiso   1.00
N572   N     0.16667   0.74999   0.87065   0.00000  Uiso   1.00
O573   O     0.16667   0.68573   0.79071   0.00000  Uiso   1.00
O574   O     0.16666   0.81427   0.70928   0.00000  Uiso   1.00
O575   O     0.16667   0.68573   0.70928   0.00000  Uiso   1.00
O576   O     0.16666   0.81427   0.79072   0.00000  Uiso   1.00
O577   O     0.09161   0.74999   0.78132   0.00000  Uiso   1.00
O578   O     0.24172   0.75001   0.71868   0.00000  Uiso   1.00
O579   O     0.09161   0.75000   0.69988   0.00000  Uiso   1.00
O580   O     0.24172   0.75000   0.80011   0.00000  Uiso   1.00
C581   C     0.49999   0.66494   0.75000   0.00000  Uiso   1.00
C582   C     0.52432   0.78377   0.94905   0.00000  Uiso   1.00
C583   C     0.49999   0.74999   0.52733   0.00000  Uiso   1.00
C584   C     0.49997   0.75000   0.97265   0.00000  Uiso   1.00
C585   C     0.40142   0.74961   0.73789   0.00000  Uiso   1.00
C586   C     0.59858   0.75036   0.76212   0.00000  Uiso   1.00
C587   C     0.34703   0.74366   0.73214   0.00000  Uiso   1.00
C588   C     0.65298   0.75626   0.76787   0.00000  Uiso   1.00
C589   C     0.48415   0.54756   0.78919   0.00000  Uiso   1.00
C590   C     0.48474   0.95240   0.70684   0.00000  Uiso   1.00
C591   C     0.48444   0.59347   0.78933   0.00000  Uiso   1.00
C592   C     0.50004   0.83507   0.75001   0.00000  Uiso   1.00
C593   C     0.48507   0.90649   0.70675   0.00000  Uiso   1.00
C594   C     0.50002   0.61671   0.75003   0.00000  Uiso   1.00
C595   C     0.50009   0.88330   0.75002   0.00000  Uiso   1.00
C596   C     0.51566   0.59358   0.71076   0.00000  Uiso   1.00
C597   C     0.51516   0.90650   0.79331   0.00000  Uiso   1.00
C598   C     0.51605   0.54767   0.71094   0.00000  Uiso   1.00
C599   C     0.51550   0.95242   0.79327   0.00000  Uiso   1.00
C600   C     0.50012   0.52429   0.75007   0.00000  Uiso   1.00
C601   C     0.50013   0.97573   0.75006   0.00000  Uiso   1.00
C602   C     0.53966   0.77023   0.55887   0.00000  Uiso   1.00
C603   C     0.47559   0.71624   0.94301   0.00000  Uiso   1.00
C604   C     0.53869   0.77018   0.60949   0.00000  Uiso   1.00
C605   C     0.47572   0.71706   0.89228   0.00000  Uiso   1.00
C606   C     0.46131   0.72982   0.59990   0.00000  Uiso   1.00
C607   C     0.52421   0.78296   0.89829   0.00000  Uiso   1.00
C608   C     0.46035   0.72974   0.54903   0.00000  Uiso   1.00
Cl609  Cl    0.65490   0.71303   0.67976   0.00000  Uiso   1.00
Cl610  Cl    0.34515   0.78675   0.82036   0.00000  Uiso   1.00
Cu611  Cu    0.50000   0.74999   0.79821   0.00000  Uiso   1.00
Cu612  Cu    0.50000   0.75000   0.70178   0.00000  Uiso   1.00
H613   H     0.47085   0.53029   0.81940   0.00000  Uiso   1.00
H614   H     0.45700   0.68886   0.95869   0.00000  Uiso   1.00
H615   H     0.56926   0.78626   0.63291   0.00000  Uiso   1.00
H616   H     0.45643   0.69104   0.87023   0.00000  Uiso   1.00
H617   H     0.43074   0.71375   0.61574   0.00000  Uiso   1.00
H618   H     0.54348   0.80899   0.88102   0.00000  Uiso   1.00
H619   H     0.42820   0.71435   0.52707   0.00000  Uiso   1.00
H620   H     0.54289   0.81116   0.96933   0.00000  Uiso   1.00
H621   H     0.47186   0.96961   0.67322   0.00000  Uiso   1.00
H622   H     0.47181   0.61075   0.81982   0.00000  Uiso   1.00
H623   H     0.47289   0.88918   0.67300   0.00000  Uiso   1.00
H624   H     0.52827   0.61094   0.68026   0.00000  Uiso   1.00
H625   H     0.52732   0.88919   0.82704   0.00000  Uiso   1.00
H626   H     0.52940   0.53050   0.68074   0.00000  Uiso   1.00
H627   H     0.52839   0.96964   0.82690   0.00000  Uiso   1.00
H628   H     0.57180   0.78561   0.54488   0.00000  Uiso   1.00
N629   N     0.50000   0.75001   0.62934   0.00000  Uiso   1.00
N630   N     0.50000   0.74999   0.87065   0.00000  Uiso   1.00
O631   O     0.50000   0.68573   0.79071   0.00000  Uiso   1.00
O632   O     0.50000   0.81427   0.70928   0.00000  Uiso   1.00
O633   O     0.50000   0.68573   0.70928   0.00000  Uiso   1.00
O634   O     0.50000   0.81427   0.79072   0.00000  Uiso   1.00
O635   O     0.42495   0.74999   0.78132   0.00000  Uiso   1.00
O636   O     0.57505   0.75001   0.71868   0.00000  Uiso   1.00
O637   O     0.42495   0.75000   0.69988   0.00000  Uiso   1.00
O638   O     0.57505   0.75000   0.80011   0.00000  Uiso   1.00
C639   C     0.83332   0.66494   0.75000   0.00000  Uiso   1.00
C640   C     0.85765   0.78377   0.94905   0.00000  Uiso   1.00
C641   C     0.83333   0.74999   0.52733   0.00000  Uiso   1.00
C642   C     0.83330   0.75000   0.97265   0.00000  Uiso   1.00
C643   C     0.73476   0.74961   0.73789   0.00000  Uiso   1.00
C644   C     0.93191   0.75036   0.76212   0.00000  Uiso   1.00
C645   C     0.68036   0.74366   0.73214   0.00000  Uiso   1.00
C646   C     0.98632   0.75626   0.76787   0.00000  Uiso   1.00
C647   C     0.81749   0.54756   0.78919   0.00000  Uiso   1.00
C648   C     0.81808   0.95240   0.70684   0.00000  Uiso   1.00
C649   C     0.81778   0.59347   0.78933   0.00000  Uiso   1.00
C650   C     0.83337   0.83507   0.75001   0.00000  Uiso   1.00
C651   C     0.81840   0.90649   0.70675   0.00000  Uiso   1.00
C652   C     0.83336   0.61671   0.75003   0.00000  Uiso   1.00
C653   C     0.83343   0.88330   0.75002   0.00000  Uiso   1.00
C654   C     0.84900   0.59358   0.71076   0.00000  Uiso   1.00
C655   C     0.84849   0.90650   0.79331   0.00000  Uiso   1.00
C656   C     0.84939   0.54767   0.71094   0.00000  Uiso   1.00
C657   C     0.84884   0.95242   0.79327   0.00000  Uiso   1.00
C658   C     0.83345   0.52429   0.75007   0.00000  Uiso   1.00
C659   C     0.83346   0.97573   0.75006   0.00000  Uiso   1.00
C660   C     0.87299   0.77023   0.55887   0.00000  Uiso   1.00
C661   C     0.80892   0.71624   0.94301   0.00000  Uiso   1.00
C662   C     0.87203   0.77018   0.60949   0.00000  Uiso   1.00
C663   C     0.80905   0.71706   0.89228   0.00000  Uiso   1.00
C664   C     0.79464   0.72982   0.59990   0.00000  Uiso   1.00
C665   C     0.85755   0.78296   0.89829   0.00000  Uiso   1.00
C666   C     0.79368   0.72974   0.54903   0.00000  Uiso   1.00
Cl667  Cl    0.98824   0.71303   0.67976   0.00000  Uiso   1.00
Cl668  Cl    0.67848   0.78675   0.82036   0.00000  Uiso   1.00
Cu669  Cu    0.83333   0.74999   0.79821   0.00000  Uiso   1.00
Cu670  Cu    0.83333   0.75000   0.70178   0.00000  Uiso   1.00
H671   H     0.80418   0.53029   0.81940   0.00000  Uiso   1.00
H672   H     0.79033   0.68886   0.95869   0.00000  Uiso   1.00
H673   H     0.90259   0.78626   0.63291   0.00000  Uiso   1.00
H674   H     0.78977   0.69104   0.87023   0.00000  Uiso   1.00
H675   H     0.76407   0.71375   0.61574   0.00000  Uiso   1.00
H676   H     0.87681   0.80899   0.88102   0.00000  Uiso   1.00
H677   H     0.76154   0.71435   0.52707   0.00000  Uiso   1.00
H678   H     0.87622   0.81116   0.96933   0.00000  Uiso   1.00
H679   H     0.80520   0.96961   0.67322   0.00000  Uiso   1.00
H680   H     0.80514   0.61075   0.81982   0.00000  Uiso   1.00
H681   H     0.80622   0.88918   0.67300   0.00000  Uiso   1.00
H682   H     0.86161   0.61094   0.68026   0.00000  Uiso   1.00
H683   H     0.86066   0.88919   0.82704   0.00000  Uiso   1.00
H684   H     0.86273   0.53050   0.68074   0.00000  Uiso   1.00
H685   H     0.86172   0.96964   0.82690   0.00000  Uiso   1.00
H686   H     0.90514   0.78561   0.54488   0.00000  Uiso   1.00
N687   N     0.83333   0.75001   0.62934   0.00000  Uiso   1.00
N688   N     0.83333   0.74999   0.87065   0.00000  Uiso   1.00
O689   O     0.83334   0.68573   0.79071   0.00000  Uiso   1.00
O690   O     0.83333   0.81427   0.70928   0.00000  Uiso   1.00
O691   O     0.83334   0.68573   0.70928   0.00000  Uiso   1.00
O692   O     0.83333   0.81427   0.79072   0.00000  Uiso   1.00
O693   O     0.75828   0.74999   0.78132   0.00000  Uiso   1.00
O694   O     0.90839   0.75001   0.71868   0.00000  Uiso   1.00
O695   O     0.75828   0.75000   0.69988   0.00000  Uiso   1.00
O696   O     0.90839   0.75000   0.80011   0.00000  Uiso   1.00
loop_
_geom_bond_atom_site_label_1
_geom_bond_atom_site_label_2
_geom_bond_distance
_geom_bond_site_symmetry_2
_ccdc_geom_bond_type
C1     O51     1.292   .     A
C1     O53     1.292   .     A
C1     C14     1.460   .     S
C2     C4      1.411   .     A
C2     C27     1.406   .     A
C2     H40     1.081   .     S
C3     C28     1.411   .     A
C3     C22     1.411   .     A
C3     C352    1.515   1_554 S
C4     C23     1.411   .     A
C4     C351    1.515   .     S
C5     O57     1.290   .     A
C5     C7      1.433   .     S
C5     O55     1.280   .     A
C6     O58     1.290   .     A
C6     C8      1.433   .     S
C6     O56     1.280   .     A
C7     C124    1.355   1_455 S
C7     Cl145   1.778   1_455 S
C8     C65     1.355   .     S
C8     Cl88    1.778   .     S
C9     C11     1.390   .     A
C9     C20     1.404   .     A
C9     H33     1.083   .     S
C10    H41     1.083   .     S
C10    C21     1.404   .     A
C10    C13     1.390   .     A
C11    C14     1.402   .     A
C11    H42     1.083   .     S
C12    C15     1.460   .     S
C12    O52     1.292   .     A
C12    O54     1.292   .     A
C13    C15     1.402   .     A
C13    H43     1.083   .     S
C14    C16     1.402   .     A
C15    C17     1.402   .     A
C16    C18     1.390   .     A
C16    H44     1.083   .     S
C17    C19     1.390   .     A
C17    H45     1.083   .     S
C18    H46     1.083   .     S
C18    C20     1.404   .     A
C19    H47     1.083   .     S
C19    C21     1.404   .     A
C20    C195    1.470   1_545 S
C21    C194    1.470   .     S
C22    C24     1.406   .     A
C22    H48     1.081   .     S
C23    H34     1.081   .     S
C23    C25     1.406   .     A
C24    H35     1.081   .     S
C24    N49     1.364   .     A
C25    H36     1.081   .     S
C25    N50     1.364   .     A
C26    H37     1.081   .     S
C26    C28     1.406   .     A
C26    N49     1.364   .     A
C27    H38     1.081   .     S
C27    N50     1.364   .     A
C28    H39     1.081   .     S
Cl29   C65     1.778   .     S
Cl30   C124    1.778   1_455 S
Cu31   Cu32    2.672   .     S
Cu31   O55     1.973   .     S
Cu31   O54     1.957   .     S
Cu31   O58     1.973   .     S
Cu31   N50     2.007   .     S
Cu31   O51     1.957   .     S
Cu32   O57     1.973   .     S
Cu32   O56     1.973   .     S
Cu32   N49     2.007   .     S
Cu32   O53     1.957   .     S
Cu32   O52     1.957   .     S
C59    O109    1.292   .     A
C59    O111    1.292   .     A
C59    C72     1.460   .     S
C60    C62     1.411   .     A
C60    C85     1.406   .     A
C60    H98     1.081   .     S
C61    C86     1.411   .     A
C61    C80     1.411   .     A
C61    C410    1.515   1_554 S
C62    C81     1.411   .     A
C62    C409    1.515   .     S
C63    O115    1.290   .     A
C63    C65     1.433   .     S
C63    O113    1.280   .     A
C64    O116    1.290   .     A
C64    C66     1.433   .     S
C64    O114    1.280   .     A
C66    C123    1.355   .     S
C66    Cl146   1.778   .     S
C67    C69     1.390   .     A
C67    C78     1.404   .     A
C67    H91     1.083   .     S
C68    H99     1.083   .     S
C68    C79     1.404   .     A
C68    C71     1.390   .     A
C69    C72     1.402   .     A
C69    H100    1.083   .     S
C70    C73     1.460   .     S
C70    O110    1.292   .     A
C70    O112    1.292   .     A
C71    C73     1.402   .     A
C71    H101    1.083   .     S
C72    C74     1.402   .     A
C73    C75     1.402   .     A
C74    C76     1.390   .     A
C74    H102    1.083   .     S
C75    C77     1.390   .     A
C75    H103    1.083   .     S
C76    H104    1.083   .     S
C76    C78     1.404   .     A
C77    H105    1.083   .     S
C77    C79     1.404   .     A
C78    C253    1.470   1_545 S
C79    C252    1.470   .     S
C80    C82     1.406   .     A
C80    H106    1.081   .     S
C81    H92     1.081   .     S
C81    C83     1.406   .     A
C82    H93     1.081   .     S
C82    N107    1.364   .     A
C83    H94     1.081   .     S
C83    N108    1.364   .     A
C84    H95     1.081   .     S
C84    C86     1.406   .     A
C84    N107    1.364   .     A
C85    H96     1.081   .     S
C85    N108    1.364   .     A
C86    H97     1.081   .     S
Cl87   C123    1.778   .     S
Cu89   Cu90    2.672   .     S
Cu89   O113    1.973   .     S
Cu89   O112    1.957   .     S
Cu89   O116    1.973   .     S
Cu89   N108    2.007   .     S
Cu89   O109    1.957   .     S
Cu90   O115    1.973   .     S
Cu90   O114    1.973   .     S
Cu90   N107    2.007   .     S
Cu90   O111    1.957   .     S
Cu90   O110    1.957   .     S
C117   O167    1.292   .     A
C117   O169    1.292   .     A
C117   C130    1.460   .     S
C118   C120    1.411   .     A
C118   C143    1.406   .     A
C118   H156    1.081   .     S
C119   C144    1.411   .     A
C119   C138    1.411   .     A
C119   C468    1.515   1_554 S
C120   C139    1.411   .     A
C120   C467    1.515   .     S
C121   O173    1.290   .     A
C121   C123    1.433   .     S
C121   O171    1.280   .     A
C122   O174    1.290   .     A
C122   C124    1.433   .     S
C122   O172    1.280   .     A
C124   C7      1.355   1_655 S
C124   Cl30    1.778   1_655 S
C125   C127    1.390   .     A
C125   C136    1.404   .     A
C125   H149    1.083   .     S
C126   H157    1.083   .     S
C126   C137    1.404   .     A
C126   C129    1.390   .     A
C127   C130    1.402   .     A
C127   H158    1.083   .     S
C128   C131    1.460   .     S
C128   O168    1.292   .     A
C128   O170    1.292   .     A
C129   C131    1.402   .     A
C129   H159    1.083   .     S
C130   C132    1.402   .     A
C131   C133    1.402   .     A
C132   C134    1.390   .     A
C132   H160    1.083   .     S
C133   C135    1.390   .     A
C133   H161    1.083   .     S
C134   H162    1.083   .     S
C134   C136    1.404   .     A
C135   H163    1.083   .     S
C135   C137    1.404   .     A
C136   C311    1.470   1_545 S
C137   C310    1.470   .     S
C138   C140    1.406   .     A
C138   H164    1.081   .     S
C139   H150    1.081   .     S
C139   C141    1.406   .     A
C140   H151    1.081   .     S
C140   N165    1.364   .     A
C141   H152    1.081   .     S
C141   N166    1.364   .     A
C142   H153    1.081   .     S
C142   C144    1.406   .     A
C142   N165    1.364   .     A
C143   H154    1.081   .     S
C143   N166    1.364   .     A
C144   H155    1.081   .     S
Cl145  C7      1.778   1_655 S
Cu147  Cu148   2.672   .     S
Cu147  O171    1.973   .     S
Cu147  O170    1.957   .     S
Cu147  O174    1.973   .     S
Cu147  N166    2.007   .     S
Cu147  O167    1.957   .     S
Cu148  O173    1.973   .     S
Cu148  O172    1.973   .     S
Cu148  N165    2.007   .     S
Cu148  O169    1.957   .     S
Cu148  O168    1.957   .     S
C175   O225    1.292   .     A
C175   O227    1.292   .     A
C175   C188    1.460   .     S
C176   C178    1.411   .     A
C176   C201    1.406   .     A
C176   H214    1.081   .     S
C177   C202    1.411   .     A
C177   C196    1.411   .     A
C177   C526    1.515   1_554 S
C178   C197    1.411   .     A
C178   C525    1.515   .     S
C179   O231    1.290   .     A
C179   C181    1.433   .     S
C179   O229    1.280   .     A
C180   O232    1.290   .     A
C180   C182    1.433   .     S
C180   O230    1.280   .     A
C181   C298    1.355   1_455 S
C181   Cl319   1.778   1_455 S
C182   C239    1.355   .     S
C182   Cl262   1.778   .     S
C183   C185    1.390   .     A
C183   C194    1.404   .     A
C183   H207    1.083   .     S
C184   H215    1.083   .     S
C184   C195    1.404   .     A
C184   C187    1.390   .     A
C185   C188    1.402   .     A
C185   H216    1.083   .     S
C186   C189    1.460   .     S
C186   O226    1.292   .     A
C186   O228    1.292   .     A
C187   C189    1.402   .     A
C187   H217    1.083   .     S
C188   C190    1.402   .     A
C189   C191    1.402   .     A
C190   C192    1.390   .     A
C190   H218    1.083   .     S
C191   C193    1.390   .     A
C191   H219    1.083   .     S
C192   H220    1.083   .     S
C192   C194    1.404   .     A
C193   H221    1.083   .     S
C193   C195    1.404   .     A
C195   C20     1.470   1_565 S
C196   C198    1.406   .     A
C196   H222    1.081   .     S
C197   H208    1.081   .     S
C197   C199    1.406   .     A
C198   H209    1.081   .     S
C198   N223    1.364   .     A
C199   H210    1.081   .     S
C199   N224    1.364   .     A
C200   H211    1.081   .     S
C200   C202    1.406   .     A
C200   N223    1.364   .     A
C201   H212    1.081   .     S
C201   N224    1.364   .     A
C202   H213    1.081   .     S
Cl203  C239    1.778   .     S
Cl204  C298    1.778   1_455 S
Cu205  Cu206   2.672   .     S
Cu205  O229    1.973   .     S
Cu205  O228    1.957   .     S
Cu205  O232    1.973   .     S
Cu205  N224    2.007   .     S
Cu205  O225    1.957   .     S
Cu206  O231    1.973   .     S
Cu206  O230    1.973   .     S
Cu206  N223    2.007   .     S
Cu206  O227    1.957   .     S
Cu206  O226    1.957   .     S
C233   O283    1.292   .     A
C233   O285    1.292   .     A
C233   C246    1.460   .     S
C234   C236    1.411   .     A
C234   C259    1.406   .     A
C234   H272    1.081   .     S
C235   C260    1.411   .     A
C235   C254    1.411   .     A
C235   C584    1.515   1_554 S
C236   C255    1.411   .     A
C236   C583    1.515   .     S
C237   O289    1.290   .     A
C237   C239    1.433   .     S
C237   O287    1.280   .     A
C238   O290    1.290   .     A
C238   C240    1.433   .     S
C238   O288    1.280   .     A
C240   C297    1.355   .     S
C240   Cl320   1.778   .     S
C241   C243    1.390   .     A
C241   C252    1.404   .     A
C241   H265    1.083   .     S
C242   H273    1.083   .     S
C242   C253    1.404   .     A
C242   C245    1.390   .     A
C243   C246    1.402   .     A
C243   H274    1.083   .     S
C244   C247    1.460   .     S
C244   O284    1.292   .     A
C244   O286    1.292   .     A
C245   C247    1.402   .     A
C245   H275    1.083   .     S
C246   C248    1.402   .     A
C247   C249    1.402   .     A
C248   C250    1.390   .     A
C248   H276    1.083   .     S
C249   C251    1.390   .     A
C249   H277    1.083   .     S
C250   H278    1.083   .     S
C250   C252    1.404   .     A
C251   H279    1.083   .     S
C251   C253    1.404   .     A
C253   C78     1.470   1_565 S
C254   C256    1.406   .     A
C254   H280    1.081   .     S
C255   H266    1.081   .     S
C255   C257    1.406   .     A
C256   H267    1.081   .     S
C256   N281    1.364   .     A
C257   H268    1.081   .     S
C257   N282    1.364   .     A
C258   H269    1.081   .     S
C258   C260    1.406   .     A
C258   N281    1.364   .     A
C259   H270    1.081   .     S
C259   N282    1.364   .     A
C260   H271    1.081   .     S
Cl261  C297    1.778   .     S
Cu263  Cu264   2.672   .     S
Cu263  O287    1.973   .     S
Cu263  O286    1.957   .     S
Cu263  O290    1.973   .     S
Cu263  N282    2.007   .     S
Cu263  O283    1.957   .     S
Cu264  O289    1.973   .     S
Cu264  O288    1.973   .     S
Cu264  N281    2.007   .     S
Cu264  O285    1.957   .     S
Cu264  O284    1.957   .     S
C291   O341    1.292   .     A
C291   O343    1.292   .     A
C291   C304    1.460   .     S
C292   C294    1.411   .     A
C292   C317    1.406   .     A
C292   H330    1.081   .     S
C293   C318    1.411   .     A
C293   C312    1.411   .     A
C293   C642    1.515   1_554 S
C294   C313    1.411   .     A
C294   C641    1.515   .     S
C295   O347    1.290   .     A
C295   C297    1.433   .     S
C295   O345    1.280   .     A
C296   O348    1.290   .     A
C296   C298    1.433   .     S
C296   O346    1.280   .     A
C298   C181    1.355   1_655 S
C298   Cl204   1.778   1_655 S
C299   C301    1.390   .     A
C299   C310    1.404   .     A
C299   H323    1.083   .     S
C300   H331    1.083   .     S
C300   C311    1.404   .     A
C300   C303    1.390   .     A
C301   C304    1.402   .     A
C301   H332    1.083   .     S
C302   C305    1.460   .     S
C302   O342    1.292   .     A
C302   O344    1.292   .     A
C303   C305    1.402   .     A
C303   H333    1.083   .     S
C304   C306    1.402   .     A
C305   C307    1.402   .     A
C306   C308    1.390   .     A
C306   H334    1.083   .     S
C307   C309    1.390   .     A
C307   H335    1.083   .     S
C308   H336    1.083   .     S
C308   C310    1.404   .     A
C309   H337    1.083   .     S
C309   C311    1.404   .     A
C311   C136    1.470   1_565 S
C312   C314    1.406   .     A
C312   H338    1.081   .     S
C313   H324    1.081   .     S
C313   C315    1.406   .     A
C314   H325    1.081   .     S
C314   N339    1.364   .     A
C315   H326    1.081   .     S
C315   N340    1.364   .     A
C316   H327    1.081   .     S
C316   C318    1.406   .     A
C316   N339    1.364   .     A
C317   H328    1.081   .     S
C317   N340    1.364   .     A
C318   H329    1.081   .     S
Cl319  C181    1.778   1_655 S
Cu321  Cu322   2.672   .     S
Cu321  O345    1.973   .     S
Cu321  O344    1.957   .     S
Cu321  O348    1.973   .     S
Cu321  N340    2.007   .     S
Cu321  O341    1.957   .     S
Cu322  O347    1.973   .     S
Cu322  O346    1.973   .     S
Cu322  N339    2.007   .     S
Cu322  O343    1.957   .     S
Cu322  O342    1.957   .     S
C349   O399    1.292   .     A
C349   O401    1.292   .     A
C349   C362    1.460   .     S
C350   C352    1.411   .     A
C350   C375    1.406   .     A
C350   H388    1.081   .     S
C351   C376    1.411   .     A
C351   C370    1.411   .     A
C352   C371    1.411   .     A
C352   C3      1.515   1_556 S
C353   O405    1.290   .     A
C353   C355    1.433   .     S
C353   O403    1.280   .     A
C354   O406    1.290   .     A
C354   C356    1.433   .     S
C354   O404    1.280   .     A
C355   C472    1.355   1_455 S
C355   Cl493   1.778   1_455 S
C356   C413    1.355   .     S
C356   Cl436   1.778   .     S
C357   C359    1.390   .     A
C357   C368    1.404   .     A
C357   H381    1.083   .     S
C358   H389    1.083   .     S
C358   C369    1.404   .     A
C358   C361    1.390   .     A
C359   C362    1.402   .     A
C359   H390    1.083   .     S
C360   C363    1.460   .     S
C360   O400    1.292   .     A
C360   O402    1.292   .     A
C361   C363    1.402   .     A
C361   H391    1.083   .     S
C362   C364    1.402   .     A
C363   C365    1.402   .     A
C364   C366    1.390   .     A
C364   H392    1.083   .     S
C365   C367    1.390   .     A
C365   H393    1.083   .     S
C366   H394    1.083   .     S
C366   C368    1.404   .     A
C367   H395    1.083   .     S
C367   C369    1.404   .     A
C368   C543    1.470   1_545 S
C369   C542    1.470   .     S
C370   C372    1.406   .     A
C370   H396    1.081   .     S
C371   H382    1.081   .     S
C371   C373    1.406   .     A
C372   H383    1.081   .     S
C372   N397    1.364   .     A
C373   H384    1.081   .     S
C373   N398    1.364   .     A
C374   H385    1.081   .     S
C374   C376    1.406   .     A
C374   N397    1.364   .     A
C375   H386    1.081   .     S
C375   N398    1.364   .     A
C376   H387    1.081   .     S
Cl377  C413    1.778   .     S
Cl378  C472    1.778   1_455 S
Cu379  Cu380   2.672   .     S
Cu379  O403    1.973   .     S
Cu379  O402    1.957   .     S
Cu379  O406    1.973   .     S
Cu379  N398    2.007   .     S
Cu379  O399    1.957   .     S
Cu380  O405    1.973   .     S
Cu380  O404    1.973   .     S
Cu380  N397    2.007   .     S
Cu380  O401    1.957   .     S
Cu380  O400    1.957   .     S
C407   O457    1.292   .     A
C407   O459    1.292   .     A
C407   C420    1.460   .     S
C408   C410    1.411   .     A
C408   C433    1.406   .     A
C408   H446    1.081   .     S
C409   C434    1.411   .     A
C409   C428    1.411   .     A
C410   C429    1.411   .     A
C410   C61     1.515   1_556 S
C411   O463    1.290   .     A
C411   C413    1.433   .     S
C411   O461    1.280   .     A
C412   O464    1.290   .     A
C412   C414    1.433   .     S
C412   O462    1.280   .     A
C414   C471    1.355   .     S
C414   Cl494   1.778   .     S
C415   C417    1.390   .     A
C415   C426    1.404   .     A
C415   H439    1.083   .     S
C416   H447    1.083   .     S
C416   C427    1.404   .     A
C416   C419    1.390   .     A
C417   C420    1.402   .     A
C417   H448    1.083   .     S
C418   C421    1.460   .     S
C418   O458    1.292   .     A
C418   O460    1.292   .     A
C419   C421    1.402   .     A
C419   H449    1.083   .     S
C420   C422    1.402   .     A
C421   C423    1.402   .     A
C422   C424    1.390   .     A
C422   H450    1.083   .     S
C423   C425    1.390   .     A
C423   H451    1.083   .     S
C424   H452    1.083   .     S
C424   C426    1.404   .     A
C425   H453    1.083   .     S
C425   C427    1.404   .     A
C426   C601    1.470   1_545 S
C427   C600    1.470   .     S
C428   C430    1.406   .     A
C428   H454    1.081   .     S
C429   H440    1.081   .     S
C429   C431    1.406   .     A
C430   H441    1.081   .     S
C430   N455    1.364   .     A
C431   H442    1.081   .     S
C431   N456    1.364   .     A
C432   H443    1.081   .     S
C432   C434    1.406   .     A
C432   N455    1.364   .     A
C433   H444    1.081   .     S
C433   N456    1.364   .     A
C434   H445    1.081   .     S
Cl435  C471    1.778   .     S
Cu437  Cu438   2.672   .     S
Cu437  O461    1.973   .     S
Cu437  O460    1.957   .     S
Cu437  O464    1.973   .     S
Cu437  N456    2.007   .     S
Cu437  O457    1.957   .     S
Cu438  O463    1.973   .     S
Cu438  O462    1.973   .     S
Cu438  N455    2.007   .     S
Cu438  O459    1.957   .     S
Cu438  O458    1.957   .     S
C465   O515    1.292   .     A
C465   O517    1.292   .     A
C465   C478    1.460   .     S
C466   C468    1.411   .     A
C466   C491    1.406   .     A
C466   H504    1.081   .     S
C467   C492    1.411   .     A
C467   C486    1.411   .     A
C468   C487    1.411   .     A
C468   C119    1.515   1_556 S
C469   O521    1.290   .     A
C469   C471    1.433   .     S
C469   O519    1.280   .     A
C470   O522    1.290   .     A
C470   C472    1.433   .     S
C470   O520    1.280   .     A
C472   C355    1.355   1_655 S
C472   Cl378   1.778   1_655 S
C473   C475    1.390   .     A
C473   C484    1.404   .     A
C473   H497    1.083   .     S
C474   H505    1.083   .     S
C474   C485    1.404   .     A
C474   C477    1.390   .     A
C475   C478    1.402   .     A
C475   H506    1.083   .     S
C476   C479    1.460   .     S
C476   O516    1.292   .     A
C476   O518    1.292   .     A
C477   C479    1.402   .     A
C477   H507    1.083   .     S
C478   C480    1.402   .     A
C479   C481    1.402   .     A
C480   C482    1.390   .     A
C480   H508    1.083   .     S
C481   C483    1.390   .     A
C481   H509    1.083   .     S
C482   H510    1.083   .     S
C482   C484    1.404   .     A
C483   H511    1.083   .     S
C483   C485    1.404   .     A
C484   C659    1.470   1_545 S
C485   C658    1.470   .     S
C486   C488    1.406   .     A
C486   H512    1.081   .     S
C487   H498    1.081   .     S
C487   C489    1.406   .     A
C488   H499    1.081   .     S
C488   N513    1.364   .     A
C489   H500    1.081   .     S
C489   N514    1.364   .     A
C490   H501    1.081   .     S
C490   C492    1.406   .     A
C490   N513    1.364   .     A
C491   H502    1.081   .     S
C491   N514    1.364   .     A
C492   H503    1.081   .     S
Cl493  C355    1.778   1_655 S
Cu495  Cu496   2.672   .     S
Cu495  O519    1.973   .     S
Cu495  O518    1.957   .     S
Cu495  O522    1.973   .     S
Cu495  N514    2.007   .     S
Cu495  O515    1.957   .     S
Cu496  O521    1.973   .     S
Cu496  O520    1.973   .     S
Cu496  N513    2.007   .     S
Cu496  O517    1.957   .     S
Cu496  O516    1.957   .     S
C523   O573    1.292   .     A
C523   O575    1.292   .     A
C523   C536    1.460   .     S
C524   C526    1.411   .     A
C524   C549    1.406   .     A
C524   H562    1.081   .     S
C525   C550    1.411   .     A
C525   C544    1.411   .     A
C526   C545    1.411   .     A
C526   C177    1.515   1_556 S
C527   O579    1.290   .     A
C527   C529    1.433   .     S
C527   O577    1.280   .     A
C528   O580    1.290   .     A
C528   C530    1.433   .     S
C528   O578    1.280   .     A
C529   C646    1.355   1_455 S
C529   Cl667   1.778   1_455 S
C530   C587    1.355   .     S
C530   Cl610   1.778   .     S
C531   C533    1.390   .     A
C531   C542    1.404   .     A
C531   H555    1.083   .     S
C532   H563    1.083   .     S
C532   C543    1.404   .     A
C532   C535    1.390   .     A
C533   C536    1.402   .     A
C533   H564    1.083   .     S
C534   C537    1.460   .     S
C534   O574    1.292   .     A
C534   O576    1.292   .     A
C535   C537    1.402   .     A
C535   H565    1.083   .     S
C536   C538    1.402   .     A
C537   C539    1.402   .     A
C538   C540    1.390   .     A
C538   H566    1.083   .     S
C539   C541    1.390   .     A
C539   H567    1.083   .     S
C540   H568    1.083   .     S
C540   C542    1.404   .     A
C541   H569    1.083   .     S
C541   C543    1.404   .     A
C543   C368    1.470   1_565 S
C544   C546    1.406   .     A
C544   H570    1.081   .     S
C545   H556    1.081   .     S
C545   C547    1.406   .     A
C546   H557    1.081   .     S
C546   N571    1.364   .     A
C547   H558    1.081   .     S
C547   N572    1.364   .     A
C548   H559    1.081   .     S
C548   C550    1.406   .     A
C548   N571    1.364   .     A
C549   H560    1.081   .     S
C549   N572    1.364   .     A
C550   H561    1.081   .     S
Cl551  C587    1.778   .     S
Cl552  C646    1.778   1_455 S
Cu553  Cu554   2.672   .     S
Cu553  O577    1.973   .     S
Cu553  O576    1.957   .     S
Cu553  O580    1.973   .     S
Cu553  N572    2.007   .     S
Cu553  O573    1.957   .     S
Cu554  O579    1.973   .     S
Cu554  O578    1.973   .     S
Cu554  N571    2.007   .     S
Cu554  O575    1.957   .     S
Cu554  O574    1.957   .     S
C581   O631    1.292   .     A
C581   O633    1.292   .     A
C581   C594    1.460   .     S
C582   C584    1.411   .     A
C582   C607    1.406   .     A
C582   H620    1.081   .     S
C583   C608    1.411   .     A
C583   C602    1.411   .     A
C584   C603    1.411   .     A
C584   C235    1.515   1_556 S
C585   O637    1.290   .     A
C585   C587    1.433   .     S
C585   O635    1.280   .     A
C586   O638    1.290   .     A
C586   C588    1.433   .     S
C586   O636    1.280   .     A
C588   C645    1.355   .     S
C588   Cl668   1.778   .     S
C589   C591    1.390   .     A
C589   C600    1.404   .     A
C589   H613    1.083   .     S
C590   H621    1.083   .     S
C590   C601    1.404   .     A
C590   C593    1.390   .     A
C591   C594    1.402   .     A
C591   H622    1.083   .     S
C592   C595    1.460   .     S
C592   O632    1.292   .     A
C592   O634    1.292   .     A
C593   C595    1.402   .     A
C593   H623    1.083   .     S
C594   C596    1.402   .     A
C595   C597    1.402   .     A
C596   C598    1.390   .     A
C596   H624    1.083   .     S
C597   C599    1.390   .     A
C597   H625    1.083   .     S
C598   H626    1.083   .     S
C598   C600    1.404   .     A
C599   H627    1.083   .     S
C599   C601    1.404   .     A
C601   C426    1.470   1_565 S
C602   C604    1.406   .     A
C602   H628    1.081   .     S
C603   H614    1.081   .     S
C603   C605    1.406   .     A
C604   H615    1.081   .     S
C604   N629    1.364   .     A
C605   H616    1.081   .     S
C605   N630    1.364   .     A
C606   H617    1.081   .     S
C606   C608    1.406   .     A
C606   N629    1.364   .     A
C607   H618    1.081   .     S
C607   N630    1.364   .     A
C608   H619    1.081   .     S
Cl609  C645    1.778   .     S
Cu611  Cu612   2.672   .     S
Cu611  O635    1.973   .     S
Cu611  O634    1.957   .     S
Cu611  O638    1.973   .     S
Cu611  N630    2.007   .     S
Cu611  O631    1.957   .     S
Cu612  O637    1.973   .     S
Cu612  O636    1.973   .     S
Cu612  N629    2.007   .     S
Cu612  O633    1.957   .     S
Cu612  O632    1.957   .     S
C639   O689    1.292   .     A
C639   O691    1.292   .     A
C639   C652    1.460   .     S
C640   C642    1.411   .     A
C640   C665    1.406   .     A
C640   H678    1.081   .     S
C641   C666    1.411   .     A
C641   C660    1.411   .     A
C642   C661    1.411   .     A
C642   C293    1.515   1_556 S
C643   O695    1.290   .     A
C643   C645    1.433   .     S
C643   O693    1.280   .     A
C644   O696    1.290   .     A
C644   C646    1.433   .     S
C644   O694    1.280   .     A
C646   C529    1.355   1_655 S
C646   Cl552   1.778   1_655 S
C647   C649    1.390   .     A
C647   C658    1.404   .     A
C647   H671    1.083   .     S
C648   H679    1.083   .     S
C648   C659    1.404   .     A
C648   C651    1.390   .     A
C649   C652    1.402   .     A
C649   H680    1.083   .     S
C650   C653    1.460   .     S
C650   O690    1.292   .     A
C650   O692    1.292   .     A
C651   C653    1.402   .     A
C651   H681    1.083   .     S
C652   C654    1.402   .     A
C653   C655    1.402   .     A
C654   C656    1.390   .     A
C654   H682    1.083   .     S
C655   C657    1.390   .     A
C655   H683    1.083   .     S
C656   H684    1.083   .     S
C656   C658    1.404   .     A
C657   H685    1.083   .     S
C657   C659    1.404   .     A
C659   C484    1.470   1_565 S
C660   C662    1.406   .     A
C660   H686    1.081   .     S
C661   H672    1.081   .     S
C661   C663    1.406   .     A
C662   H673    1.081   .     S
C662   N687    1.364   .     A
C663   H674    1.081   .     S
C663   N688    1.364   .     A
C664   H675    1.081   .     S
C664   C666    1.406   .     A
C664   N687    1.364   .     A
C665   H676    1.081   .     S
C665   N688    1.364   .     A
C666   H677    1.081   .     S
Cl667  C529    1.778   1_655 S
Cu669  Cu670   2.672   .     S
Cu669  O693    1.973   .     S
Cu669  O692    1.957   .     S
Cu669  O696    1.973   .     S
Cu669  N688    2.007   .     S
Cu669  O689    1.957   .     S
Cu670  O695    1.973   .     S
Cu670  O694    1.973   .     S
Cu670  N687    2.007   .     S
Cu670  O691    1.957   .     S
Cu670  O690    1.957   .     S
