data_str_m2_o10_o16_pcu_sym.171
_audit_creation_date              2020-01-03
_audit_creation_method            'Materials Studio'
_symmetry_space_group_name_H-M    'P1'
_symmetry_Int_Tables_number       1
_symmetry_cell_setting            triclinic
loop_
_symmetry_equiv_pos_as_xyz
  x,y,z
_cell_length_a                    22.4551
_cell_length_b                    26.0460
_cell_length_c                    26.8526
_cell_angle_alpha                 95.0656
_cell_angle_beta                  78.3966
_cell_angle_gamma                 102.7122
loop_
_atom_site_label
_atom_site_type_symbol
_atom_site_fract_x
_atom_site_fract_y
_atom_site_fract_z
_atom_site_U_iso_or_equiv
_atom_site_adp_type
_atom_site_occupancy
C1     C     0.18198   0.26663   0.25076   0.00000  Uiso   1.00
C2     C     0.13935   0.15477   0.48562   0.00000  Uiso   1.00
C3     C     0.14948   0.17703   0.43756   0.00000  Uiso   1.00
C4     C     0.18348   0.17353   0.01795   0.00000  Uiso   1.00
C5     C     0.23737   0.21218   0.00073   0.00000  Uiso   1.00
C6     C     0.24222   0.23719   0.45609   0.00000  Uiso   1.00
C7     C     0.19736   0.22134   0.42605   0.00000  Uiso   1.00
C8     C     0.17473   0.15710   0.06769   0.00000  Uiso   1.00
C9     C     0.27464   0.21036   0.07895   0.00000  Uiso   1.00
C10    C     0.11173   0.15446   0.40182   0.00000  Uiso   1.00
C11    C     0.19047   0.32261   0.25161   0.00000  Uiso   1.00
C12    C     0.13313   0.16325   0.34695   0.00000  Uiso   1.00
C13    C     0.14538   0.01078   0.24299   0.00000  Uiso   1.00
C14    C     0.15226   0.06671   0.24703   0.00000  Uiso   1.00
C15    C     0.19980   0.16987   0.15327   0.00000  Uiso   1.00
C16    C     0.28390   0.22810   0.03009   0.00000  Uiso   1.00
C17    C     0.21853   0.17706   0.09867   0.00000  Uiso   1.00
C18    C     0.05808   0.11589   0.41699   0.00000  Uiso   1.00
C19    C     0.04404   0.09697   0.46584   0.00000  Uiso   1.00
C20    C     0.08649   0.11399   0.49870   0.00000  Uiso   1.00
Cu21   Cu    0.10710   0.16105   0.24436   0.00000  Uiso   1.00
Cu22   Cu    0.22623   0.17228   0.25565   0.00000  Uiso   1.00
H23    H     0.30896   0.22592   0.10254   0.00000  Uiso   1.00
H24    H     0.10254   0.32044   0.23343   0.00000  Uiso   1.00
H25    H     0.32736   0.12009   0.21802   0.00000  Uiso   1.00
H26    H     0.27971   0.27042   0.44570   0.00000  Uiso   1.00
H27    H     0.32590   0.25653   0.01632   0.00000  Uiso   1.00
H28    H     0.13232   0.13141   0.08458   0.00000  Uiso   1.00
H29    H     0.02870   0.09814   0.38997   0.00000  Uiso   1.00
H30    H     0.07732   0.09355   0.03347   0.00000  Uiso   1.00
H31    H     0.19977   0.24409   0.39378   0.00000  Uiso   1.00
H32    H     0.23377   0.01291   0.26040   0.00000  Uiso   1.00
N33    N     0.31574   0.18074   0.26416   0.00000  Uiso   1.00
N34    N     0.01759   0.15259   0.23584   0.00000  Uiso   1.00
O35    O     0.12797   0.23807   0.24633   0.00000  Uiso   1.00
O36    O     0.22858   0.24755   0.25587   0.00000  Uiso   1.00
O37    O     0.09181   0.15960   0.31840   0.00000  Uiso   1.00
O38    O     0.19242   0.16908   0.32793   0.00000  Uiso   1.00
O39    O     0.10476   0.08578   0.24414   0.00000  Uiso   1.00
O40    O     0.20536   0.09526   0.25367   0.00000  Uiso   1.00
O41    O     0.14092   0.16425   0.17207   0.00000  Uiso   1.00
O42    O     0.24152   0.17373   0.18161   0.00000  Uiso   1.00
O43    O     0.01478   0.22732   0.27962   0.00000  Uiso   1.00
C44    C     0.31838   0.24157   0.32837   0.00000  Uiso   1.00
H45    H     0.31250   0.20991   0.35534   0.00000  Uiso   1.00
H46    H     0.27281   0.24919   0.32649   0.00000  Uiso   1.00
C47    C     0.02205   0.29368   0.34781   0.00000  Uiso   1.00
H48    H     0.04159   0.32048   0.31608   0.00000  Uiso   1.00
H49    H     0.32370   0.31426   0.37551   0.00000  Uiso   1.00
C50    C     0.07395   0.28573   0.37348   0.00000  Uiso   1.00
H51    H     0.05461   0.26059   0.40666   0.00000  Uiso   1.00
H52    H     0.09881   0.32452   0.38703   0.00000  Uiso   1.00
H53    H     0.10771   0.26695   0.34636   0.00000  Uiso   1.00
O54    O     0.32749   0.05533   0.47780   0.00000  Uiso   1.00
C55    C     0.28374   0.06979   0.01953   0.00000  Uiso   1.00
H56    H     0.24790   0.08402   0.00453   0.00000  Uiso   1.00
H57    H     0.30418   0.10145   0.04570   0.00000  Uiso   1.00
C58    C     0.25265   0.02120   0.05033   0.00000  Uiso   1.00
H59    H     0.22838   0.32383   0.02578   0.00000  Uiso   1.00
H60    H     0.28889   0.00554   0.06329   0.00000  Uiso   1.00
C61    C     0.20560   0.03360   0.09680   0.00000  Uiso   1.00
H62    H     0.22850   0.06431   0.12220   0.00000  Uiso   1.00
H63    H     0.18539   0.33077   0.11846   0.00000  Uiso   1.00
H64    H     0.16738   0.04719   0.08480   0.00000  Uiso   1.00
C65    C     0.51531   0.26663   0.25076   0.00000  Uiso   1.00
C66    C     0.47268   0.15477   0.48562   0.00000  Uiso   1.00
C67    C     0.48281   0.17703   0.43756   0.00000  Uiso   1.00
C68    C     0.51681   0.17353   0.01795   0.00000  Uiso   1.00
C69    C     0.57070   0.21218   0.00073   0.00000  Uiso   1.00
C70    C     0.57555   0.23719   0.45609   0.00000  Uiso   1.00
C71    C     0.53069   0.22134   0.42605   0.00000  Uiso   1.00
C72    C     0.50806   0.15710   0.06769   0.00000  Uiso   1.00
C73    C     0.60798   0.21036   0.07895   0.00000  Uiso   1.00
C74    C     0.44506   0.15446   0.40182   0.00000  Uiso   1.00
C75    C     0.52380   0.32261   0.25161   0.00000  Uiso   1.00
C76    C     0.46646   0.16325   0.34695   0.00000  Uiso   1.00
C77    C     0.47871   0.01078   0.24299   0.00000  Uiso   1.00
C78    C     0.48559   0.06671   0.24703   0.00000  Uiso   1.00
C79    C     0.53313   0.16987   0.15327   0.00000  Uiso   1.00
C80    C     0.61724   0.22810   0.03009   0.00000  Uiso   1.00
C81    C     0.55186   0.17706   0.09867   0.00000  Uiso   1.00
C82    C     0.39141   0.11589   0.41699   0.00000  Uiso   1.00
C83    C     0.37737   0.09697   0.46584   0.00000  Uiso   1.00
C84    C     0.41983   0.11399   0.49870   0.00000  Uiso   1.00
Cu85   Cu    0.44043   0.16105   0.24436   0.00000  Uiso   1.00
Cu86   Cu    0.55957   0.17228   0.25565   0.00000  Uiso   1.00
H87    H     0.64230   0.22592   0.10254   0.00000  Uiso   1.00
H88    H     0.43587   0.32044   0.23343   0.00000  Uiso   1.00
H89    H     0.66069   0.12009   0.21802   0.00000  Uiso   1.00
H90    H     0.61304   0.27042   0.44570   0.00000  Uiso   1.00
H91    H     0.65923   0.25653   0.01632   0.00000  Uiso   1.00
H92    H     0.46566   0.13141   0.08458   0.00000  Uiso   1.00
H93    H     0.36203   0.09814   0.38997   0.00000  Uiso   1.00
H94    H     0.41066   0.09355   0.03347   0.00000  Uiso   1.00
H95    H     0.53310   0.24409   0.39378   0.00000  Uiso   1.00
H96    H     0.56710   0.01291   0.26040   0.00000  Uiso   1.00
N97    N     0.64908   0.18074   0.26416   0.00000  Uiso   1.00
N98    N     0.35092   0.15259   0.23584   0.00000  Uiso   1.00
O99    O     0.46131   0.23807   0.24633   0.00000  Uiso   1.00
O100   O     0.56191   0.24755   0.25587   0.00000  Uiso   1.00
O101   O     0.42515   0.15960   0.31840   0.00000  Uiso   1.00
O102   O     0.52575   0.16908   0.32793   0.00000  Uiso   1.00
O103   O     0.43809   0.08578   0.24414   0.00000  Uiso   1.00
O104   O     0.53869   0.09526   0.25367   0.00000  Uiso   1.00
O105   O     0.47425   0.16425   0.17207   0.00000  Uiso   1.00
O106   O     0.57485   0.17373   0.18161   0.00000  Uiso   1.00
O107   O     0.34811   0.22732   0.27962   0.00000  Uiso   1.00
C108   C     0.65171   0.24157   0.32837   0.00000  Uiso   1.00
H109   H     0.64583   0.20991   0.35534   0.00000  Uiso   1.00
H110   H     0.60615   0.24919   0.32649   0.00000  Uiso   1.00
C111   C     0.35539   0.29368   0.34781   0.00000  Uiso   1.00
H112   H     0.37492   0.32048   0.31608   0.00000  Uiso   1.00
H113   H     0.65703   0.31426   0.37551   0.00000  Uiso   1.00
C114   C     0.40729   0.28573   0.37348   0.00000  Uiso   1.00
H115   H     0.38794   0.26059   0.40666   0.00000  Uiso   1.00
H116   H     0.43215   0.32452   0.38703   0.00000  Uiso   1.00
H117   H     0.44104   0.26695   0.34636   0.00000  Uiso   1.00
O118   O     0.66082   0.05533   0.47780   0.00000  Uiso   1.00
C119   C     0.61707   0.06979   0.01953   0.00000  Uiso   1.00
H120   H     0.58124   0.08402   0.00453   0.00000  Uiso   1.00
H121   H     0.63751   0.10145   0.04570   0.00000  Uiso   1.00
C122   C     0.58599   0.02120   0.05033   0.00000  Uiso   1.00
H123   H     0.56171   0.32383   0.02578   0.00000  Uiso   1.00
H124   H     0.62222   0.00554   0.06329   0.00000  Uiso   1.00
C125   C     0.53894   0.03360   0.09680   0.00000  Uiso   1.00
H126   H     0.56184   0.06431   0.12220   0.00000  Uiso   1.00
H127   H     0.51872   0.33077   0.11846   0.00000  Uiso   1.00
H128   H     0.50071   0.04719   0.08480   0.00000  Uiso   1.00
C129   C     0.84864   0.26663   0.25076   0.00000  Uiso   1.00
C130   C     0.80602   0.15477   0.48562   0.00000  Uiso   1.00
C131   C     0.81614   0.17703   0.43756   0.00000  Uiso   1.00
C132   C     0.85014   0.17353   0.01795   0.00000  Uiso   1.00
C133   C     0.90403   0.21218   0.00073   0.00000  Uiso   1.00
C134   C     0.90889   0.23719   0.45609   0.00000  Uiso   1.00
C135   C     0.86402   0.22134   0.42605   0.00000  Uiso   1.00
C136   C     0.84139   0.15710   0.06769   0.00000  Uiso   1.00
C137   C     0.94131   0.21036   0.07895   0.00000  Uiso   1.00
C138   C     0.77840   0.15446   0.40182   0.00000  Uiso   1.00
C139   C     0.85714   0.32261   0.25161   0.00000  Uiso   1.00
C140   C     0.79980   0.16325   0.34695   0.00000  Uiso   1.00
C141   C     0.81205   0.01078   0.24299   0.00000  Uiso   1.00
C142   C     0.81893   0.06671   0.24703   0.00000  Uiso   1.00
C143   C     0.86647   0.16987   0.15327   0.00000  Uiso   1.00
C144   C     0.95057   0.22810   0.03009   0.00000  Uiso   1.00
C145   C     0.88520   0.17706   0.09867   0.00000  Uiso   1.00
C146   C     0.72475   0.11589   0.41699   0.00000  Uiso   1.00
C147   C     0.71070   0.09697   0.46584   0.00000  Uiso   1.00
C148   C     0.75316   0.11399   0.49870   0.00000  Uiso   1.00
Cu149  Cu    0.77377   0.16105   0.24436   0.00000  Uiso   1.00
Cu150  Cu    0.89290   0.17228   0.25565   0.00000  Uiso   1.00
H151   H     0.97563   0.22592   0.10254   0.00000  Uiso   1.00
H152   H     0.76920   0.32044   0.23343   0.00000  Uiso   1.00
H153   H     0.99403   0.12009   0.21802   0.00000  Uiso   1.00
H154   H     0.94638   0.27042   0.44570   0.00000  Uiso   1.00
H155   H     0.99256   0.25653   0.01632   0.00000  Uiso   1.00
H156   H     0.79899   0.13141   0.08458   0.00000  Uiso   1.00
H157   H     0.69536   0.09814   0.38997   0.00000  Uiso   1.00
H158   H     0.74399   0.09355   0.03347   0.00000  Uiso   1.00
H159   H     0.86644   0.24409   0.39378   0.00000  Uiso   1.00
H160   H     0.90043   0.01291   0.26040   0.00000  Uiso   1.00
N161   N     0.98241   0.18074   0.26416   0.00000  Uiso   1.00
N162   N     0.68426   0.15259   0.23584   0.00000  Uiso   1.00
O163   O     0.79464   0.23807   0.24633   0.00000  Uiso   1.00
O164   O     0.89524   0.24755   0.25587   0.00000  Uiso   1.00
O165   O     0.75848   0.15960   0.31840   0.00000  Uiso   1.00
O166   O     0.85908   0.16908   0.32793   0.00000  Uiso   1.00
O167   O     0.77142   0.08578   0.24414   0.00000  Uiso   1.00
O168   O     0.87203   0.09526   0.25367   0.00000  Uiso   1.00
O169   O     0.80758   0.16425   0.17207   0.00000  Uiso   1.00
O170   O     0.90819   0.17373   0.18161   0.00000  Uiso   1.00
O171   O     0.68144   0.22732   0.27962   0.00000  Uiso   1.00
C172   C     0.98505   0.24157   0.32837   0.00000  Uiso   1.00
H173   H     0.97917   0.20991   0.35534   0.00000  Uiso   1.00
H174   H     0.93948   0.24919   0.32649   0.00000  Uiso   1.00
C175   C     0.68872   0.29368   0.34781   0.00000  Uiso   1.00
H176   H     0.70825   0.32048   0.31608   0.00000  Uiso   1.00
H177   H     0.99036   0.31426   0.37551   0.00000  Uiso   1.00
C178   C     0.74062   0.28573   0.37348   0.00000  Uiso   1.00
H179   H     0.72127   0.26059   0.40666   0.00000  Uiso   1.00
H180   H     0.76548   0.32452   0.38703   0.00000  Uiso   1.00
H181   H     0.77438   0.26695   0.34636   0.00000  Uiso   1.00
O182   O     0.99415   0.05533   0.47780   0.00000  Uiso   1.00
C183   C     0.95041   0.06979   0.01953   0.00000  Uiso   1.00
H184   H     0.91457   0.08402   0.00453   0.00000  Uiso   1.00
H185   H     0.97085   0.10145   0.04570   0.00000  Uiso   1.00
C186   C     0.91932   0.02120   0.05033   0.00000  Uiso   1.00
H187   H     0.89505   0.32383   0.02578   0.00000  Uiso   1.00
H188   H     0.95556   0.00554   0.06329   0.00000  Uiso   1.00
C189   C     0.87227   0.03360   0.09680   0.00000  Uiso   1.00
H190   H     0.89517   0.06431   0.12220   0.00000  Uiso   1.00
H191   H     0.85206   0.33077   0.11846   0.00000  Uiso   1.00
H192   H     0.83405   0.04719   0.08480   0.00000  Uiso   1.00
C193   C     0.18198   0.59996   0.25076   0.00000  Uiso   1.00
C194   C     0.13935   0.48811   0.48562   0.00000  Uiso   1.00
C195   C     0.14948   0.51036   0.43756   0.00000  Uiso   1.00
C196   C     0.18348   0.50686   0.01795   0.00000  Uiso   1.00
C197   C     0.23737   0.54551   0.00073   0.00000  Uiso   1.00
C198   C     0.24222   0.57053   0.45609   0.00000  Uiso   1.00
C199   C     0.19736   0.55468   0.42605   0.00000  Uiso   1.00
C200   C     0.17473   0.49043   0.06769   0.00000  Uiso   1.00
C201   C     0.27464   0.54369   0.07895   0.00000  Uiso   1.00
C202   C     0.11173   0.48779   0.40182   0.00000  Uiso   1.00
C203   C     0.19047   0.65594   0.25161   0.00000  Uiso   1.00
C204   C     0.13313   0.49658   0.34695   0.00000  Uiso   1.00
C205   C     0.14538   0.34411   0.24299   0.00000  Uiso   1.00
C206   C     0.15226   0.40004   0.24703   0.00000  Uiso   1.00
C207   C     0.19980   0.50321   0.15327   0.00000  Uiso   1.00
C208   C     0.28390   0.56143   0.03009   0.00000  Uiso   1.00
C209   C     0.21853   0.51040   0.09867   0.00000  Uiso   1.00
C210   C     0.05808   0.44923   0.41699   0.00000  Uiso   1.00
C211   C     0.04404   0.43030   0.46584   0.00000  Uiso   1.00
C212   C     0.08649   0.44732   0.49870   0.00000  Uiso   1.00
Cu213  Cu    0.10710   0.49439   0.24436   0.00000  Uiso   1.00
Cu214  Cu    0.22623   0.50561   0.25565   0.00000  Uiso   1.00
H215   H     0.30896   0.55926   0.10254   0.00000  Uiso   1.00
H216   H     0.10254   0.65377   0.23343   0.00000  Uiso   1.00
H217   H     0.32736   0.45342   0.21802   0.00000  Uiso   1.00
H218   H     0.27971   0.60375   0.44570   0.00000  Uiso   1.00
H219   H     0.32590   0.58987   0.01632   0.00000  Uiso   1.00
H220   H     0.13232   0.46474   0.08458   0.00000  Uiso   1.00
H221   H     0.02870   0.43147   0.38997   0.00000  Uiso   1.00
H222   H     0.07732   0.42688   0.03347   0.00000  Uiso   1.00
H223   H     0.19977   0.57742   0.39378   0.00000  Uiso   1.00
H224   H     0.23377   0.34624   0.26040   0.00000  Uiso   1.00
N225   N     0.31574   0.51407   0.26416   0.00000  Uiso   1.00
N226   N     0.01759   0.48593   0.23584   0.00000  Uiso   1.00
O227   O     0.12797   0.57141   0.24633   0.00000  Uiso   1.00
O228   O     0.22858   0.58089   0.25587   0.00000  Uiso   1.00
O229   O     0.09181   0.49293   0.31840   0.00000  Uiso   1.00
O230   O     0.19242   0.50241   0.32793   0.00000  Uiso   1.00
O231   O     0.10476   0.41911   0.24414   0.00000  Uiso   1.00
O232   O     0.20536   0.42859   0.25367   0.00000  Uiso   1.00
O233   O     0.14092   0.49759   0.17207   0.00000  Uiso   1.00
O234   O     0.24152   0.50707   0.18161   0.00000  Uiso   1.00
O235   O     0.01478   0.56065   0.27962   0.00000  Uiso   1.00
C236   C     0.31838   0.57491   0.32837   0.00000  Uiso   1.00
H237   H     0.31250   0.54324   0.35534   0.00000  Uiso   1.00
H238   H     0.27281   0.58253   0.32649   0.00000  Uiso   1.00
C239   C     0.02205   0.62701   0.34781   0.00000  Uiso   1.00
H240   H     0.04159   0.65382   0.31608   0.00000  Uiso   1.00
H241   H     0.32370   0.64759   0.37551   0.00000  Uiso   1.00
C242   C     0.07395   0.61906   0.37348   0.00000  Uiso   1.00
H243   H     0.05461   0.59392   0.40666   0.00000  Uiso   1.00
H244   H     0.09881   0.65785   0.38703   0.00000  Uiso   1.00
H245   H     0.10771   0.60028   0.34636   0.00000  Uiso   1.00
O246   O     0.32749   0.38866   0.47780   0.00000  Uiso   1.00
C247   C     0.28374   0.40313   0.01953   0.00000  Uiso   1.00
H248   H     0.24790   0.41735   0.00453   0.00000  Uiso   1.00
H249   H     0.30418   0.43478   0.04570   0.00000  Uiso   1.00
C250   C     0.25265   0.35454   0.05033   0.00000  Uiso   1.00
H251   H     0.22838   0.65716   0.02578   0.00000  Uiso   1.00
H252   H     0.28889   0.33887   0.06329   0.00000  Uiso   1.00
C253   C     0.20560   0.36693   0.09680   0.00000  Uiso   1.00
H254   H     0.22850   0.39764   0.12220   0.00000  Uiso   1.00
H255   H     0.18539   0.66410   0.11846   0.00000  Uiso   1.00
H256   H     0.16738   0.38052   0.08480   0.00000  Uiso   1.00
C257   C     0.51531   0.59996   0.25076   0.00000  Uiso   1.00
C258   C     0.47268   0.48811   0.48562   0.00000  Uiso   1.00
C259   C     0.48281   0.51036   0.43756   0.00000  Uiso   1.00
C260   C     0.51681   0.50686   0.01795   0.00000  Uiso   1.00
C261   C     0.57070   0.54551   0.00073   0.00000  Uiso   1.00
C262   C     0.57555   0.57053   0.45609   0.00000  Uiso   1.00
C263   C     0.53069   0.55468   0.42605   0.00000  Uiso   1.00
C264   C     0.50806   0.49043   0.06769   0.00000  Uiso   1.00
C265   C     0.60798   0.54369   0.07895   0.00000  Uiso   1.00
C266   C     0.44506   0.48779   0.40182   0.00000  Uiso   1.00
C267   C     0.52380   0.65594   0.25161   0.00000  Uiso   1.00
C268   C     0.46646   0.49658   0.34695   0.00000  Uiso   1.00
C269   C     0.47871   0.34411   0.24299   0.00000  Uiso   1.00
C270   C     0.48559   0.40004   0.24703   0.00000  Uiso   1.00
C271   C     0.53313   0.50321   0.15327   0.00000  Uiso   1.00
C272   C     0.61724   0.56143   0.03009   0.00000  Uiso   1.00
C273   C     0.55186   0.51040   0.09867   0.00000  Uiso   1.00
C274   C     0.39141   0.44923   0.41699   0.00000  Uiso   1.00
C275   C     0.37737   0.43030   0.46584   0.00000  Uiso   1.00
C276   C     0.41983   0.44732   0.49870   0.00000  Uiso   1.00
Cu277  Cu    0.44043   0.49439   0.24436   0.00000  Uiso   1.00
Cu278  Cu    0.55957   0.50561   0.25565   0.00000  Uiso   1.00
H279   H     0.64230   0.55926   0.10254   0.00000  Uiso   1.00
H280   H     0.43587   0.65377   0.23343   0.00000  Uiso   1.00
H281   H     0.66069   0.45342   0.21802   0.00000  Uiso   1.00
H282   H     0.61304   0.60375   0.44570   0.00000  Uiso   1.00
H283   H     0.65923   0.58987   0.01632   0.00000  Uiso   1.00
H284   H     0.46566   0.46474   0.08458   0.00000  Uiso   1.00
H285   H     0.36203   0.43147   0.38997   0.00000  Uiso   1.00
H286   H     0.41066   0.42688   0.03347   0.00000  Uiso   1.00
H287   H     0.53310   0.57742   0.39378   0.00000  Uiso   1.00
H288   H     0.56710   0.34624   0.26040   0.00000  Uiso   1.00
N289   N     0.64908   0.51407   0.26416   0.00000  Uiso   1.00
N290   N     0.35092   0.48593   0.23584   0.00000  Uiso   1.00
O291   O     0.46131   0.57141   0.24633   0.00000  Uiso   1.00
O292   O     0.56191   0.58089   0.25587   0.00000  Uiso   1.00
O293   O     0.42515   0.49293   0.31840   0.00000  Uiso   1.00
O294   O     0.52575   0.50241   0.32793   0.00000  Uiso   1.00
O295   O     0.43809   0.41911   0.24414   0.00000  Uiso   1.00
O296   O     0.53869   0.42859   0.25367   0.00000  Uiso   1.00
O297   O     0.47425   0.49759   0.17207   0.00000  Uiso   1.00
O298   O     0.57485   0.50707   0.18161   0.00000  Uiso   1.00
O299   O     0.34811   0.56065   0.27962   0.00000  Uiso   1.00
C300   C     0.65171   0.57491   0.32837   0.00000  Uiso   1.00
H301   H     0.64583   0.54324   0.35534   0.00000  Uiso   1.00
H302   H     0.60615   0.58253   0.32649   0.00000  Uiso   1.00
C303   C     0.35539   0.62701   0.34781   0.00000  Uiso   1.00
H304   H     0.37492   0.65382   0.31608   0.00000  Uiso   1.00
H305   H     0.65703   0.64759   0.37551   0.00000  Uiso   1.00
C306   C     0.40729   0.61906   0.37348   0.00000  Uiso   1.00
H307   H     0.38794   0.59392   0.40666   0.00000  Uiso   1.00
H308   H     0.43215   0.65785   0.38703   0.00000  Uiso   1.00
H309   H     0.44104   0.60028   0.34636   0.00000  Uiso   1.00
O310   O     0.66082   0.38866   0.47780   0.00000  Uiso   1.00
C311   C     0.61707   0.40313   0.01953   0.00000  Uiso   1.00
H312   H     0.58124   0.41735   0.00453   0.00000  Uiso   1.00
H313   H     0.63751   0.43478   0.04570   0.00000  Uiso   1.00
C314   C     0.58599   0.35454   0.05033   0.00000  Uiso   1.00
H315   H     0.56171   0.65716   0.02578   0.00000  Uiso   1.00
H316   H     0.62222   0.33887   0.06329   0.00000  Uiso   1.00
C317   C     0.53894   0.36693   0.09680   0.00000  Uiso   1.00
H318   H     0.56184   0.39764   0.12220   0.00000  Uiso   1.00
H319   H     0.51872   0.66410   0.11846   0.00000  Uiso   1.00
H320   H     0.50071   0.38052   0.08480   0.00000  Uiso   1.00
C321   C     0.84864   0.59996   0.25076   0.00000  Uiso   1.00
C322   C     0.80602   0.48811   0.48562   0.00000  Uiso   1.00
C323   C     0.81614   0.51036   0.43756   0.00000  Uiso   1.00
C324   C     0.85014   0.50686   0.01795   0.00000  Uiso   1.00
C325   C     0.90403   0.54551   0.00073   0.00000  Uiso   1.00
C326   C     0.90889   0.57053   0.45609   0.00000  Uiso   1.00
C327   C     0.86402   0.55468   0.42605   0.00000  Uiso   1.00
C328   C     0.84139   0.49043   0.06769   0.00000  Uiso   1.00
C329   C     0.94131   0.54369   0.07895   0.00000  Uiso   1.00
C330   C     0.77840   0.48779   0.40182   0.00000  Uiso   1.00
C331   C     0.85714   0.65594   0.25161   0.00000  Uiso   1.00
C332   C     0.79980   0.49658   0.34695   0.00000  Uiso   1.00
C333   C     0.81205   0.34411   0.24299   0.00000  Uiso   1.00
C334   C     0.81893   0.40004   0.24703   0.00000  Uiso   1.00
C335   C     0.86647   0.50321   0.15327   0.00000  Uiso   1.00
C336   C     0.95057   0.56143   0.03009   0.00000  Uiso   1.00
C337   C     0.88520   0.51040   0.09867   0.00000  Uiso   1.00
C338   C     0.72475   0.44923   0.41699   0.00000  Uiso   1.00
C339   C     0.71070   0.43030   0.46584   0.00000  Uiso   1.00
C340   C     0.75316   0.44732   0.49870   0.00000  Uiso   1.00
Cu341  Cu    0.77377   0.49439   0.24436   0.00000  Uiso   1.00
Cu342  Cu    0.89290   0.50561   0.25565   0.00000  Uiso   1.00
H343   H     0.97563   0.55926   0.10254   0.00000  Uiso   1.00
H344   H     0.76920   0.65377   0.23343   0.00000  Uiso   1.00
H345   H     0.99403   0.45342   0.21802   0.00000  Uiso   1.00
H346   H     0.94638   0.60375   0.44570   0.00000  Uiso   1.00
H347   H     0.99256   0.58987   0.01632   0.00000  Uiso   1.00
H348   H     0.79899   0.46474   0.08458   0.00000  Uiso   1.00
H349   H     0.69536   0.43147   0.38997   0.00000  Uiso   1.00
H350   H     0.74399   0.42688   0.03347   0.00000  Uiso   1.00
H351   H     0.86644   0.57742   0.39378   0.00000  Uiso   1.00
H352   H     0.90043   0.34624   0.26040   0.00000  Uiso   1.00
N353   N     0.98241   0.51407   0.26416   0.00000  Uiso   1.00
N354   N     0.68426   0.48593   0.23584   0.00000  Uiso   1.00
O355   O     0.79464   0.57141   0.24633   0.00000  Uiso   1.00
O356   O     0.89524   0.58089   0.25587   0.00000  Uiso   1.00
O357   O     0.75848   0.49293   0.31840   0.00000  Uiso   1.00
O358   O     0.85908   0.50241   0.32793   0.00000  Uiso   1.00
O359   O     0.77142   0.41911   0.24414   0.00000  Uiso   1.00
O360   O     0.87203   0.42859   0.25367   0.00000  Uiso   1.00
O361   O     0.80758   0.49759   0.17207   0.00000  Uiso   1.00
O362   O     0.90819   0.50707   0.18161   0.00000  Uiso   1.00
O363   O     0.68144   0.56065   0.27962   0.00000  Uiso   1.00
C364   C     0.98505   0.57491   0.32837   0.00000  Uiso   1.00
H365   H     0.97917   0.54324   0.35534   0.00000  Uiso   1.00
H366   H     0.93948   0.58253   0.32649   0.00000  Uiso   1.00
C367   C     0.68872   0.62701   0.34781   0.00000  Uiso   1.00
H368   H     0.70825   0.65382   0.31608   0.00000  Uiso   1.00
H369   H     0.99036   0.64759   0.37551   0.00000  Uiso   1.00
C370   C     0.74062   0.61906   0.37348   0.00000  Uiso   1.00
H371   H     0.72127   0.59392   0.40666   0.00000  Uiso   1.00
H372   H     0.76548   0.65785   0.38703   0.00000  Uiso   1.00
H373   H     0.77438   0.60028   0.34636   0.00000  Uiso   1.00
O374   O     0.99415   0.38866   0.47780   0.00000  Uiso   1.00
C375   C     0.95041   0.40313   0.01953   0.00000  Uiso   1.00
H376   H     0.91457   0.41735   0.00453   0.00000  Uiso   1.00
H377   H     0.97085   0.43478   0.04570   0.00000  Uiso   1.00
C378   C     0.91932   0.35454   0.05033   0.00000  Uiso   1.00
H379   H     0.89505   0.65716   0.02578   0.00000  Uiso   1.00
H380   H     0.95556   0.33887   0.06329   0.00000  Uiso   1.00
C381   C     0.87227   0.36693   0.09680   0.00000  Uiso   1.00
H382   H     0.89517   0.39764   0.12220   0.00000  Uiso   1.00
H383   H     0.85206   0.66410   0.11846   0.00000  Uiso   1.00
H384   H     0.83405   0.38052   0.08480   0.00000  Uiso   1.00
C385   C     0.18198   0.93329   0.25076   0.00000  Uiso   1.00
C386   C     0.13935   0.82144   0.48562   0.00000  Uiso   1.00
C387   C     0.14948   0.84369   0.43756   0.00000  Uiso   1.00
C388   C     0.18348   0.84020   0.01795   0.00000  Uiso   1.00
C389   C     0.23737   0.87885   0.00073   0.00000  Uiso   1.00
C390   C     0.24222   0.90386   0.45609   0.00000  Uiso   1.00
C391   C     0.19736   0.88801   0.42605   0.00000  Uiso   1.00
C392   C     0.17473   0.82377   0.06769   0.00000  Uiso   1.00
C393   C     0.27464   0.87703   0.07895   0.00000  Uiso   1.00
C394   C     0.11173   0.82113   0.40182   0.00000  Uiso   1.00
C395   C     0.19047   0.98928   0.25161   0.00000  Uiso   1.00
C396   C     0.13313   0.82992   0.34695   0.00000  Uiso   1.00
C397   C     0.14538   0.67745   0.24299   0.00000  Uiso   1.00
C398   C     0.15226   0.73337   0.24703   0.00000  Uiso   1.00
C399   C     0.19980   0.83654   0.15327   0.00000  Uiso   1.00
C400   C     0.28390   0.89477   0.03009   0.00000  Uiso   1.00
C401   C     0.21853   0.84373   0.09867   0.00000  Uiso   1.00
C402   C     0.05808   0.78256   0.41699   0.00000  Uiso   1.00
C403   C     0.04404   0.76363   0.46584   0.00000  Uiso   1.00
C404   C     0.08649   0.78066   0.49870   0.00000  Uiso   1.00
Cu405  Cu    0.10710   0.82772   0.24436   0.00000  Uiso   1.00
Cu406  Cu    0.22623   0.83895   0.25565   0.00000  Uiso   1.00
H407   H     0.30896   0.89259   0.10254   0.00000  Uiso   1.00
H408   H     0.10254   0.98711   0.23343   0.00000  Uiso   1.00
H409   H     0.32736   0.78676   0.21802   0.00000  Uiso   1.00
H410   H     0.27971   0.93709   0.44570   0.00000  Uiso   1.00
H411   H     0.32590   0.92320   0.01632   0.00000  Uiso   1.00
H412   H     0.13232   0.79808   0.08458   0.00000  Uiso   1.00
H413   H     0.02870   0.76481   0.38997   0.00000  Uiso   1.00
H414   H     0.07732   0.76021   0.03347   0.00000  Uiso   1.00
H415   H     0.19977   0.91075   0.39378   0.00000  Uiso   1.00
H416   H     0.23377   0.67958   0.26040   0.00000  Uiso   1.00
N417   N     0.31574   0.84741   0.26416   0.00000  Uiso   1.00
N418   N     0.01759   0.81926   0.23584   0.00000  Uiso   1.00
O419   O     0.12797   0.90474   0.24633   0.00000  Uiso   1.00
O420   O     0.22858   0.91422   0.25587   0.00000  Uiso   1.00
O421   O     0.09181   0.82627   0.31840   0.00000  Uiso   1.00
O422   O     0.19242   0.83575   0.32793   0.00000  Uiso   1.00
O423   O     0.10476   0.75245   0.24414   0.00000  Uiso   1.00
O424   O     0.20536   0.76193   0.25367   0.00000  Uiso   1.00
O425   O     0.14092   0.83092   0.17207   0.00000  Uiso   1.00
O426   O     0.24152   0.84040   0.18161   0.00000  Uiso   1.00
O427   O     0.01478   0.89399   0.27962   0.00000  Uiso   1.00
C428   C     0.31838   0.90824   0.32837   0.00000  Uiso   1.00
H429   H     0.31250   0.87657   0.35534   0.00000  Uiso   1.00
H430   H     0.27281   0.91586   0.32649   0.00000  Uiso   1.00
C431   C     0.02205   0.96035   0.34781   0.00000  Uiso   1.00
H432   H     0.04159   0.98715   0.31608   0.00000  Uiso   1.00
H433   H     0.32370   0.98093   0.37551   0.00000  Uiso   1.00
C434   C     0.07395   0.95240   0.37348   0.00000  Uiso   1.00
H435   H     0.05461   0.92725   0.40666   0.00000  Uiso   1.00
H436   H     0.09881   0.99119   0.38703   0.00000  Uiso   1.00
H437   H     0.10771   0.93361   0.34636   0.00000  Uiso   1.00
O438   O     0.32749   0.72199   0.47780   0.00000  Uiso   1.00
C439   C     0.28374   0.73646   0.01953   0.00000  Uiso   1.00
H440   H     0.24790   0.75068   0.00453   0.00000  Uiso   1.00
H441   H     0.30418   0.76811   0.04570   0.00000  Uiso   1.00
C442   C     0.25265   0.68787   0.05033   0.00000  Uiso   1.00
H443   H     0.22838   0.99049   0.02578   0.00000  Uiso   1.00
H444   H     0.28889   0.67220   0.06329   0.00000  Uiso   1.00
C445   C     0.20560   0.70026   0.09680   0.00000  Uiso   1.00
H446   H     0.22850   0.73098   0.12220   0.00000  Uiso   1.00
H447   H     0.18539   0.99744   0.11846   0.00000  Uiso   1.00
H448   H     0.16738   0.71386   0.08480   0.00000  Uiso   1.00
C449   C     0.51531   0.93329   0.25076   0.00000  Uiso   1.00
C450   C     0.47268   0.82144   0.48562   0.00000  Uiso   1.00
C451   C     0.48281   0.84369   0.43756   0.00000  Uiso   1.00
C452   C     0.51681   0.84020   0.01795   0.00000  Uiso   1.00
C453   C     0.57070   0.87885   0.00073   0.00000  Uiso   1.00
C454   C     0.57555   0.90386   0.45609   0.00000  Uiso   1.00
C455   C     0.53069   0.88801   0.42605   0.00000  Uiso   1.00
C456   C     0.50806   0.82377   0.06769   0.00000  Uiso   1.00
C457   C     0.60798   0.87703   0.07895   0.00000  Uiso   1.00
C458   C     0.44506   0.82113   0.40182   0.00000  Uiso   1.00
C459   C     0.52380   0.98928   0.25161   0.00000  Uiso   1.00
C460   C     0.46646   0.82992   0.34695   0.00000  Uiso   1.00
C461   C     0.47871   0.67745   0.24299   0.00000  Uiso   1.00
C462   C     0.48559   0.73337   0.24703   0.00000  Uiso   1.00
C463   C     0.53313   0.83654   0.15327   0.00000  Uiso   1.00
C464   C     0.61724   0.89477   0.03009   0.00000  Uiso   1.00
C465   C     0.55186   0.84373   0.09867   0.00000  Uiso   1.00
C466   C     0.39141   0.78256   0.41699   0.00000  Uiso   1.00
C467   C     0.37737   0.76363   0.46584   0.00000  Uiso   1.00
C468   C     0.41983   0.78066   0.49870   0.00000  Uiso   1.00
Cu469  Cu    0.44043   0.82772   0.24436   0.00000  Uiso   1.00
Cu470  Cu    0.55957   0.83895   0.25565   0.00000  Uiso   1.00
H471   H     0.64230   0.89259   0.10254   0.00000  Uiso   1.00
H472   H     0.43587   0.98711   0.23343   0.00000  Uiso   1.00
H473   H     0.66069   0.78676   0.21802   0.00000  Uiso   1.00
H474   H     0.61304   0.93709   0.44570   0.00000  Uiso   1.00
H475   H     0.65923   0.92320   0.01632   0.00000  Uiso   1.00
H476   H     0.46566   0.79808   0.08458   0.00000  Uiso   1.00
H477   H     0.36203   0.76481   0.38997   0.00000  Uiso   1.00
H478   H     0.41066   0.76021   0.03347   0.00000  Uiso   1.00
H479   H     0.53310   0.91075   0.39378   0.00000  Uiso   1.00
H480   H     0.56710   0.67958   0.26040   0.00000  Uiso   1.00
N481   N     0.64908   0.84741   0.26416   0.00000  Uiso   1.00
N482   N     0.35092   0.81926   0.23584   0.00000  Uiso   1.00
O483   O     0.46131   0.90474   0.24633   0.00000  Uiso   1.00
O484   O     0.56191   0.91422   0.25587   0.00000  Uiso   1.00
O485   O     0.42515   0.82627   0.31840   0.00000  Uiso   1.00
O486   O     0.52575   0.83575   0.32793   0.00000  Uiso   1.00
O487   O     0.43809   0.75245   0.24414   0.00000  Uiso   1.00
O488   O     0.53869   0.76193   0.25367   0.00000  Uiso   1.00
O489   O     0.47425   0.83092   0.17207   0.00000  Uiso   1.00
O490   O     0.57485   0.84040   0.18161   0.00000  Uiso   1.00
O491   O     0.34811   0.89399   0.27962   0.00000  Uiso   1.00
C492   C     0.65171   0.90824   0.32837   0.00000  Uiso   1.00
H493   H     0.64583   0.87657   0.35534   0.00000  Uiso   1.00
H494   H     0.60615   0.91586   0.32649   0.00000  Uiso   1.00
C495   C     0.35539   0.96035   0.34781   0.00000  Uiso   1.00
H496   H     0.37492   0.98715   0.31608   0.00000  Uiso   1.00
H497   H     0.65703   0.98093   0.37551   0.00000  Uiso   1.00
C498   C     0.40729   0.95240   0.37348   0.00000  Uiso   1.00
H499   H     0.38794   0.92725   0.40666   0.00000  Uiso   1.00
H500   H     0.43215   0.99119   0.38703   0.00000  Uiso   1.00
H501   H     0.44104   0.93361   0.34636   0.00000  Uiso   1.00
O502   O     0.66082   0.72199   0.47780   0.00000  Uiso   1.00
C503   C     0.61707   0.73646   0.01953   0.00000  Uiso   1.00
H504   H     0.58124   0.75068   0.00453   0.00000  Uiso   1.00
H505   H     0.63751   0.76811   0.04570   0.00000  Uiso   1.00
C506   C     0.58599   0.68787   0.05033   0.00000  Uiso   1.00
H507   H     0.56171   0.99049   0.02578   0.00000  Uiso   1.00
H508   H     0.62222   0.67220   0.06329   0.00000  Uiso   1.00
C509   C     0.53894   0.70026   0.09680   0.00000  Uiso   1.00
H510   H     0.56184   0.73098   0.12220   0.00000  Uiso   1.00
H511   H     0.51872   0.99744   0.11846   0.00000  Uiso   1.00
H512   H     0.50071   0.71386   0.08480   0.00000  Uiso   1.00
C513   C     0.84864   0.93329   0.25076   0.00000  Uiso   1.00
C514   C     0.80602   0.82144   0.48562   0.00000  Uiso   1.00
C515   C     0.81614   0.84369   0.43756   0.00000  Uiso   1.00
C516   C     0.85014   0.84020   0.01795   0.00000  Uiso   1.00
C517   C     0.90403   0.87885   0.00073   0.00000  Uiso   1.00
C518   C     0.90889   0.90386   0.45609   0.00000  Uiso   1.00
C519   C     0.86402   0.88801   0.42605   0.00000  Uiso   1.00
C520   C     0.84139   0.82377   0.06769   0.00000  Uiso   1.00
C521   C     0.94131   0.87703   0.07895   0.00000  Uiso   1.00
C522   C     0.77840   0.82113   0.40182   0.00000  Uiso   1.00
C523   C     0.85714   0.98928   0.25161   0.00000  Uiso   1.00
C524   C     0.79980   0.82992   0.34695   0.00000  Uiso   1.00
C525   C     0.81205   0.67745   0.24299   0.00000  Uiso   1.00
C526   C     0.81893   0.73337   0.24703   0.00000  Uiso   1.00
C527   C     0.86647   0.83654   0.15327   0.00000  Uiso   1.00
C528   C     0.95057   0.89477   0.03009   0.00000  Uiso   1.00
C529   C     0.88520   0.84373   0.09867   0.00000  Uiso   1.00
C530   C     0.72475   0.78256   0.41699   0.00000  Uiso   1.00
C531   C     0.71070   0.76363   0.46584   0.00000  Uiso   1.00
C532   C     0.75316   0.78066   0.49870   0.00000  Uiso   1.00
Cu533  Cu    0.77377   0.82772   0.24436   0.00000  Uiso   1.00
Cu534  Cu    0.89290   0.83895   0.25565   0.00000  Uiso   1.00
H535   H     0.97563   0.89259   0.10254   0.00000  Uiso   1.00
H536   H     0.76920   0.98711   0.23343   0.00000  Uiso   1.00
H537   H     0.99403   0.78676   0.21802   0.00000  Uiso   1.00
H538   H     0.94638   0.93709   0.44570   0.00000  Uiso   1.00
H539   H     0.99256   0.92320   0.01632   0.00000  Uiso   1.00
H540   H     0.79899   0.79808   0.08458   0.00000  Uiso   1.00
H541   H     0.69536   0.76481   0.38997   0.00000  Uiso   1.00
H542   H     0.74399   0.76021   0.03347   0.00000  Uiso   1.00
H543   H     0.86644   0.91075   0.39378   0.00000  Uiso   1.00
H544   H     0.90043   0.67958   0.26040   0.00000  Uiso   1.00
N545   N     0.98241   0.84741   0.26416   0.00000  Uiso   1.00
N546   N     0.68426   0.81926   0.23584   0.00000  Uiso   1.00
O547   O     0.79464   0.90474   0.24633   0.00000  Uiso   1.00
O548   O     0.89524   0.91422   0.25587   0.00000  Uiso   1.00
O549   O     0.75848   0.82627   0.31840   0.00000  Uiso   1.00
O550   O     0.85908   0.83575   0.32793   0.00000  Uiso   1.00
O551   O     0.77142   0.75245   0.24414   0.00000  Uiso   1.00
O552   O     0.87203   0.76193   0.25367   0.00000  Uiso   1.00
O553   O     0.80758   0.83092   0.17207   0.00000  Uiso   1.00
O554   O     0.90819   0.84040   0.18161   0.00000  Uiso   1.00
O555   O     0.68144   0.89399   0.27962   0.00000  Uiso   1.00
C556   C     0.98505   0.90824   0.32837   0.00000  Uiso   1.00
H557   H     0.97917   0.87657   0.35534   0.00000  Uiso   1.00
H558   H     0.93948   0.91586   0.32649   0.00000  Uiso   1.00
C559   C     0.68872   0.96035   0.34781   0.00000  Uiso   1.00
H560   H     0.70825   0.98715   0.31608   0.00000  Uiso   1.00
H561   H     0.99036   0.98093   0.37551   0.00000  Uiso   1.00
C562   C     0.74062   0.95240   0.37348   0.00000  Uiso   1.00
H563   H     0.72127   0.92725   0.40666   0.00000  Uiso   1.00
H564   H     0.76548   0.99119   0.38703   0.00000  Uiso   1.00
H565   H     0.77438   0.93361   0.34636   0.00000  Uiso   1.00
O566   O     0.99415   0.72199   0.47780   0.00000  Uiso   1.00
C567   C     0.95041   0.73646   0.01953   0.00000  Uiso   1.00
H568   H     0.91457   0.75068   0.00453   0.00000  Uiso   1.00
H569   H     0.97085   0.76811   0.04570   0.00000  Uiso   1.00
C570   C     0.91932   0.68787   0.05033   0.00000  Uiso   1.00
H571   H     0.89505   0.99049   0.02578   0.00000  Uiso   1.00
H572   H     0.95556   0.67220   0.06329   0.00000  Uiso   1.00
C573   C     0.87227   0.70026   0.09680   0.00000  Uiso   1.00
H574   H     0.89517   0.73098   0.12220   0.00000  Uiso   1.00
H575   H     0.85206   0.99744   0.11846   0.00000  Uiso   1.00
H576   H     0.83405   0.71386   0.08480   0.00000  Uiso   1.00
C577   C     0.18198   0.26663   0.75076   0.00000  Uiso   1.00
C578   C     0.13935   0.15477   0.98562   0.00000  Uiso   1.00
C579   C     0.14948   0.17703   0.93756   0.00000  Uiso   1.00
C580   C     0.18348   0.17353   0.51795   0.00000  Uiso   1.00
C581   C     0.23737   0.21218   0.50073   0.00000  Uiso   1.00
C582   C     0.24222   0.23719   0.95609   0.00000  Uiso   1.00
C583   C     0.19736   0.22134   0.92605   0.00000  Uiso   1.00
C584   C     0.17473   0.15710   0.56769   0.00000  Uiso   1.00
C585   C     0.27464   0.21036   0.57895   0.00000  Uiso   1.00
C586   C     0.11173   0.15446   0.90182   0.00000  Uiso   1.00
C587   C     0.19047   0.32261   0.75161   0.00000  Uiso   1.00
C588   C     0.13313   0.16325   0.84695   0.00000  Uiso   1.00
C589   C     0.14538   0.01078   0.74299   0.00000  Uiso   1.00
C590   C     0.15226   0.06671   0.74703   0.00000  Uiso   1.00
C591   C     0.19980   0.16987   0.65327   0.00000  Uiso   1.00
C592   C     0.28390   0.22810   0.53009   0.00000  Uiso   1.00
C593   C     0.21853   0.17706   0.59867   0.00000  Uiso   1.00
C594   C     0.05808   0.11589   0.91699   0.00000  Uiso   1.00
C595   C     0.04404   0.09697   0.96584   0.00000  Uiso   1.00
C596   C     0.08649   0.11399   0.99870   0.00000  Uiso   1.00
Cu597  Cu    0.10710   0.16105   0.74436   0.00000  Uiso   1.00
Cu598  Cu    0.22623   0.17228   0.75565   0.00000  Uiso   1.00
H599   H     0.30896   0.22592   0.60254   0.00000  Uiso   1.00
H600   H     0.10254   0.32044   0.73343   0.00000  Uiso   1.00
H601   H     0.32736   0.12009   0.71802   0.00000  Uiso   1.00
H602   H     0.27971   0.27042   0.94570   0.00000  Uiso   1.00
H603   H     0.32590   0.25653   0.51632   0.00000  Uiso   1.00
H604   H     0.13232   0.13141   0.58458   0.00000  Uiso   1.00
H605   H     0.02870   0.09814   0.88997   0.00000  Uiso   1.00
H606   H     0.07732   0.09355   0.53347   0.00000  Uiso   1.00
H607   H     0.19977   0.24409   0.89378   0.00000  Uiso   1.00
H608   H     0.23377   0.01291   0.76040   0.00000  Uiso   1.00
N609   N     0.31574   0.18074   0.76416   0.00000  Uiso   1.00
N610   N     0.01759   0.15259   0.73584   0.00000  Uiso   1.00
O611   O     0.12797   0.23807   0.74633   0.00000  Uiso   1.00
O612   O     0.22858   0.24755   0.75587   0.00000  Uiso   1.00
O613   O     0.09181   0.15960   0.81840   0.00000  Uiso   1.00
O614   O     0.19242   0.16908   0.82793   0.00000  Uiso   1.00
O615   O     0.10476   0.08578   0.74414   0.00000  Uiso   1.00
O616   O     0.20536   0.09526   0.75367   0.00000  Uiso   1.00
O617   O     0.14092   0.16425   0.67207   0.00000  Uiso   1.00
O618   O     0.24152   0.17373   0.68161   0.00000  Uiso   1.00
O619   O     0.01478   0.22732   0.77962   0.00000  Uiso   1.00
C620   C     0.31838   0.24157   0.82837   0.00000  Uiso   1.00
H621   H     0.31250   0.20991   0.85534   0.00000  Uiso   1.00
H622   H     0.27281   0.24919   0.82649   0.00000  Uiso   1.00
C623   C     0.02205   0.29368   0.84781   0.00000  Uiso   1.00
H624   H     0.04159   0.32048   0.81608   0.00000  Uiso   1.00
H625   H     0.32370   0.31426   0.87551   0.00000  Uiso   1.00
C626   C     0.07395   0.28573   0.87348   0.00000  Uiso   1.00
H627   H     0.05461   0.26059   0.90666   0.00000  Uiso   1.00
H628   H     0.09881   0.32452   0.88703   0.00000  Uiso   1.00
H629   H     0.10771   0.26695   0.84636   0.00000  Uiso   1.00
O630   O     0.32749   0.05533   0.97780   0.00000  Uiso   1.00
C631   C     0.28374   0.06979   0.51953   0.00000  Uiso   1.00
H632   H     0.24790   0.08402   0.50453   0.00000  Uiso   1.00
H633   H     0.30418   0.10145   0.54570   0.00000  Uiso   1.00
C634   C     0.25265   0.02120   0.55033   0.00000  Uiso   1.00
H635   H     0.22838   0.32383   0.52578   0.00000  Uiso   1.00
H636   H     0.28889   0.00554   0.56329   0.00000  Uiso   1.00
C637   C     0.20560   0.03360   0.59680   0.00000  Uiso   1.00
H638   H     0.22850   0.06431   0.62220   0.00000  Uiso   1.00
H639   H     0.18539   0.33077   0.61846   0.00000  Uiso   1.00
H640   H     0.16738   0.04719   0.58480   0.00000  Uiso   1.00
C641   C     0.51531   0.26663   0.75076   0.00000  Uiso   1.00
C642   C     0.47268   0.15477   0.98562   0.00000  Uiso   1.00
C643   C     0.48281   0.17703   0.93756   0.00000  Uiso   1.00
C644   C     0.51681   0.17353   0.51795   0.00000  Uiso   1.00
C645   C     0.57070   0.21218   0.50073   0.00000  Uiso   1.00
C646   C     0.57555   0.23719   0.95609   0.00000  Uiso   1.00
C647   C     0.53069   0.22134   0.92605   0.00000  Uiso   1.00
C648   C     0.50806   0.15710   0.56769   0.00000  Uiso   1.00
C649   C     0.60798   0.21036   0.57895   0.00000  Uiso   1.00
C650   C     0.44506   0.15446   0.90182   0.00000  Uiso   1.00
C651   C     0.52380   0.32261   0.75161   0.00000  Uiso   1.00
C652   C     0.46646   0.16325   0.84695   0.00000  Uiso   1.00
C653   C     0.47871   0.01078   0.74299   0.00000  Uiso   1.00
C654   C     0.48559   0.06671   0.74703   0.00000  Uiso   1.00
C655   C     0.53313   0.16987   0.65327   0.00000  Uiso   1.00
C656   C     0.61724   0.22810   0.53009   0.00000  Uiso   1.00
C657   C     0.55186   0.17706   0.59867   0.00000  Uiso   1.00
C658   C     0.39141   0.11589   0.91699   0.00000  Uiso   1.00
C659   C     0.37737   0.09697   0.96584   0.00000  Uiso   1.00
C660   C     0.41983   0.11399   0.99870   0.00000  Uiso   1.00
Cu661  Cu    0.44043   0.16105   0.74436   0.00000  Uiso   1.00
Cu662  Cu    0.55957   0.17228   0.75565   0.00000  Uiso   1.00
H663   H     0.64230   0.22592   0.60254   0.00000  Uiso   1.00
H664   H     0.43587   0.32044   0.73343   0.00000  Uiso   1.00
H665   H     0.66069   0.12009   0.71802   0.00000  Uiso   1.00
H666   H     0.61304   0.27042   0.94570   0.00000  Uiso   1.00
H667   H     0.65923   0.25653   0.51632   0.00000  Uiso   1.00
H668   H     0.46566   0.13141   0.58458   0.00000  Uiso   1.00
H669   H     0.36203   0.09814   0.88997   0.00000  Uiso   1.00
H670   H     0.41066   0.09355   0.53347   0.00000  Uiso   1.00
H671   H     0.53310   0.24409   0.89378   0.00000  Uiso   1.00
H672   H     0.56710   0.01291   0.76040   0.00000  Uiso   1.00
N673   N     0.64908   0.18074   0.76416   0.00000  Uiso   1.00
N674   N     0.35092   0.15259   0.73584   0.00000  Uiso   1.00
O675   O     0.46131   0.23807   0.74633   0.00000  Uiso   1.00
O676   O     0.56191   0.24755   0.75587   0.00000  Uiso   1.00
O677   O     0.42515   0.15960   0.81840   0.00000  Uiso   1.00
O678   O     0.52575   0.16908   0.82793   0.00000  Uiso   1.00
O679   O     0.43809   0.08578   0.74414   0.00000  Uiso   1.00
O680   O     0.53869   0.09526   0.75367   0.00000  Uiso   1.00
O681   O     0.47425   0.16425   0.67207   0.00000  Uiso   1.00
O682   O     0.57485   0.17373   0.68161   0.00000  Uiso   1.00
O683   O     0.34811   0.22732   0.77962   0.00000  Uiso   1.00
C684   C     0.65171   0.24157   0.82837   0.00000  Uiso   1.00
H685   H     0.64583   0.20991   0.85534   0.00000  Uiso   1.00
H686   H     0.60615   0.24919   0.82649   0.00000  Uiso   1.00
C687   C     0.35539   0.29368   0.84781   0.00000  Uiso   1.00
H688   H     0.37492   0.32048   0.81608   0.00000  Uiso   1.00
H689   H     0.65703   0.31426   0.87551   0.00000  Uiso   1.00
C690   C     0.40729   0.28573   0.87348   0.00000  Uiso   1.00
H691   H     0.38794   0.26059   0.90666   0.00000  Uiso   1.00
H692   H     0.43215   0.32452   0.88703   0.00000  Uiso   1.00
H693   H     0.44104   0.26695   0.84636   0.00000  Uiso   1.00
O694   O     0.66082   0.05533   0.97780   0.00000  Uiso   1.00
C695   C     0.61707   0.06979   0.51953   0.00000  Uiso   1.00
H696   H     0.58124   0.08402   0.50453   0.00000  Uiso   1.00
H697   H     0.63751   0.10145   0.54570   0.00000  Uiso   1.00
C698   C     0.58599   0.02120   0.55033   0.00000  Uiso   1.00
H699   H     0.56171   0.32383   0.52578   0.00000  Uiso   1.00
H700   H     0.62222   0.00554   0.56329   0.00000  Uiso   1.00
C701   C     0.53894   0.03360   0.59680   0.00000  Uiso   1.00
H702   H     0.56184   0.06431   0.62220   0.00000  Uiso   1.00
H703   H     0.51872   0.33077   0.61846   0.00000  Uiso   1.00
H704   H     0.50071   0.04719   0.58480   0.00000  Uiso   1.00
C705   C     0.84864   0.26663   0.75076   0.00000  Uiso   1.00
C706   C     0.80602   0.15477   0.98562   0.00000  Uiso   1.00
C707   C     0.81614   0.17703   0.93756   0.00000  Uiso   1.00
C708   C     0.85014   0.17353   0.51795   0.00000  Uiso   1.00
C709   C     0.90403   0.21218   0.50073   0.00000  Uiso   1.00
C710   C     0.90889   0.23719   0.95609   0.00000  Uiso   1.00
C711   C     0.86402   0.22134   0.92605   0.00000  Uiso   1.00
C712   C     0.84139   0.15710   0.56769   0.00000  Uiso   1.00
C713   C     0.94131   0.21036   0.57895   0.00000  Uiso   1.00
C714   C     0.77840   0.15446   0.90182   0.00000  Uiso   1.00
C715   C     0.85714   0.32261   0.75161   0.00000  Uiso   1.00
C716   C     0.79980   0.16325   0.84695   0.00000  Uiso   1.00
C717   C     0.81205   0.01078   0.74299   0.00000  Uiso   1.00
C718   C     0.81893   0.06671   0.74703   0.00000  Uiso   1.00
C719   C     0.86647   0.16987   0.65327   0.00000  Uiso   1.00
C720   C     0.95057   0.22810   0.53009   0.00000  Uiso   1.00
C721   C     0.88520   0.17706   0.59867   0.00000  Uiso   1.00
C722   C     0.72475   0.11589   0.91699   0.00000  Uiso   1.00
C723   C     0.71070   0.09697   0.96584   0.00000  Uiso   1.00
C724   C     0.75316   0.11399   0.99870   0.00000  Uiso   1.00
Cu725  Cu    0.77377   0.16105   0.74436   0.00000  Uiso   1.00
Cu726  Cu    0.89290   0.17228   0.75565   0.00000  Uiso   1.00
H727   H     0.97563   0.22592   0.60254   0.00000  Uiso   1.00
H728   H     0.76920   0.32044   0.73343   0.00000  Uiso   1.00
H729   H     0.99403   0.12009   0.71802   0.00000  Uiso   1.00
H730   H     0.94638   0.27042   0.94570   0.00000  Uiso   1.00
H731   H     0.99256   0.25653   0.51632   0.00000  Uiso   1.00
H732   H     0.79899   0.13141   0.58458   0.00000  Uiso   1.00
H733   H     0.69536   0.09814   0.88997   0.00000  Uiso   1.00
H734   H     0.74399   0.09355   0.53347   0.00000  Uiso   1.00
H735   H     0.86644   0.24409   0.89378   0.00000  Uiso   1.00
H736   H     0.90043   0.01291   0.76040   0.00000  Uiso   1.00
N737   N     0.98241   0.18074   0.76416   0.00000  Uiso   1.00
N738   N     0.68426   0.15259   0.73584   0.00000  Uiso   1.00
O739   O     0.79464   0.23807   0.74633   0.00000  Uiso   1.00
O740   O     0.89524   0.24755   0.75587   0.00000  Uiso   1.00
O741   O     0.75848   0.15960   0.81840   0.00000  Uiso   1.00
O742   O     0.85908   0.16908   0.82793   0.00000  Uiso   1.00
O743   O     0.77142   0.08578   0.74414   0.00000  Uiso   1.00
O744   O     0.87203   0.09526   0.75367   0.00000  Uiso   1.00
O745   O     0.80758   0.16425   0.67207   0.00000  Uiso   1.00
O746   O     0.90819   0.17373   0.68161   0.00000  Uiso   1.00
O747   O     0.68144   0.22732   0.77962   0.00000  Uiso   1.00
C748   C     0.98505   0.24157   0.82837   0.00000  Uiso   1.00
H749   H     0.97917   0.20991   0.85534   0.00000  Uiso   1.00
H750   H     0.93948   0.24919   0.82649   0.00000  Uiso   1.00
C751   C     0.68872   0.29368   0.84781   0.00000  Uiso   1.00
H752   H     0.70825   0.32048   0.81608   0.00000  Uiso   1.00
H753   H     0.99036   0.31426   0.87551   0.00000  Uiso   1.00
C754   C     0.74062   0.28573   0.87348   0.00000  Uiso   1.00
H755   H     0.72127   0.26059   0.90666   0.00000  Uiso   1.00
H756   H     0.76548   0.32452   0.88703   0.00000  Uiso   1.00
H757   H     0.77438   0.26695   0.84636   0.00000  Uiso   1.00
O758   O     0.99415   0.05533   0.97780   0.00000  Uiso   1.00
C759   C     0.95041   0.06979   0.51953   0.00000  Uiso   1.00
H760   H     0.91457   0.08402   0.50453   0.00000  Uiso   1.00
H761   H     0.97085   0.10145   0.54570   0.00000  Uiso   1.00
C762   C     0.91932   0.02120   0.55033   0.00000  Uiso   1.00
H763   H     0.89505   0.32383   0.52578   0.00000  Uiso   1.00
H764   H     0.95556   0.00554   0.56329   0.00000  Uiso   1.00
C765   C     0.87227   0.03360   0.59680   0.00000  Uiso   1.00
H766   H     0.89517   0.06431   0.62220   0.00000  Uiso   1.00
H767   H     0.85206   0.33077   0.61846   0.00000  Uiso   1.00
H768   H     0.83405   0.04719   0.58480   0.00000  Uiso   1.00
C769   C     0.18198   0.59996   0.75076   0.00000  Uiso   1.00
C770   C     0.13935   0.48811   0.98562   0.00000  Uiso   1.00
C771   C     0.14948   0.51036   0.93756   0.00000  Uiso   1.00
C772   C     0.18348   0.50686   0.51795   0.00000  Uiso   1.00
C773   C     0.23737   0.54551   0.50073   0.00000  Uiso   1.00
C774   C     0.24222   0.57053   0.95609   0.00000  Uiso   1.00
C775   C     0.19736   0.55468   0.92605   0.00000  Uiso   1.00
C776   C     0.17473   0.49043   0.56769   0.00000  Uiso   1.00
C777   C     0.27464   0.54369   0.57895   0.00000  Uiso   1.00
C778   C     0.11173   0.48779   0.90182   0.00000  Uiso   1.00
C779   C     0.19047   0.65594   0.75161   0.00000  Uiso   1.00
C780   C     0.13313   0.49658   0.84695   0.00000  Uiso   1.00
C781   C     0.14538   0.34411   0.74299   0.00000  Uiso   1.00
C782   C     0.15226   0.40004   0.74703   0.00000  Uiso   1.00
C783   C     0.19980   0.50321   0.65327   0.00000  Uiso   1.00
C784   C     0.28390   0.56143   0.53009   0.00000  Uiso   1.00
C785   C     0.21853   0.51040   0.59867   0.00000  Uiso   1.00
C786   C     0.05808   0.44923   0.91699   0.00000  Uiso   1.00
C787   C     0.04404   0.43030   0.96584   0.00000  Uiso   1.00
C788   C     0.08649   0.44732   0.99870   0.00000  Uiso   1.00
Cu789  Cu    0.10710   0.49439   0.74436   0.00000  Uiso   1.00
Cu790  Cu    0.22623   0.50561   0.75565   0.00000  Uiso   1.00
H791   H     0.30896   0.55926   0.60254   0.00000  Uiso   1.00
H792   H     0.10254   0.65377   0.73343   0.00000  Uiso   1.00
H793   H     0.32736   0.45342   0.71802   0.00000  Uiso   1.00
H794   H     0.27971   0.60375   0.94570   0.00000  Uiso   1.00
H795   H     0.32590   0.58987   0.51632   0.00000  Uiso   1.00
H796   H     0.13232   0.46474   0.58458   0.00000  Uiso   1.00
H797   H     0.02870   0.43147   0.88997   0.00000  Uiso   1.00
H798   H     0.07732   0.42688   0.53347   0.00000  Uiso   1.00
H799   H     0.19977   0.57742   0.89378   0.00000  Uiso   1.00
H800   H     0.23377   0.34624   0.76040   0.00000  Uiso   1.00
N801   N     0.31574   0.51407   0.76416   0.00000  Uiso   1.00
N802   N     0.01759   0.48593   0.73584   0.00000  Uiso   1.00
O803   O     0.12797   0.57141   0.74633   0.00000  Uiso   1.00
O804   O     0.22858   0.58089   0.75587   0.00000  Uiso   1.00
O805   O     0.09181   0.49293   0.81840   0.00000  Uiso   1.00
O806   O     0.19242   0.50241   0.82793   0.00000  Uiso   1.00
O807   O     0.10476   0.41911   0.74414   0.00000  Uiso   1.00
O808   O     0.20536   0.42859   0.75367   0.00000  Uiso   1.00
O809   O     0.14092   0.49759   0.67207   0.00000  Uiso   1.00
O810   O     0.24152   0.50707   0.68161   0.00000  Uiso   1.00
O811   O     0.01478   0.56065   0.77962   0.00000  Uiso   1.00
C812   C     0.31838   0.57491   0.82837   0.00000  Uiso   1.00
H813   H     0.31250   0.54324   0.85534   0.00000  Uiso   1.00
H814   H     0.27281   0.58253   0.82649   0.00000  Uiso   1.00
C815   C     0.02205   0.62701   0.84781   0.00000  Uiso   1.00
H816   H     0.04159   0.65382   0.81608   0.00000  Uiso   1.00
H817   H     0.32370   0.64759   0.87551   0.00000  Uiso   1.00
C818   C     0.07395   0.61906   0.87348   0.00000  Uiso   1.00
H819   H     0.05461   0.59392   0.90666   0.00000  Uiso   1.00
H820   H     0.09881   0.65785   0.88703   0.00000  Uiso   1.00
H821   H     0.10771   0.60028   0.84636   0.00000  Uiso   1.00
O822   O     0.32749   0.38866   0.97780   0.00000  Uiso   1.00
C823   C     0.28374   0.40313   0.51953   0.00000  Uiso   1.00
H824   H     0.24790   0.41735   0.50453   0.00000  Uiso   1.00
H825   H     0.30418   0.43478   0.54570   0.00000  Uiso   1.00
C826   C     0.25265   0.35454   0.55033   0.00000  Uiso   1.00
H827   H     0.22838   0.65716   0.52578   0.00000  Uiso   1.00
H828   H     0.28889   0.33887   0.56329   0.00000  Uiso   1.00
C829   C     0.20560   0.36693   0.59680   0.00000  Uiso   1.00
H830   H     0.22850   0.39764   0.62220   0.00000  Uiso   1.00
H831   H     0.18539   0.66410   0.61846   0.00000  Uiso   1.00
H832   H     0.16738   0.38052   0.58480   0.00000  Uiso   1.00
C833   C     0.51531   0.59996   0.75076   0.00000  Uiso   1.00
C834   C     0.47268   0.48811   0.98562   0.00000  Uiso   1.00
C835   C     0.48281   0.51036   0.93756   0.00000  Uiso   1.00
C836   C     0.51681   0.50686   0.51795   0.00000  Uiso   1.00
C837   C     0.57070   0.54551   0.50073   0.00000  Uiso   1.00
C838   C     0.57555   0.57053   0.95609   0.00000  Uiso   1.00
C839   C     0.53069   0.55468   0.92605   0.00000  Uiso   1.00
C840   C     0.50806   0.49043   0.56769   0.00000  Uiso   1.00
C841   C     0.60798   0.54369   0.57895   0.00000  Uiso   1.00
C842   C     0.44506   0.48779   0.90182   0.00000  Uiso   1.00
C843   C     0.52380   0.65594   0.75161   0.00000  Uiso   1.00
C844   C     0.46646   0.49658   0.84695   0.00000  Uiso   1.00
C845   C     0.47871   0.34411   0.74299   0.00000  Uiso   1.00
C846   C     0.48559   0.40004   0.74703   0.00000  Uiso   1.00
C847   C     0.53313   0.50321   0.65327   0.00000  Uiso   1.00
C848   C     0.61724   0.56143   0.53009   0.00000  Uiso   1.00
C849   C     0.55186   0.51040   0.59867   0.00000  Uiso   1.00
C850   C     0.39141   0.44923   0.91699   0.00000  Uiso   1.00
C851   C     0.37737   0.43030   0.96584   0.00000  Uiso   1.00
C852   C     0.41983   0.44732   0.99870   0.00000  Uiso   1.00
Cu853  Cu    0.44043   0.49439   0.74436   0.00000  Uiso   1.00
Cu854  Cu    0.55957   0.50561   0.75565   0.00000  Uiso   1.00
H855   H     0.64230   0.55926   0.60254   0.00000  Uiso   1.00
H856   H     0.43587   0.65377   0.73343   0.00000  Uiso   1.00
H857   H     0.66069   0.45342   0.71802   0.00000  Uiso   1.00
H858   H     0.61304   0.60375   0.94570   0.00000  Uiso   1.00
H859   H     0.65923   0.58987   0.51632   0.00000  Uiso   1.00
H860   H     0.46566   0.46474   0.58458   0.00000  Uiso   1.00
H861   H     0.36203   0.43147   0.88997   0.00000  Uiso   1.00
H862   H     0.41066   0.42688   0.53347   0.00000  Uiso   1.00
H863   H     0.53310   0.57742   0.89378   0.00000  Uiso   1.00
H864   H     0.56710   0.34624   0.76040   0.00000  Uiso   1.00
N865   N     0.64908   0.51407   0.76416   0.00000  Uiso   1.00
N866   N     0.35092   0.48593   0.73584   0.00000  Uiso   1.00
O867   O     0.46131   0.57141   0.74633   0.00000  Uiso   1.00
O868   O     0.56191   0.58089   0.75587   0.00000  Uiso   1.00
O869   O     0.42515   0.49293   0.81840   0.00000  Uiso   1.00
O870   O     0.52575   0.50241   0.82793   0.00000  Uiso   1.00
O871   O     0.43809   0.41911   0.74414   0.00000  Uiso   1.00
O872   O     0.53869   0.42859   0.75367   0.00000  Uiso   1.00
O873   O     0.47425   0.49759   0.67207   0.00000  Uiso   1.00
O874   O     0.57485   0.50707   0.68161   0.00000  Uiso   1.00
O875   O     0.34811   0.56065   0.77962   0.00000  Uiso   1.00
C876   C     0.65171   0.57491   0.82837   0.00000  Uiso   1.00
H877   H     0.64583   0.54324   0.85534   0.00000  Uiso   1.00
H878   H     0.60615   0.58253   0.82649   0.00000  Uiso   1.00
C879   C     0.35539   0.62701   0.84781   0.00000  Uiso   1.00
H880   H     0.37492   0.65382   0.81608   0.00000  Uiso   1.00
H881   H     0.65703   0.64759   0.87551   0.00000  Uiso   1.00
C882   C     0.40729   0.61906   0.87348   0.00000  Uiso   1.00
H883   H     0.38794   0.59392   0.90666   0.00000  Uiso   1.00
H884   H     0.43215   0.65785   0.88703   0.00000  Uiso   1.00
H885   H     0.44104   0.60028   0.84636   0.00000  Uiso   1.00
O886   O     0.66082   0.38866   0.97780   0.00000  Uiso   1.00
C887   C     0.61707   0.40313   0.51953   0.00000  Uiso   1.00
H888   H     0.58124   0.41735   0.50453   0.00000  Uiso   1.00
H889   H     0.63751   0.43478   0.54570   0.00000  Uiso   1.00
C890   C     0.58599   0.35454   0.55033   0.00000  Uiso   1.00
H891   H     0.56171   0.65716   0.52578   0.00000  Uiso   1.00
H892   H     0.62222   0.33887   0.56329   0.00000  Uiso   1.00
C893   C     0.53894   0.36693   0.59680   0.00000  Uiso   1.00
H894   H     0.56184   0.39764   0.62220   0.00000  Uiso   1.00
H895   H     0.51872   0.66410   0.61846   0.00000  Uiso   1.00
H896   H     0.50071   0.38052   0.58480   0.00000  Uiso   1.00
C897   C     0.84864   0.59996   0.75076   0.00000  Uiso   1.00
C898   C     0.80602   0.48811   0.98562   0.00000  Uiso   1.00
C899   C     0.81614   0.51036   0.93756   0.00000  Uiso   1.00
C900   C     0.85014   0.50686   0.51795   0.00000  Uiso   1.00
C901   C     0.90403   0.54551   0.50073   0.00000  Uiso   1.00
C902   C     0.90889   0.57053   0.95609   0.00000  Uiso   1.00
C903   C     0.86402   0.55468   0.92605   0.00000  Uiso   1.00
C904   C     0.84139   0.49043   0.56769   0.00000  Uiso   1.00
C905   C     0.94131   0.54369   0.57895   0.00000  Uiso   1.00
C906   C     0.77840   0.48779   0.90182   0.00000  Uiso   1.00
C907   C     0.85714   0.65594   0.75161   0.00000  Uiso   1.00
C908   C     0.79980   0.49658   0.84695   0.00000  Uiso   1.00
C909   C     0.81205   0.34411   0.74299   0.00000  Uiso   1.00
C910   C     0.81893   0.40004   0.74703   0.00000  Uiso   1.00
C911   C     0.86647   0.50321   0.65327   0.00000  Uiso   1.00
C912   C     0.95057   0.56143   0.53009   0.00000  Uiso   1.00
C913   C     0.88520   0.51040   0.59867   0.00000  Uiso   1.00
C914   C     0.72475   0.44923   0.91699   0.00000  Uiso   1.00
C915   C     0.71070   0.43030   0.96584   0.00000  Uiso   1.00
C916   C     0.75316   0.44732   0.99870   0.00000  Uiso   1.00
Cu917  Cu    0.77377   0.49439   0.74436   0.00000  Uiso   1.00
Cu918  Cu    0.89290   0.50561   0.75565   0.00000  Uiso   1.00
H919   H     0.97563   0.55926   0.60254   0.00000  Uiso   1.00
H920   H     0.76920   0.65377   0.73343   0.00000  Uiso   1.00
H921   H     0.99403   0.45342   0.71802   0.00000  Uiso   1.00
H922   H     0.94638   0.60375   0.94570   0.00000  Uiso   1.00
H923   H     0.99256   0.58987   0.51632   0.00000  Uiso   1.00
H924   H     0.79899   0.46474   0.58458   0.00000  Uiso   1.00
H925   H     0.69536   0.43147   0.88997   0.00000  Uiso   1.00
H926   H     0.74399   0.42688   0.53347   0.00000  Uiso   1.00
H927   H     0.86644   0.57742   0.89378   0.00000  Uiso   1.00
H928   H     0.90043   0.34624   0.76040   0.00000  Uiso   1.00
N929   N     0.98241   0.51407   0.76416   0.00000  Uiso   1.00
N930   N     0.68426   0.48593   0.73584   0.00000  Uiso   1.00
O931   O     0.79464   0.57141   0.74633   0.00000  Uiso   1.00
O932   O     0.89524   0.58089   0.75587   0.00000  Uiso   1.00
O933   O     0.75848   0.49293   0.81840   0.00000  Uiso   1.00
O934   O     0.85908   0.50241   0.82793   0.00000  Uiso   1.00
O935   O     0.77142   0.41911   0.74414   0.00000  Uiso   1.00
O936   O     0.87203   0.42859   0.75367   0.00000  Uiso   1.00
O937   O     0.80758   0.49759   0.67207   0.00000  Uiso   1.00
O938   O     0.90819   0.50707   0.68161   0.00000  Uiso   1.00
O939   O     0.68144   0.56065   0.77962   0.00000  Uiso   1.00
C940   C     0.98505   0.57491   0.82837   0.00000  Uiso   1.00
H941   H     0.97917   0.54324   0.85534   0.00000  Uiso   1.00
H942   H     0.93948   0.58253   0.82649   0.00000  Uiso   1.00
C943   C     0.68872   0.62701   0.84781   0.00000  Uiso   1.00
H944   H     0.70825   0.65382   0.81608   0.00000  Uiso   1.00
H945   H     0.99036   0.64759   0.87551   0.00000  Uiso   1.00
C946   C     0.74062   0.61906   0.87348   0.00000  Uiso   1.00
H947   H     0.72127   0.59392   0.90666   0.00000  Uiso   1.00
H948   H     0.76548   0.65785   0.88703   0.00000  Uiso   1.00
H949   H     0.77438   0.60028   0.84636   0.00000  Uiso   1.00
O950   O     0.99415   0.38866   0.97780   0.00000  Uiso   1.00
C951   C     0.95041   0.40313   0.51953   0.00000  Uiso   1.00
H952   H     0.91457   0.41735   0.50453   0.00000  Uiso   1.00
H953   H     0.97085   0.43478   0.54570   0.00000  Uiso   1.00
C954   C     0.91932   0.35454   0.55033   0.00000  Uiso   1.00
H955   H     0.89505   0.65716   0.52578   0.00000  Uiso   1.00
H956   H     0.95556   0.33887   0.56329   0.00000  Uiso   1.00
C957   C     0.87227   0.36693   0.59680   0.00000  Uiso   1.00
H958   H     0.89517   0.39764   0.62220   0.00000  Uiso   1.00
H959   H     0.85206   0.66410   0.61846   0.00000  Uiso   1.00
H960   H     0.83405   0.38052   0.58480   0.00000  Uiso   1.00
C961   C     0.18198   0.93329   0.75076   0.00000  Uiso   1.00
C962   C     0.13935   0.82144   0.98562   0.00000  Uiso   1.00
C963   C     0.14948   0.84369   0.93756   0.00000  Uiso   1.00
C964   C     0.18348   0.84020   0.51795   0.00000  Uiso   1.00
C965   C     0.23737   0.87885   0.50073   0.00000  Uiso   1.00
C966   C     0.24222   0.90386   0.95609   0.00000  Uiso   1.00
C967   C     0.19736   0.88801   0.92605   0.00000  Uiso   1.00
C968   C     0.17473   0.82377   0.56769   0.00000  Uiso   1.00
C969   C     0.27464   0.87703   0.57895   0.00000  Uiso   1.00
C970   C     0.11173   0.82113   0.90182   0.00000  Uiso   1.00
C971   C     0.19047   0.98928   0.75161   0.00000  Uiso   1.00
C972   C     0.13313   0.82992   0.84695   0.00000  Uiso   1.00
C973   C     0.14538   0.67745   0.74299   0.00000  Uiso   1.00
C974   C     0.15226   0.73337   0.74703   0.00000  Uiso   1.00
C975   C     0.19980   0.83654   0.65327   0.00000  Uiso   1.00
C976   C     0.28390   0.89477   0.53009   0.00000  Uiso   1.00
C977   C     0.21853   0.84373   0.59867   0.00000  Uiso   1.00
C978   C     0.05808   0.78256   0.91699   0.00000  Uiso   1.00
C979   C     0.04404   0.76363   0.96584   0.00000  Uiso   1.00
C980   C     0.08649   0.78066   0.99870   0.00000  Uiso   1.00
Cu981  Cu    0.10710   0.82772   0.74436   0.00000  Uiso   1.00
Cu982  Cu    0.22623   0.83895   0.75565   0.00000  Uiso   1.00
H983   H     0.30896   0.89259   0.60254   0.00000  Uiso   1.00
H984   H     0.10254   0.98711   0.73343   0.00000  Uiso   1.00
H985   H     0.32736   0.78676   0.71802   0.00000  Uiso   1.00
H986   H     0.27971   0.93709   0.94570   0.00000  Uiso   1.00
H987   H     0.32590   0.92320   0.51632   0.00000  Uiso   1.00
H988   H     0.13232   0.79808   0.58458   0.00000  Uiso   1.00
H989   H     0.02870   0.76481   0.88997   0.00000  Uiso   1.00
H990   H     0.07732   0.76021   0.53347   0.00000  Uiso   1.00
H991   H     0.19977   0.91075   0.89378   0.00000  Uiso   1.00
H992   H     0.23377   0.67958   0.76040   0.00000  Uiso   1.00
N993   N     0.31574   0.84741   0.76416   0.00000  Uiso   1.00
N994   N     0.01759   0.81926   0.73584   0.00000  Uiso   1.00
O995   O     0.12797   0.90474   0.74633   0.00000  Uiso   1.00
O996   O     0.22858   0.91422   0.75587   0.00000  Uiso   1.00
O997   O     0.09181   0.82627   0.81840   0.00000  Uiso   1.00
O998   O     0.19242   0.83575   0.82793   0.00000  Uiso   1.00
O999   O     0.10476   0.75245   0.74414   0.00000  Uiso   1.00
O1000  O     0.20536   0.76193   0.75367   0.00000  Uiso   1.00
O1001  O     0.14092   0.83092   0.67207   0.00000  Uiso   1.00
O1002  O     0.24152   0.84040   0.68161   0.00000  Uiso   1.00
O1003  O     0.01478   0.89399   0.77962   0.00000  Uiso   1.00
C1004  C     0.31838   0.90824   0.82837   0.00000  Uiso   1.00
H1005  H     0.31250   0.87657   0.85534   0.00000  Uiso   1.00
H1006  H     0.27281   0.91586   0.82649   0.00000  Uiso   1.00
C1007  C     0.02205   0.96035   0.84781   0.00000  Uiso   1.00
H1008  H     0.04159   0.98715   0.81608   0.00000  Uiso   1.00
H1009  H     0.32370   0.98093   0.87551   0.00000  Uiso   1.00
C1010  C     0.07395   0.95240   0.87348   0.00000  Uiso   1.00
H1011  H     0.05461   0.92725   0.90666   0.00000  Uiso   1.00
H1012  H     0.09881   0.99119   0.88703   0.00000  Uiso   1.00
H1013  H     0.10771   0.93361   0.84636   0.00000  Uiso   1.00
O1014  O     0.32749   0.72199   0.97780   0.00000  Uiso   1.00
C1015  C     0.28374   0.73646   0.51953   0.00000  Uiso   1.00
H1016  H     0.24790   0.75068   0.50453   0.00000  Uiso   1.00
H1017  H     0.30418   0.76811   0.54570   0.00000  Uiso   1.00
C1018  C     0.25265   0.68787   0.55033   0.00000  Uiso   1.00
H1019  H     0.22838   0.99049   0.52578   0.00000  Uiso   1.00
H1020  H     0.28889   0.67220   0.56329   0.00000  Uiso   1.00
C1021  C     0.20560   0.70026   0.59680   0.00000  Uiso   1.00
H1022  H     0.22850   0.73098   0.62220   0.00000  Uiso   1.00
H1023  H     0.18539   0.99744   0.61846   0.00000  Uiso   1.00
H1024  H     0.16738   0.71386   0.58480   0.00000  Uiso   1.00
C1025  C     0.51531   0.93329   0.75076   0.00000  Uiso   1.00
C1026  C     0.47268   0.82144   0.98562   0.00000  Uiso   1.00
C1027  C     0.48281   0.84369   0.93756   0.00000  Uiso   1.00
C1028  C     0.51681   0.84020   0.51795   0.00000  Uiso   1.00
C1029  C     0.57070   0.87885   0.50073   0.00000  Uiso   1.00
C1030  C     0.57555   0.90386   0.95609   0.00000  Uiso   1.00
C1031  C     0.53069   0.88801   0.92605   0.00000  Uiso   1.00
C1032  C     0.50806   0.82377   0.56769   0.00000  Uiso   1.00
C1033  C     0.60798   0.87703   0.57895   0.00000  Uiso   1.00
C1034  C     0.44506   0.82113   0.90182   0.00000  Uiso   1.00
C1035  C     0.52380   0.98928   0.75161   0.00000  Uiso   1.00
C1036  C     0.46646   0.82992   0.84695   0.00000  Uiso   1.00
C1037  C     0.47871   0.67745   0.74299   0.00000  Uiso   1.00
C1038  C     0.48559   0.73337   0.74703   0.00000  Uiso   1.00
C1039  C     0.53313   0.83654   0.65327   0.00000  Uiso   1.00
C1040  C     0.61724   0.89477   0.53009   0.00000  Uiso   1.00
C1041  C     0.55186   0.84373   0.59867   0.00000  Uiso   1.00
C1042  C     0.39141   0.78256   0.91699   0.00000  Uiso   1.00
C1043  C     0.37737   0.76363   0.96584   0.00000  Uiso   1.00
C1044  C     0.41983   0.78066   0.99870   0.00000  Uiso   1.00
Cu1045 Cu    0.44043   0.82772   0.74436   0.00000  Uiso   1.00
Cu1046 Cu    0.55957   0.83895   0.75565   0.00000  Uiso   1.00
H1047  H     0.64230   0.89259   0.60254   0.00000  Uiso   1.00
H1048  H     0.43587   0.98711   0.73343   0.00000  Uiso   1.00
H1049  H     0.66069   0.78676   0.71802   0.00000  Uiso   1.00
H1050  H     0.61304   0.93709   0.94570   0.00000  Uiso   1.00
H1051  H     0.65923   0.92320   0.51632   0.00000  Uiso   1.00
H1052  H     0.46566   0.79808   0.58458   0.00000  Uiso   1.00
H1053  H     0.36203   0.76481   0.88997   0.00000  Uiso   1.00
H1054  H     0.41066   0.76021   0.53347   0.00000  Uiso   1.00
H1055  H     0.53310   0.91075   0.89378   0.00000  Uiso   1.00
H1056  H     0.56710   0.67958   0.76040   0.00000  Uiso   1.00
N1057  N     0.64908   0.84741   0.76416   0.00000  Uiso   1.00
N1058  N     0.35092   0.81926   0.73584   0.00000  Uiso   1.00
O1059  O     0.46131   0.90474   0.74633   0.00000  Uiso   1.00
O1060  O     0.56191   0.91422   0.75587   0.00000  Uiso   1.00
O1061  O     0.42515   0.82627   0.81840   0.00000  Uiso   1.00
O1062  O     0.52575   0.83575   0.82793   0.00000  Uiso   1.00
O1063  O     0.43809   0.75245   0.74414   0.00000  Uiso   1.00
O1064  O     0.53869   0.76193   0.75367   0.00000  Uiso   1.00
O1065  O     0.47425   0.83092   0.67207   0.00000  Uiso   1.00
O1066  O     0.57485   0.84040   0.68161   0.00000  Uiso   1.00
O1067  O     0.34811   0.89399   0.77962   0.00000  Uiso   1.00
C1068  C     0.65171   0.90824   0.82837   0.00000  Uiso   1.00
H1069  H     0.64583   0.87657   0.85534   0.00000  Uiso   1.00
H1070  H     0.60615   0.91586   0.82649   0.00000  Uiso   1.00
C1071  C     0.35539   0.96035   0.84781   0.00000  Uiso   1.00
H1072  H     0.37492   0.98715   0.81608   0.00000  Uiso   1.00
H1073  H     0.65703   0.98093   0.87551   0.00000  Uiso   1.00
C1074  C     0.40729   0.95240   0.87348   0.00000  Uiso   1.00
H1075  H     0.38794   0.92725   0.90666   0.00000  Uiso   1.00
H1076  H     0.43215   0.99119   0.88703   0.00000  Uiso   1.00
H1077  H     0.44104   0.93361   0.84636   0.00000  Uiso   1.00
O1078  O     0.66082   0.72199   0.97780   0.00000  Uiso   1.00
C1079  C     0.61707   0.73646   0.51953   0.00000  Uiso   1.00
H1080  H     0.58124   0.75068   0.50453   0.00000  Uiso   1.00
H1081  H     0.63751   0.76811   0.54570   0.00000  Uiso   1.00
C1082  C     0.58599   0.68787   0.55033   0.00000  Uiso   1.00
H1083  H     0.56171   0.99049   0.52578   0.00000  Uiso   1.00
H1084  H     0.62222   0.67220   0.56329   0.00000  Uiso   1.00
C1085  C     0.53894   0.70026   0.59680   0.00000  Uiso   1.00
H1086  H     0.56184   0.73098   0.62220   0.00000  Uiso   1.00
H1087  H     0.51872   0.99744   0.61846   0.00000  Uiso   1.00
H1088  H     0.50071   0.71386   0.58480   0.00000  Uiso   1.00
C1089  C     0.84864   0.93329   0.75076   0.00000  Uiso   1.00
C1090  C     0.80602   0.82144   0.98562   0.00000  Uiso   1.00
C1091  C     0.81614   0.84369   0.93756   0.00000  Uiso   1.00
C1092  C     0.85014   0.84020   0.51795   0.00000  Uiso   1.00
C1093  C     0.90403   0.87885   0.50073   0.00000  Uiso   1.00
C1094  C     0.90889   0.90386   0.95609   0.00000  Uiso   1.00
C1095  C     0.86402   0.88801   0.92605   0.00000  Uiso   1.00
C1096  C     0.84139   0.82377   0.56769   0.00000  Uiso   1.00
C1097  C     0.94131   0.87703   0.57895   0.00000  Uiso   1.00
C1098  C     0.77840   0.82113   0.90182   0.00000  Uiso   1.00
C1099  C     0.85714   0.98928   0.75161   0.00000  Uiso   1.00
C1100  C     0.79980   0.82992   0.84695   0.00000  Uiso   1.00
C1101  C     0.81205   0.67745   0.74299   0.00000  Uiso   1.00
C1102  C     0.81893   0.73337   0.74703   0.00000  Uiso   1.00
C1103  C     0.86647   0.83654   0.65327   0.00000  Uiso   1.00
C1104  C     0.95057   0.89477   0.53009   0.00000  Uiso   1.00
C1105  C     0.88520   0.84373   0.59867   0.00000  Uiso   1.00
C1106  C     0.72475   0.78256   0.91699   0.00000  Uiso   1.00
C1107  C     0.71070   0.76363   0.96584   0.00000  Uiso   1.00
C1108  C     0.75316   0.78066   0.99870   0.00000  Uiso   1.00
Cu1109 Cu    0.77377   0.82772   0.74436   0.00000  Uiso   1.00
Cu1110 Cu    0.89290   0.83895   0.75565   0.00000  Uiso   1.00
H1111  H     0.97563   0.89259   0.60254   0.00000  Uiso   1.00
H1112  H     0.76920   0.98711   0.73343   0.00000  Uiso   1.00
H1113  H     0.99403   0.78676   0.71802   0.00000  Uiso   1.00
H1114  H     0.94638   0.93709   0.94570   0.00000  Uiso   1.00
H1115  H     0.99256   0.92320   0.51632   0.00000  Uiso   1.00
H1116  H     0.79899   0.79808   0.58458   0.00000  Uiso   1.00
H1117  H     0.69536   0.76481   0.88997   0.00000  Uiso   1.00
H1118  H     0.74399   0.76021   0.53347   0.00000  Uiso   1.00
H1119  H     0.86644   0.91075   0.89378   0.00000  Uiso   1.00
H1120  H     0.90043   0.67958   0.76040   0.00000  Uiso   1.00
N1121  N     0.98241   0.84741   0.76416   0.00000  Uiso   1.00
N1122  N     0.68426   0.81926   0.73584   0.00000  Uiso   1.00
O1123  O     0.79464   0.90474   0.74633   0.00000  Uiso   1.00
O1124  O     0.89524   0.91422   0.75587   0.00000  Uiso   1.00
O1125  O     0.75848   0.82627   0.81840   0.00000  Uiso   1.00
O1126  O     0.85908   0.83575   0.82793   0.00000  Uiso   1.00
O1127  O     0.77142   0.75245   0.74414   0.00000  Uiso   1.00
O1128  O     0.87203   0.76193   0.75367   0.00000  Uiso   1.00
O1129  O     0.80758   0.83092   0.67207   0.00000  Uiso   1.00
O1130  O     0.90819   0.84040   0.68161   0.00000  Uiso   1.00
O1131  O     0.68144   0.89399   0.77962   0.00000  Uiso   1.00
C1132  C     0.98505   0.90824   0.82837   0.00000  Uiso   1.00
H1133  H     0.97917   0.87657   0.85534   0.00000  Uiso   1.00
H1134  H     0.93948   0.91586   0.82649   0.00000  Uiso   1.00
C1135  C     0.68872   0.96035   0.84781   0.00000  Uiso   1.00
H1136  H     0.70825   0.98715   0.81608   0.00000  Uiso   1.00
H1137  H     0.99036   0.98093   0.87551   0.00000  Uiso   1.00
C1138  C     0.74062   0.95240   0.87348   0.00000  Uiso   1.00
H1139  H     0.72127   0.92725   0.90666   0.00000  Uiso   1.00
H1140  H     0.76548   0.99119   0.88703   0.00000  Uiso   1.00
H1141  H     0.77438   0.93361   0.84636   0.00000  Uiso   1.00
O1142  O     0.99415   0.72199   0.97780   0.00000  Uiso   1.00
C1143  C     0.95041   0.73646   0.51953   0.00000  Uiso   1.00
H1144  H     0.91457   0.75068   0.50453   0.00000  Uiso   1.00
H1145  H     0.97085   0.76811   0.54570   0.00000  Uiso   1.00
C1146  C     0.91932   0.68787   0.55033   0.00000  Uiso   1.00
H1147  H     0.89505   0.99049   0.52578   0.00000  Uiso   1.00
H1148  H     0.95556   0.67220   0.56329   0.00000  Uiso   1.00
C1149  C     0.87227   0.70026   0.59680   0.00000  Uiso   1.00
H1150  H     0.89517   0.73098   0.62220   0.00000  Uiso   1.00
H1151  H     0.85206   0.99744   0.61846   0.00000  Uiso   1.00
H1152  H     0.83405   0.71386   0.58480   0.00000  Uiso   1.00
loop_
_geom_bond_atom_site_label_1
_geom_bond_atom_site_label_2
_geom_bond_distance
_geom_bond_site_symmetry_2
_ccdc_geom_bond_type
C1     C11     1.427   .     S
C1     O35     1.297   .     A
C1     O36     1.288   .     A
C2     C3      1.417   .     A
C2     C20     1.416   .     A
C2     C580    1.426   .     S
C3     C10     1.412   .     A
C3     C7      1.403   .     A
C4     C8      1.401   .     A
C4     C5      1.419   .     A
C4     C578    1.426   1_554 S
C5     C16     1.403   .     A
C5     C582    1.388   1_554 S
C6     C7      1.386   .     A
C6     H26     1.078   .     S
C6     C581    1.388   .     S
C7     H31     1.078   .     S
C8     C17     1.399   .     A
C8     H28     1.077   .     S
C9     C17     1.397   .     A
C9     C16     1.390   .     A
C9     H23     1.083   .     S
C10    C12     1.476   .     S
C10    C18     1.403   .     A
C11    C205    1.326   .     S
C11    H224    1.088   .     S
C12    O38     1.307   .     A
C12    O37     1.301   .     A
C13    C14     1.427   .     S
C13    C395    1.326   1_545 S
C13    H408    1.087   1_545 S
C14    O39     1.290   .     A
C14    O40     1.296   .     A
C15    O42     1.303   .     A
C15    O41     1.298   .     A
C15    C17     1.458   .     S
C16    H27     1.084   .     S
C18    C19     1.394   .     A
C18    H29     1.084   .     S
C19    C20     1.403   .     A
C19    O182    1.384   1_455 S
C20    H606    1.077   .     S
Cu21   O35     1.956   .     S
Cu21   O39     1.949   .     S
Cu21   Cu22    2.702   .     S
Cu21   O41     1.939   .     S
Cu21   O37     1.951   .     S
Cu21   N34     2.030   .     S
Cu22   O42     1.951   .     S
Cu22   O36     1.949   .     S
Cu22   O40     1.956   .     S
Cu22   O38     1.939   .     S
Cu22   N33     2.030   .     S
H24    C205    1.087   .     S
H25    N98     1.029   .     S
H30    C596    1.077   1_554 S
H32    C395    1.088   1_545 S
N33    N98     1.286   .     S
N33    O107    1.348   .     S
N34    N161    1.286   1_455 S
N34    H153    1.029   1_455 S
O43    N161    1.348   1_455 S
O43    C172    1.403   1_455 S
C44    H46     1.096   .     S
C44    H45     1.114   .     S
C44    O107    1.403   .     S
C44    C111    1.536   .     S
C47    C50     1.527   .     S
C47    H48     1.107   .     S
C47    C172    1.536   1_455 S
C47    H177    1.110   1_455 S
H49    C111    1.110   .     S
C50    H52     1.111   .     S
C50    H53     1.106   .     S
C50    H51     1.111   .     S
O54    C83     1.384   .     S
O54    C631    1.417   .     S
C55    H56     1.111   .     S
C55    H57     1.116   .     S
C55    C58     1.529   .     S
C55    O630    1.417   1_554 S
C58    H60     1.111   .     S
C58    C61     1.525   .     S
C58    H443    1.110   1_545 S
H59    C250    1.110   .     S
C61    H64     1.110   .     S
C61    H62     1.110   .     S
C61    H447    1.111   1_545 S
H63    C253    1.111   .     S
C65    C75     1.427   .     S
C65    O99     1.297   .     A
C65    O100    1.288   .     A
C66    C67     1.417   .     A
C66    C84     1.416   .     A
C66    C644    1.426   .     S
C67    C74     1.412   .     A
C67    C71     1.403   .     A
C68    C72     1.401   .     A
C68    C69     1.419   .     A
C68    C642    1.426   1_554 S
C69    C80     1.403   .     A
C69    C646    1.388   1_554 S
C70    C71     1.386   .     A
C70    H90     1.078   .     S
C70    C645    1.388   .     S
C71    H95     1.078   .     S
C72    C81     1.399   .     A
C72    H92     1.077   .     S
C73    C81     1.397   .     A
C73    C80     1.390   .     A
C73    H87     1.083   .     S
C74    C76     1.476   .     S
C74    C82     1.403   .     A
C75    C269    1.326   .     S
C75    H288    1.088   .     S
C76    O102    1.307   .     A
C76    O101    1.301   .     A
C77    C78     1.427   .     S
C77    C459    1.326   1_545 S
C77    H472    1.087   1_545 S
C78    O103    1.290   .     A
C78    O104    1.296   .     A
C79    O106    1.303   .     A
C79    O105    1.298   .     A
C79    C81     1.458   .     S
C80    H91     1.084   .     S
C82    C83     1.394   .     A
C82    H93     1.084   .     S
C83    C84     1.403   .     A
C84    H670    1.077   .     S
Cu85   O99     1.956   .     S
Cu85   O103    1.949   .     S
Cu85   Cu86    2.702   .     S
Cu85   O105    1.939   .     S
Cu85   O101    1.951   .     S
Cu85   N98     2.030   .     S
Cu86   O106    1.951   .     S
Cu86   O100    1.949   .     S
Cu86   O104    1.956   .     S
Cu86   O102    1.939   .     S
Cu86   N97     2.030   .     S
H88    C269    1.087   .     S
H89    N162    1.029   .     S
H94    C660    1.077   1_554 S
H96    C459    1.088   1_545 S
N97    N162    1.286   .     S
N97    O171    1.348   .     S
C108   H110    1.096   .     S
C108   H109    1.114   .     S
C108   O171    1.403   .     S
C108   C175    1.536   .     S
C111   C114    1.527   .     S
C111   H112    1.107   .     S
H113   C175    1.110   .     S
C114   H116    1.111   .     S
C114   H117    1.106   .     S
C114   H115    1.111   .     S
O118   C147    1.384   .     S
O118   C695    1.417   .     S
C119   H120    1.111   .     S
C119   H121    1.116   .     S
C119   C122    1.529   .     S
C119   O694    1.417   1_554 S
C122   H124    1.111   .     S
C122   C125    1.525   .     S
C122   H507    1.110   1_545 S
H123   C314    1.110   .     S
C125   H128    1.110   .     S
C125   H126    1.110   .     S
C125   H511    1.111   1_545 S
H127   C317    1.111   .     S
C129   C139    1.427   .     S
C129   O163    1.297   .     A
C129   O164    1.288   .     A
C130   C131    1.417   .     A
C130   C148    1.416   .     A
C130   C708    1.426   .     S
C131   C138    1.412   .     A
C131   C135    1.403   .     A
C132   C136    1.401   .     A
C132   C133    1.419   .     A
C132   C706    1.426   1_554 S
C133   C144    1.403   .     A
C133   C710    1.388   1_554 S
C134   C135    1.386   .     A
C134   H154    1.078   .     S
C134   C709    1.388   .     S
C135   H159    1.078   .     S
C136   C145    1.399   .     A
C136   H156    1.077   .     S
C137   C145    1.397   .     A
C137   C144    1.390   .     A
C137   H151    1.083   .     S
C138   C140    1.476   .     S
C138   C146    1.403   .     A
C139   C333    1.326   .     S
C139   H352    1.088   .     S
C140   O166    1.307   .     A
C140   O165    1.301   .     A
C141   C142    1.427   .     S
C141   C523    1.326   1_545 S
C141   H536    1.087   1_545 S
C142   O167    1.290   .     A
C142   O168    1.296   .     A
C143   O170    1.303   .     A
C143   O169    1.298   .     A
C143   C145    1.458   .     S
C144   H155    1.084   .     S
C146   C147    1.394   .     A
C146   H157    1.084   .     S
C147   C148    1.403   .     A
C148   H734    1.077   .     S
Cu149  O163    1.956   .     S
Cu149  O167    1.949   .     S
Cu149  Cu150   2.702   .     S
Cu149  O169    1.939   .     S
Cu149  O165    1.951   .     S
Cu149  N162    2.030   .     S
Cu150  O170    1.951   .     S
Cu150  O164    1.949   .     S
Cu150  O168    1.956   .     S
Cu150  O166    1.939   .     S
Cu150  N161    2.030   .     S
H152   C333    1.087   .     S
H153   N34     1.029   1_655 S
H158   C724    1.077   1_554 S
H160   C523    1.088   1_545 S
N161   N34     1.286   1_655 S
N161   O43     1.348   1_655 S
C172   H174    1.096   .     S
C172   H173    1.114   .     S
C172   O43     1.403   1_655 S
C172   C47     1.536   1_655 S
C175   C178    1.527   .     S
C175   H176    1.107   .     S
H177   C47     1.110   1_655 S
C178   H180    1.111   .     S
C178   H181    1.106   .     S
C178   H179    1.111   .     S
O182   C19     1.384   1_655 S
O182   C759    1.417   .     S
C183   H184    1.111   .     S
C183   H185    1.116   .     S
C183   C186    1.529   .     S
C183   O758    1.417   1_554 S
C186   H188    1.111   .     S
C186   C189    1.525   .     S
C186   H571    1.110   1_545 S
H187   C378    1.110   .     S
C189   H192    1.110   .     S
C189   H190    1.110   .     S
C189   H575    1.111   1_545 S
H191   C381    1.111   .     S
C193   C203    1.427   .     S
C193   O227    1.297   .     A
C193   O228    1.288   .     A
C194   C195    1.417   .     A
C194   C212    1.416   .     A
C194   C772    1.426   .     S
C195   C202    1.412   .     A
C195   C199    1.403   .     A
C196   C200    1.401   .     A
C196   C197    1.419   .     A
C196   C770    1.426   1_554 S
C197   C208    1.403   .     A
C197   C774    1.388   1_554 S
C198   C199    1.386   .     A
C198   H218    1.078   .     S
C198   C773    1.388   .     S
C199   H223    1.078   .     S
C200   C209    1.399   .     A
C200   H220    1.077   .     S
C201   C209    1.397   .     A
C201   C208    1.390   .     A
C201   H215    1.083   .     S
C202   C204    1.476   .     S
C202   C210    1.403   .     A
C203   C397    1.326   .     S
C203   H416    1.088   .     S
C204   O230    1.307   .     A
C204   O229    1.301   .     A
C205   C206    1.427   .     S
C206   O231    1.290   .     A
C206   O232    1.296   .     A
C207   O234    1.303   .     A
C207   O233    1.298   .     A
C207   C209    1.458   .     S
C208   H219    1.084   .     S
C210   C211    1.394   .     A
C210   H221    1.084   .     S
C211   C212    1.403   .     A
C211   O374    1.384   1_455 S
C212   H798    1.077   .     S
Cu213  O227    1.956   .     S
Cu213  O231    1.949   .     S
Cu213  Cu214   2.702   .     S
Cu213  O233    1.939   .     S
Cu213  O229    1.951   .     S
Cu213  N226    2.030   .     S
Cu214  O234    1.951   .     S
Cu214  O228    1.949   .     S
Cu214  O232    1.956   .     S
Cu214  O230    1.939   .     S
Cu214  N225    2.030   .     S
H216   C397    1.087   .     S
H217   N290    1.029   .     S
H222   C788    1.077   1_554 S
N225   N290    1.286   .     S
N225   O299    1.348   .     S
N226   N353    1.286   1_455 S
N226   H345    1.029   1_455 S
O235   N353    1.348   1_455 S
O235   C364    1.403   1_455 S
C236   H238    1.096   .     S
C236   H237    1.114   .     S
C236   O299    1.403   .     S
C236   C303    1.536   .     S
C239   C242    1.527   .     S
C239   H240    1.107   .     S
C239   C364    1.536   1_455 S
C239   H369    1.110   1_455 S
H241   C303    1.110   .     S
C242   H244    1.111   .     S
C242   H245    1.106   .     S
C242   H243    1.111   .     S
O246   C275    1.384   .     S
O246   C823    1.417   .     S
C247   H248    1.111   .     S
C247   H249    1.116   .     S
C247   C250    1.529   .     S
C247   O822    1.417   1_554 S
C250   H252    1.111   .     S
C250   C253    1.525   .     S
H251   C442    1.110   .     S
C253   H256    1.110   .     S
C253   H254    1.110   .     S
H255   C445    1.111   .     S
C257   C267    1.427   .     S
C257   O291    1.297   .     A
C257   O292    1.288   .     A
C258   C259    1.417   .     A
C258   C276    1.416   .     A
C258   C836    1.426   .     S
C259   C266    1.412   .     A
C259   C263    1.403   .     A
C260   C264    1.401   .     A
C260   C261    1.419   .     A
C260   C834    1.426   1_554 S
C261   C272    1.403   .     A
C261   C838    1.388   1_554 S
C262   C263    1.386   .     A
C262   H282    1.078   .     S
C262   C837    1.388   .     S
C263   H287    1.078   .     S
C264   C273    1.399   .     A
C264   H284    1.077   .     S
C265   C273    1.397   .     A
C265   C272    1.390   .     A
C265   H279    1.083   .     S
C266   C268    1.476   .     S
C266   C274    1.403   .     A
C267   C461    1.326   .     S
C267   H480    1.088   .     S
C268   O294    1.307   .     A
C268   O293    1.301   .     A
C269   C270    1.427   .     S
C270   O295    1.290   .     A
C270   O296    1.296   .     A
C271   O298    1.303   .     A
C271   O297    1.298   .     A
C271   C273    1.458   .     S
C272   H283    1.084   .     S
C274   C275    1.394   .     A
C274   H285    1.084   .     S
C275   C276    1.403   .     A
C276   H862    1.077   .     S
Cu277  O291    1.956   .     S
Cu277  O295    1.949   .     S
Cu277  Cu278   2.702   .     S
Cu277  O297    1.939   .     S
Cu277  O293    1.951   .     S
Cu277  N290    2.030   .     S
Cu278  O298    1.951   .     S
Cu278  O292    1.949   .     S
Cu278  O296    1.956   .     S
Cu278  O294    1.939   .     S
Cu278  N289    2.030   .     S
H280   C461    1.087   .     S
H281   N354    1.029   .     S
H286   C852    1.077   1_554 S
N289   N354    1.286   .     S
N289   O363    1.348   .     S
C300   H302    1.096   .     S
C300   H301    1.114   .     S
C300   O363    1.403   .     S
C300   C367    1.536   .     S
C303   C306    1.527   .     S
C303   H304    1.107   .     S
H305   C367    1.110   .     S
C306   H308    1.111   .     S
C306   H309    1.106   .     S
C306   H307    1.111   .     S
O310   C339    1.384   .     S
O310   C887    1.417   .     S
C311   H312    1.111   .     S
C311   H313    1.116   .     S
C311   C314    1.529   .     S
C311   O886    1.417   1_554 S
C314   H316    1.111   .     S
C314   C317    1.525   .     S
H315   C506    1.110   .     S
C317   H320    1.110   .     S
C317   H318    1.110   .     S
H319   C509    1.111   .     S
C321   C331    1.427   .     S
C321   O355    1.297   .     A
C321   O356    1.288   .     A
C322   C323    1.417   .     A
C322   C340    1.416   .     A
C322   C900    1.426   .     S
C323   C330    1.412   .     A
C323   C327    1.403   .     A
C324   C328    1.401   .     A
C324   C325    1.419   .     A
C324   C898    1.426   1_554 S
C325   C336    1.403   .     A
C325   C902    1.388   1_554 S
C326   C327    1.386   .     A
C326   H346    1.078   .     S
C326   C901    1.388   .     S
C327   H351    1.078   .     S
C328   C337    1.399   .     A
C328   H348    1.077   .     S
C329   C337    1.397   .     A
C329   C336    1.390   .     A
C329   H343    1.083   .     S
C330   C332    1.476   .     S
C330   C338    1.403   .     A
C331   C525    1.326   .     S
C331   H544    1.088   .     S
C332   O358    1.307   .     A
C332   O357    1.301   .     A
C333   C334    1.427   .     S
C334   O359    1.290   .     A
C334   O360    1.296   .     A
C335   O362    1.303   .     A
C335   O361    1.298   .     A
C335   C337    1.458   .     S
C336   H347    1.084   .     S
C338   C339    1.394   .     A
C338   H349    1.084   .     S
C339   C340    1.403   .     A
C340   H926    1.077   .     S
Cu341  O355    1.956   .     S
Cu341  O359    1.949   .     S
Cu341  Cu342   2.702   .     S
Cu341  O361    1.939   .     S
Cu341  O357    1.951   .     S
Cu341  N354    2.030   .     S
Cu342  O362    1.951   .     S
Cu342  O356    1.949   .     S
Cu342  O360    1.956   .     S
Cu342  O358    1.939   .     S
Cu342  N353    2.030   .     S
H344   C525    1.087   .     S
H345   N226    1.029   1_655 S
H350   C916    1.077   1_554 S
N353   N226    1.286   1_655 S
N353   O235    1.348   1_655 S
C364   H366    1.096   .     S
C364   H365    1.114   .     S
C364   O235    1.403   1_655 S
C364   C239    1.536   1_655 S
C367   C370    1.527   .     S
C367   H368    1.107   .     S
H369   C239    1.110   1_655 S
C370   H372    1.111   .     S
C370   H373    1.106   .     S
C370   H371    1.111   .     S
O374   C211    1.384   1_655 S
O374   C951    1.417   .     S
C375   H376    1.111   .     S
C375   H377    1.116   .     S
C375   C378    1.529   .     S
C375   O950    1.417   1_554 S
C378   H380    1.111   .     S
C378   C381    1.525   .     S
H379   C570    1.110   .     S
C381   H384    1.110   .     S
C381   H382    1.110   .     S
H383   C573    1.111   .     S
C385   C395    1.427   .     S
C385   O419    1.297   .     A
C385   O420    1.288   .     A
C386   C387    1.417   .     A
C386   C404    1.416   .     A
C386   C964    1.426   .     S
C387   C394    1.412   .     A
C387   C391    1.403   .     A
C388   C392    1.401   .     A
C388   C389    1.419   .     A
C388   C962    1.426   1_554 S
C389   C400    1.403   .     A
C389   C966    1.388   1_554 S
C390   C391    1.386   .     A
C390   H410    1.078   .     S
C390   C965    1.388   .     S
C391   H415    1.078   .     S
C392   C401    1.399   .     A
C392   H412    1.077   .     S
C393   C401    1.397   .     A
C393   C400    1.390   .     A
C393   H407    1.083   .     S
C394   C396    1.476   .     S
C394   C402    1.403   .     A
C395   C13     1.326   1_565 S
C395   H32     1.088   1_565 S
C396   O422    1.307   .     A
C396   O421    1.301   .     A
C397   C398    1.427   .     S
C398   O423    1.290   .     A
C398   O424    1.296   .     A
C399   O426    1.303   .     A
C399   O425    1.298   .     A
C399   C401    1.458   .     S
C400   H411    1.084   .     S
C402   C403    1.394   .     A
C402   H413    1.084   .     S
C403   C404    1.403   .     A
C403   O566    1.384   1_455 S
C404   H990    1.077   .     S
Cu405  O419    1.956   .     S
Cu405  O423    1.949   .     S
Cu405  Cu406   2.702   .     S
Cu405  O425    1.939   .     S
Cu405  O421    1.951   .     S
Cu405  N418    2.030   .     S
Cu406  O426    1.951   .     S
Cu406  O420    1.949   .     S
Cu406  O424    1.956   .     S
Cu406  O422    1.939   .     S
Cu406  N417    2.030   .     S
H408   C13     1.087   1_565 S
H409   N482    1.029   .     S
H414   C980    1.077   1_554 S
N417   N482    1.286   .     S
N417   O491    1.348   .     S
N418   N545    1.286   1_455 S
N418   H537    1.029   1_455 S
O427   N545    1.348   1_455 S
O427   C556    1.403   1_455 S
C428   H430    1.096   .     S
C428   H429    1.114   .     S
C428   O491    1.403   .     S
C428   C495    1.536   .     S
C431   C434    1.527   .     S
C431   H432    1.107   .     S
C431   C556    1.536   1_455 S
C431   H561    1.110   1_455 S
H433   C495    1.110   .     S
C434   H436    1.111   .     S
C434   H437    1.106   .     S
C434   H435    1.111   .     S
O438   C467    1.384   .     S
O438   C1015   1.417   .     S
C439   H440    1.111   .     S
C439   H441    1.116   .     S
C439   C442    1.529   .     S
C439   O1014   1.417   1_554 S
C442   H444    1.111   .     S
C442   C445    1.525   .     S
H443   C58     1.110   1_565 S
C445   H448    1.110   .     S
C445   H446    1.110   .     S
H447   C61     1.111   1_565 S
C449   C459    1.427   .     S
C449   O483    1.297   .     A
C449   O484    1.288   .     A
C450   C451    1.417   .     A
C450   C468    1.416   .     A
C450   C1028   1.426   .     S
C451   C458    1.412   .     A
C451   C455    1.403   .     A
C452   C456    1.401   .     A
C452   C453    1.419   .     A
C452   C1026   1.426   1_554 S
C453   C464    1.403   .     A
C453   C1030   1.388   1_554 S
C454   C455    1.386   .     A
C454   H474    1.078   .     S
C454   C1029   1.388   .     S
C455   H479    1.078   .     S
C456   C465    1.399   .     A
C456   H476    1.077   .     S
C457   C465    1.397   .     A
C457   C464    1.390   .     A
C457   H471    1.083   .     S
C458   C460    1.476   .     S
C458   C466    1.403   .     A
C459   C77     1.326   1_565 S
C459   H96     1.088   1_565 S
C460   O486    1.307   .     A
C460   O485    1.301   .     A
C461   C462    1.427   .     S
C462   O487    1.290   .     A
C462   O488    1.296   .     A
C463   O490    1.303   .     A
C463   O489    1.298   .     A
C463   C465    1.458   .     S
C464   H475    1.084   .     S
C466   C467    1.394   .     A
C466   H477    1.084   .     S
C467   C468    1.403   .     A
C468   H1054   1.077   .     S
Cu469  O483    1.956   .     S
Cu469  O487    1.949   .     S
Cu469  Cu470   2.702   .     S
Cu469  O489    1.939   .     S
Cu469  O485    1.951   .     S
Cu469  N482    2.030   .     S
Cu470  O490    1.951   .     S
Cu470  O484    1.949   .     S
Cu470  O488    1.956   .     S
Cu470  O486    1.939   .     S
Cu470  N481    2.030   .     S
H472   C77     1.087   1_565 S
H473   N546    1.029   .     S
H478   C1044   1.077   1_554 S
N481   N546    1.286   .     S
N481   O555    1.348   .     S
C492   H494    1.096   .     S
C492   H493    1.114   .     S
C492   O555    1.403   .     S
C492   C559    1.536   .     S
C495   C498    1.527   .     S
C495   H496    1.107   .     S
H497   C559    1.110   .     S
C498   H500    1.111   .     S
C498   H501    1.106   .     S
C498   H499    1.111   .     S
O502   C531    1.384   .     S
O502   C1079   1.417   .     S
C503   H504    1.111   .     S
C503   H505    1.116   .     S
C503   C506    1.529   .     S
C503   O1078   1.417   1_554 S
C506   H508    1.111   .     S
C506   C509    1.525   .     S
H507   C122    1.110   1_565 S
C509   H512    1.110   .     S
C509   H510    1.110   .     S
H511   C125    1.111   1_565 S
C513   C523    1.427   .     S
C513   O547    1.297   .     A
C513   O548    1.288   .     A
C514   C515    1.417   .     A
C514   C532    1.416   .     A
C514   C1092   1.426   .     S
C515   C522    1.412   .     A
C515   C519    1.403   .     A
C516   C520    1.401   .     A
C516   C517    1.419   .     A
C516   C1090   1.426   1_554 S
C517   C528    1.403   .     A
C517   C1094   1.388   1_554 S
C518   C519    1.386   .     A
C518   H538    1.078   .     S
C518   C1093   1.388   .     S
C519   H543    1.078   .     S
C520   C529    1.399   .     A
C520   H540    1.077   .     S
C521   C529    1.397   .     A
C521   C528    1.390   .     A
C521   H535    1.083   .     S
C522   C524    1.476   .     S
C522   C530    1.403   .     A
C523   C141    1.326   1_565 S
C523   H160    1.088   1_565 S
C524   O550    1.307   .     A
C524   O549    1.301   .     A
C525   C526    1.427   .     S
C526   O551    1.290   .     A
C526   O552    1.296   .     A
C527   O554    1.303   .     A
C527   O553    1.298   .     A
C527   C529    1.458   .     S
C528   H539    1.084   .     S
C530   C531    1.394   .     A
C530   H541    1.084   .     S
C531   C532    1.403   .     A
C532   H1118   1.077   .     S
Cu533  O547    1.956   .     S
Cu533  O551    1.949   .     S
Cu533  Cu534   2.702   .     S
Cu533  O553    1.939   .     S
Cu533  O549    1.951   .     S
Cu533  N546    2.030   .     S
Cu534  O554    1.951   .     S
Cu534  O548    1.949   .     S
Cu534  O552    1.956   .     S
Cu534  O550    1.939   .     S
Cu534  N545    2.030   .     S
H536   C141    1.087   1_565 S
H537   N418    1.029   1_655 S
H542   C1108   1.077   1_554 S
N545   N418    1.286   1_655 S
N545   O427    1.348   1_655 S
C556   H558    1.096   .     S
C556   H557    1.114   .     S
C556   O427    1.403   1_655 S
C556   C431    1.536   1_655 S
C559   C562    1.527   .     S
C559   H560    1.107   .     S
H561   C431    1.110   1_655 S
C562   H564    1.111   .     S
C562   H565    1.106   .     S
C562   H563    1.111   .     S
O566   C403    1.384   1_655 S
O566   C1143   1.417   .     S
C567   H568    1.111   .     S
C567   H569    1.116   .     S
C567   C570    1.529   .     S
C567   O1142   1.417   1_554 S
C570   H572    1.111   .     S
C570   C573    1.525   .     S
H571   C186    1.110   1_565 S
C573   H576    1.110   .     S
C573   H574    1.110   .     S
H575   C189    1.111   1_565 S
C577   C587    1.427   .     S
C577   O611    1.297   .     A
C577   O612    1.288   .     A
C578   C579    1.417   .     A
C578   C596    1.416   .     A
C578   C4      1.426   1_556 S
C579   C586    1.412   .     A
C579   C583    1.403   .     A
C580   C584    1.401   .     A
C580   C581    1.419   .     A
C581   C592    1.403   .     A
C582   C583    1.386   .     A
C582   H602    1.078   .     S
C582   C5      1.388   1_556 S
C583   H607    1.078   .     S
C584   C593    1.399   .     A
C584   H604    1.077   .     S
C585   C593    1.397   .     A
C585   C592    1.390   .     A
C585   H599    1.083   .     S
C586   C588    1.476   .     S
C586   C594    1.403   .     A
C587   C781    1.326   .     S
C587   H800    1.088   .     S
C588   O614    1.307   .     A
C588   O613    1.301   .     A
C589   C590    1.427   .     S
C589   C971    1.326   1_545 S
C589   H984    1.087   1_545 S
C590   O615    1.290   .     A
C590   O616    1.296   .     A
C591   O618    1.303   .     A
C591   O617    1.298   .     A
C591   C593    1.458   .     S
C592   H603    1.084   .     S
C594   C595    1.394   .     A
C594   H605    1.084   .     S
C595   C596    1.403   .     A
C595   O758    1.384   1_455 S
C596   H30     1.077   1_556 S
Cu597  O611    1.956   .     S
Cu597  O615    1.949   .     S
Cu597  Cu598   2.702   .     S
Cu597  O617    1.939   .     S
Cu597  O613    1.951   .     S
Cu597  N610    2.030   .     S
Cu598  O618    1.951   .     S
Cu598  O612    1.949   .     S
Cu598  O616    1.956   .     S
Cu598  O614    1.939   .     S
Cu598  N609    2.030   .     S
H600   C781    1.087   .     S
H601   N674    1.029   .     S
H608   C971    1.088   1_545 S
N609   N674    1.286   .     S
N609   O683    1.348   .     S
N610   N737    1.286   1_455 S
N610   H729    1.029   1_455 S
O619   N737    1.348   1_455 S
O619   C748    1.403   1_455 S
C620   H622    1.096   .     S
C620   H621    1.114   .     S
C620   O683    1.403   .     S
C620   C687    1.536   .     S
C623   C626    1.527   .     S
C623   H624    1.107   .     S
C623   C748    1.536   1_455 S
C623   H753    1.110   1_455 S
H625   C687    1.110   .     S
C626   H628    1.111   .     S
C626   H629    1.106   .     S
C626   H627    1.111   .     S
O630   C659    1.384   .     S
O630   C55     1.417   1_556 S
C631   H632    1.111   .     S
C631   H633    1.116   .     S
C631   C634    1.529   .     S
C634   H636    1.111   .     S
C634   C637    1.525   .     S
C634   H1019   1.110   1_545 S
H635   C826    1.110   .     S
C637   H640    1.110   .     S
C637   H638    1.110   .     S
C637   H1023   1.111   1_545 S
H639   C829    1.111   .     S
C641   C651    1.427   .     S
C641   O675    1.297   .     A
C641   O676    1.288   .     A
C642   C643    1.417   .     A
C642   C660    1.416   .     A
C642   C68     1.426   1_556 S
C643   C650    1.412   .     A
C643   C647    1.403   .     A
C644   C648    1.401   .     A
C644   C645    1.419   .     A
C645   C656    1.403   .     A
C646   C647    1.386   .     A
C646   H666    1.078   .     S
C646   C69     1.388   1_556 S
C647   H671    1.078   .     S
C648   C657    1.399   .     A
C648   H668    1.077   .     S
C649   C657    1.397   .     A
C649   C656    1.390   .     A
C649   H663    1.083   .     S
C650   C652    1.476   .     S
C650   C658    1.403   .     A
C651   C845    1.326   .     S
C651   H864    1.088   .     S
C652   O678    1.307   .     A
C652   O677    1.301   .     A
C653   C654    1.427   .     S
C653   C1035   1.326   1_545 S
C653   H1048   1.087   1_545 S
C654   O679    1.290   .     A
C654   O680    1.296   .     A
C655   O682    1.303   .     A
C655   O681    1.298   .     A
C655   C657    1.458   .     S
C656   H667    1.084   .     S
C658   C659    1.394   .     A
C658   H669    1.084   .     S
C659   C660    1.403   .     A
C660   H94     1.077   1_556 S
Cu661  O675    1.956   .     S
Cu661  O679    1.949   .     S
Cu661  Cu662   2.702   .     S
Cu661  O681    1.939   .     S
Cu661  O677    1.951   .     S
Cu661  N674    2.030   .     S
Cu662  O682    1.951   .     S
Cu662  O676    1.949   .     S
Cu662  O680    1.956   .     S
Cu662  O678    1.939   .     S
Cu662  N673    2.030   .     S
H664   C845    1.087   .     S
H665   N738    1.029   .     S
H672   C1035   1.088   1_545 S
N673   N738    1.286   .     S
N673   O747    1.348   .     S
C684   H686    1.096   .     S
C684   H685    1.114   .     S
C684   O747    1.403   .     S
C684   C751    1.536   .     S
C687   C690    1.527   .     S
C687   H688    1.107   .     S
H689   C751    1.110   .     S
C690   H692    1.111   .     S
C690   H693    1.106   .     S
C690   H691    1.111   .     S
O694   C723    1.384   .     S
O694   C119    1.417   1_556 S
C695   H696    1.111   .     S
C695   H697    1.116   .     S
C695   C698    1.529   .     S
C698   H700    1.111   .     S
C698   C701    1.525   .     S
C698   H1083   1.110   1_545 S
H699   C890    1.110   .     S
C701   H704    1.110   .     S
C701   H702    1.110   .     S
C701   H1087   1.111   1_545 S
H703   C893    1.111   .     S
C705   C715    1.427   .     S
C705   O739    1.297   .     A
C705   O740    1.288   .     A
C706   C707    1.417   .     A
C706   C724    1.416   .     A
C706   C132    1.426   1_556 S
C707   C714    1.412   .     A
C707   C711    1.403   .     A
C708   C712    1.401   .     A
C708   C709    1.419   .     A
C709   C720    1.403   .     A
C710   C711    1.386   .     A
C710   H730    1.078   .     S
C710   C133    1.388   1_556 S
C711   H735    1.078   .     S
C712   C721    1.399   .     A
C712   H732    1.077   .     S
C713   C721    1.397   .     A
C713   C720    1.390   .     A
C713   H727    1.083   .     S
C714   C716    1.476   .     S
C714   C722    1.403   .     A
C715   C909    1.326   .     S
C715   H928    1.088   .     S
C716   O742    1.307   .     A
C716   O741    1.301   .     A
C717   C718    1.427   .     S
C717   C1099   1.326   1_545 S
C717   H1112   1.087   1_545 S
C718   O743    1.290   .     A
C718   O744    1.296   .     A
C719   O746    1.303   .     A
C719   O745    1.298   .     A
C719   C721    1.458   .     S
C720   H731    1.084   .     S
C722   C723    1.394   .     A
C722   H733    1.084   .     S
C723   C724    1.403   .     A
C724   H158    1.077   1_556 S
Cu725  O739    1.956   .     S
Cu725  O743    1.949   .     S
Cu725  Cu726   2.702   .     S
Cu725  O745    1.939   .     S
Cu725  O741    1.951   .     S
Cu725  N738    2.030   .     S
Cu726  O746    1.951   .     S
Cu726  O740    1.949   .     S
Cu726  O744    1.956   .     S
Cu726  O742    1.939   .     S
Cu726  N737    2.030   .     S
H728   C909    1.087   .     S
H729   N610    1.029   1_655 S
H736   C1099   1.088   1_545 S
N737   N610    1.286   1_655 S
N737   O619    1.348   1_655 S
C748   H750    1.096   .     S
C748   H749    1.114   .     S
C748   O619    1.403   1_655 S
C748   C623    1.536   1_655 S
C751   C754    1.527   .     S
C751   H752    1.107   .     S
H753   C623    1.110   1_655 S
C754   H756    1.111   .     S
C754   H757    1.106   .     S
C754   H755    1.111   .     S
O758   C595    1.384   1_655 S
O758   C183    1.417   1_556 S
C759   H760    1.111   .     S
C759   H761    1.116   .     S
C759   C762    1.529   .     S
C762   H764    1.111   .     S
C762   C765    1.525   .     S
C762   H1147   1.110   1_545 S
H763   C954    1.110   .     S
C765   H768    1.110   .     S
C765   H766    1.110   .     S
C765   H1151   1.111   1_545 S
H767   C957    1.111   .     S
C769   C779    1.427   .     S
C769   O803    1.297   .     A
C769   O804    1.288   .     A
C770   C771    1.417   .     A
C770   C788    1.416   .     A
C770   C196    1.426   1_556 S
C771   C778    1.412   .     A
C771   C775    1.403   .     A
C772   C776    1.401   .     A
C772   C773    1.419   .     A
C773   C784    1.403   .     A
C774   C775    1.386   .     A
C774   H794    1.078   .     S
C774   C197    1.388   1_556 S
C775   H799    1.078   .     S
C776   C785    1.399   .     A
C776   H796    1.077   .     S
C777   C785    1.397   .     A
C777   C784    1.390   .     A
C777   H791    1.083   .     S
C778   C780    1.476   .     S
C778   C786    1.403   .     A
C779   C973    1.326   .     S
C779   H992    1.088   .     S
C780   O806    1.307   .     A
C780   O805    1.301   .     A
C781   C782    1.427   .     S
C782   O807    1.290   .     A
C782   O808    1.296   .     A
C783   O810    1.303   .     A
C783   O809    1.298   .     A
C783   C785    1.458   .     S
C784   H795    1.084   .     S
C786   C787    1.394   .     A
C786   H797    1.084   .     S
C787   C788    1.403   .     A
C787   O950    1.384   1_455 S
C788   H222    1.077   1_556 S
Cu789  O803    1.956   .     S
Cu789  O807    1.949   .     S
Cu789  Cu790   2.702   .     S
Cu789  O809    1.939   .     S
Cu789  O805    1.951   .     S
Cu789  N802    2.030   .     S
Cu790  O810    1.951   .     S
Cu790  O804    1.949   .     S
Cu790  O808    1.956   .     S
Cu790  O806    1.939   .     S
Cu790  N801    2.030   .     S
H792   C973    1.087   .     S
H793   N866    1.029   .     S
N801   N866    1.286   .     S
N801   O875    1.348   .     S
N802   N929    1.286   1_455 S
N802   H921    1.029   1_455 S
O811   N929    1.348   1_455 S
O811   C940    1.403   1_455 S
C812   H814    1.096   .     S
C812   H813    1.114   .     S
C812   O875    1.403   .     S
C812   C879    1.536   .     S
C815   C818    1.527   .     S
C815   H816    1.107   .     S
C815   C940    1.536   1_455 S
C815   H945    1.110   1_455 S
H817   C879    1.110   .     S
C818   H820    1.111   .     S
C818   H821    1.106   .     S
C818   H819    1.111   .     S
O822   C851    1.384   .     S
O822   C247    1.417   1_556 S
C823   H824    1.111   .     S
C823   H825    1.116   .     S
C823   C826    1.529   .     S
C826   H828    1.111   .     S
C826   C829    1.525   .     S
H827   C1018   1.110   .     S
C829   H832    1.110   .     S
C829   H830    1.110   .     S
H831   C1021   1.111   .     S
C833   C843    1.427   .     S
C833   O867    1.297   .     A
C833   O868    1.288   .     A
C834   C835    1.417   .     A
C834   C852    1.416   .     A
C834   C260    1.426   1_556 S
C835   C842    1.412   .     A
C835   C839    1.403   .     A
C836   C840    1.401   .     A
C836   C837    1.419   .     A
C837   C848    1.403   .     A
C838   C839    1.386   .     A
C838   H858    1.078   .     S
C838   C261    1.388   1_556 S
C839   H863    1.078   .     S
C840   C849    1.399   .     A
C840   H860    1.077   .     S
C841   C849    1.397   .     A
C841   C848    1.390   .     A
C841   H855    1.083   .     S
C842   C844    1.476   .     S
C842   C850    1.403   .     A
C843   C1037   1.326   .     S
C843   H1056   1.088   .     S
C844   O870    1.307   .     A
C844   O869    1.301   .     A
C845   C846    1.427   .     S
C846   O871    1.290   .     A
C846   O872    1.296   .     A
C847   O874    1.303   .     A
C847   O873    1.298   .     A
C847   C849    1.458   .     S
C848   H859    1.084   .     S
C850   C851    1.394   .     A
C850   H861    1.084   .     S
C851   C852    1.403   .     A
C852   H286    1.077   1_556 S
Cu853  O867    1.956   .     S
Cu853  O871    1.949   .     S
Cu853  Cu854   2.702   .     S
Cu853  O873    1.939   .     S
Cu853  O869    1.951   .     S
Cu853  N866    2.030   .     S
Cu854  O874    1.951   .     S
Cu854  O868    1.949   .     S
Cu854  O872    1.956   .     S
Cu854  O870    1.939   .     S
Cu854  N865    2.030   .     S
H856   C1037   1.087   .     S
H857   N930    1.029   .     S
N865   N930    1.286   .     S
N865   O939    1.348   .     S
C876   H878    1.096   .     S
C876   H877    1.114   .     S
C876   O939    1.403   .     S
C876   C943    1.536   .     S
C879   C882    1.527   .     S
C879   H880    1.107   .     S
H881   C943    1.110   .     S
C882   H884    1.111   .     S
C882   H885    1.106   .     S
C882   H883    1.111   .     S
O886   C915    1.384   .     S
O886   C311    1.417   1_556 S
C887   H888    1.111   .     S
C887   H889    1.116   .     S
C887   C890    1.529   .     S
C890   H892    1.111   .     S
C890   C893    1.525   .     S
H891   C1082   1.110   .     S
C893   H896    1.110   .     S
C893   H894    1.110   .     S
H895   C1085   1.111   .     S
C897   C907    1.427   .     S
C897   O931    1.297   .     A
C897   O932    1.288   .     A
C898   C899    1.417   .     A
C898   C916    1.416   .     A
C898   C324    1.426   1_556 S
C899   C906    1.412   .     A
C899   C903    1.403   .     A
C900   C904    1.401   .     A
C900   C901    1.419   .     A
C901   C912    1.403   .     A
C902   C903    1.386   .     A
C902   H922    1.078   .     S
C902   C325    1.388   1_556 S
C903   H927    1.078   .     S
C904   C913    1.399   .     A
C904   H924    1.077   .     S
C905   C913    1.397   .     A
C905   C912    1.390   .     A
C905   H919    1.083   .     S
C906   C908    1.476   .     S
C906   C914    1.403   .     A
C907   C1101   1.326   .     S
C907   H1120   1.088   .     S
C908   O934    1.307   .     A
C908   O933    1.301   .     A
C909   C910    1.427   .     S
C910   O935    1.290   .     A
C910   O936    1.296   .     A
C911   O938    1.303   .     A
C911   O937    1.298   .     A
C911   C913    1.458   .     S
C912   H923    1.084   .     S
C914   C915    1.394   .     A
C914   H925    1.084   .     S
C915   C916    1.403   .     A
C916   H350    1.077   1_556 S
Cu917  O931    1.956   .     S
Cu917  O935    1.949   .     S
Cu917  Cu918   2.702   .     S
Cu917  O937    1.939   .     S
Cu917  O933    1.951   .     S
Cu917  N930    2.030   .     S
Cu918  O938    1.951   .     S
Cu918  O932    1.949   .     S
Cu918  O936    1.956   .     S
Cu918  O934    1.939   .     S
Cu918  N929    2.030   .     S
H920   C1101   1.087   .     S
H921   N802    1.029   1_655 S
N929   N802    1.286   1_655 S
N929   O811    1.348   1_655 S
C940   H942    1.096   .     S
C940   H941    1.114   .     S
C940   O811    1.403   1_655 S
C940   C815    1.536   1_655 S
C943   C946    1.527   .     S
C943   H944    1.107   .     S
H945   C815    1.110   1_655 S
C946   H948    1.111   .     S
C946   H949    1.106   .     S
C946   H947    1.111   .     S
O950   C787    1.384   1_655 S
O950   C375    1.417   1_556 S
C951   H952    1.111   .     S
C951   H953    1.116   .     S
C951   C954    1.529   .     S
C954   H956    1.111   .     S
C954   C957    1.525   .     S
H955   C1146   1.110   .     S
C957   H960    1.110   .     S
C957   H958    1.110   .     S
H959   C1149   1.111   .     S
C961   C971    1.427   .     S
C961   O995    1.297   .     A
C961   O996    1.288   .     A
C962   C963    1.417   .     A
C962   C980    1.416   .     A
C962   C388    1.426   1_556 S
C963   C970    1.412   .     A
C963   C967    1.403   .     A
C964   C968    1.401   .     A
C964   C965    1.419   .     A
C965   C976    1.403   .     A
C966   C967    1.386   .     A
C966   H986    1.078   .     S
C966   C389    1.388   1_556 S
C967   H991    1.078   .     S
C968   C977    1.399   .     A
C968   H988    1.077   .     S
C969   C977    1.397   .     A
C969   C976    1.390   .     A
C969   H983    1.083   .     S
C970   C972    1.476   .     S
C970   C978    1.403   .     A
C971   C589    1.326   1_565 S
C971   H608    1.088   1_565 S
C972   O998    1.307   .     A
C972   O997    1.301   .     A
C973   C974    1.427   .     S
C974   O999    1.290   .     A
C974   O1000   1.296   .     A
C975   O1002   1.303   .     A
C975   O1001   1.298   .     A
C975   C977    1.458   .     S
C976   H987    1.084   .     S
C978   C979    1.394   .     A
C978   H989    1.084   .     S
C979   C980    1.403   .     A
C979   O1142   1.384   1_455 S
C980   H414    1.077   1_556 S
Cu981  O995    1.956   .     S
Cu981  O999    1.949   .     S
Cu981  Cu982   2.702   .     S
Cu981  O1001   1.939   .     S
Cu981  O997    1.951   .     S
Cu981  N994    2.030   .     S
Cu982  O1002   1.951   .     S
Cu982  O996    1.949   .     S
Cu982  O1000   1.956   .     S
Cu982  O998    1.939   .     S
Cu982  N993    2.030   .     S
H984   C589    1.087   1_565 S
H985   N1058   1.029   .     S
N993   N1058   1.286   .     S
N993   O1067   1.348   .     S
N994   N1121   1.286   1_455 S
N994   H1113   1.029   1_455 S
O1003  N1121   1.348   1_455 S
O1003  C1132   1.403   1_455 S
C1004  H1006   1.096   .     S
C1004  H1005   1.114   .     S
C1004  O1067   1.403   .     S
C1004  C1071   1.536   .     S
C1007  C1010   1.527   .     S
C1007  H1008   1.107   .     S
C1007  C1132   1.536   1_455 S
C1007  H1137   1.110   1_455 S
H1009  C1071   1.110   .     S
C1010  H1012   1.111   .     S
C1010  H1013   1.106   .     S
C1010  H1011   1.111   .     S
O1014  C1043   1.384   .     S
O1014  C439    1.417   1_556 S
C1015  H1016   1.111   .     S
C1015  H1017   1.116   .     S
C1015  C1018   1.529   .     S
C1018  H1020   1.111   .     S
C1018  C1021   1.525   .     S
H1019  C634    1.110   1_565 S
C1021  H1024   1.110   .     S
C1021  H1022   1.110   .     S
H1023  C637    1.111   1_565 S
C1025  C1035   1.427   .     S
C1025  O1059   1.297   .     A
C1025  O1060   1.288   .     A
C1026  C1027   1.417   .     A
C1026  C1044   1.416   .     A
C1026  C452    1.426   1_556 S
C1027  C1034   1.412   .     A
C1027  C1031   1.403   .     A
C1028  C1032   1.401   .     A
C1028  C1029   1.419   .     A
C1029  C1040   1.403   .     A
C1030  C1031   1.386   .     A
C1030  H1050   1.078   .     S
C1030  C453    1.388   1_556 S
C1031  H1055   1.078   .     S
C1032  C1041   1.399   .     A
C1032  H1052   1.077   .     S
C1033  C1041   1.397   .     A
C1033  C1040   1.390   .     A
C1033  H1047   1.083   .     S
C1034  C1036   1.476   .     S
C1034  C1042   1.403   .     A
C1035  C653    1.326   1_565 S
C1035  H672    1.088   1_565 S
C1036  O1062   1.307   .     A
C1036  O1061   1.301   .     A
C1037  C1038   1.427   .     S
C1038  O1063   1.290   .     A
C1038  O1064   1.296   .     A
C1039  O1066   1.303   .     A
C1039  O1065   1.298   .     A
C1039  C1041   1.458   .     S
C1040  H1051   1.084   .     S
C1042  C1043   1.394   .     A
C1042  H1053   1.084   .     S
C1043  C1044   1.403   .     A
C1044  H478    1.077   1_556 S
Cu1045 O1059   1.956   .     S
Cu1045 O1063   1.949   .     S
Cu1045 Cu1046  2.702   .     S
Cu1045 O1065   1.939   .     S
Cu1045 O1061   1.951   .     S
Cu1045 N1058   2.030   .     S
Cu1046 O1066   1.951   .     S
Cu1046 O1060   1.949   .     S
Cu1046 O1064   1.956   .     S
Cu1046 O1062   1.939   .     S
Cu1046 N1057   2.030   .     S
H1048  C653    1.087   1_565 S
H1049  N1122   1.029   .     S
N1057  N1122   1.286   .     S
N1057  O1131   1.348   .     S
C1068  H1070   1.096   .     S
C1068  H1069   1.114   .     S
C1068  O1131   1.403   .     S
C1068  C1135   1.536   .     S
C1071  C1074   1.527   .     S
C1071  H1072   1.107   .     S
H1073  C1135   1.110   .     S
C1074  H1076   1.111   .     S
C1074  H1077   1.106   .     S
C1074  H1075   1.111   .     S
O1078  C1107   1.384   .     S
O1078  C503    1.417   1_556 S
C1079  H1080   1.111   .     S
C1079  H1081   1.116   .     S
C1079  C1082   1.529   .     S
C1082  H1084   1.111   .     S
C1082  C1085   1.525   .     S
H1083  C698    1.110   1_565 S
C1085  H1088   1.110   .     S
C1085  H1086   1.110   .     S
H1087  C701    1.111   1_565 S
C1089  C1099   1.427   .     S
C1089  O1123   1.297   .     A
C1089  O1124   1.288   .     A
C1090  C1091   1.417   .     A
C1090  C1108   1.416   .     A
C1090  C516    1.426   1_556 S
C1091  C1098   1.412   .     A
C1091  C1095   1.403   .     A
C1092  C1096   1.401   .     A
C1092  C1093   1.419   .     A
C1093  C1104   1.403   .     A
C1094  C1095   1.386   .     A
C1094  H1114   1.078   .     S
C1094  C517    1.388   1_556 S
C1095  H1119   1.078   .     S
C1096  C1105   1.399   .     A
C1096  H1116   1.077   .     S
C1097  C1105   1.397   .     A
C1097  C1104   1.390   .     A
C1097  H1111   1.083   .     S
C1098  C1100   1.476   .     S
C1098  C1106   1.403   .     A
C1099  C717    1.326   1_565 S
C1099  H736    1.088   1_565 S
C1100  O1126   1.307   .     A
C1100  O1125   1.301   .     A
C1101  C1102   1.427   .     S
C1102  O1127   1.290   .     A
C1102  O1128   1.296   .     A
C1103  O1130   1.303   .     A
C1103  O1129   1.298   .     A
C1103  C1105   1.458   .     S
C1104  H1115   1.084   .     S
C1106  C1107   1.394   .     A
C1106  H1117   1.084   .     S
C1107  C1108   1.403   .     A
C1108  H542    1.077   1_556 S
Cu1109 O1123   1.956   .     S
Cu1109 O1127   1.949   .     S
Cu1109 Cu1110  2.702   .     S
Cu1109 O1129   1.939   .     S
Cu1109 O1125   1.951   .     S
Cu1109 N1122   2.030   .     S
Cu1110 O1130   1.951   .     S
Cu1110 O1124   1.949   .     S
Cu1110 O1128   1.956   .     S
Cu1110 O1126   1.939   .     S
Cu1110 N1121   2.030   .     S
H1112  C717    1.087   1_565 S
H1113  N994    1.029   1_655 S
N1121  N994    1.286   1_655 S
N1121  O1003   1.348   1_655 S
C1132  H1134   1.096   .     S
C1132  H1133   1.114   .     S
C1132  O1003   1.403   1_655 S
C1132  C1007   1.536   1_655 S
C1135  C1138   1.527   .     S
C1135  H1136   1.107   .     S
H1137  C1007   1.110   1_655 S
C1138  H1140   1.111   .     S
C1138  H1141   1.106   .     S
C1138  H1139   1.111   .     S
O1142  C979    1.384   1_655 S
O1142  C567    1.417   1_556 S
C1143  H1144   1.111   .     S
C1143  H1145   1.116   .     S
C1143  C1146   1.529   .     S
C1146  H1148   1.111   .     S
C1146  C1149   1.525   .     S
H1147  C762    1.110   1_565 S
C1149  H1152   1.110   .     S
C1149  H1150   1.110   .     S
H1151  C765    1.111   1_565 S
