data_str_m2_o1_o16_pcu_sym.18
_audit_creation_date              2020-01-03
_audit_creation_method            'Materials Studio'
_symmetry_space_group_name_H-M    'P1'
_symmetry_Int_Tables_number       1
_symmetry_cell_setting            triclinic
loop_
_symmetry_equiv_pos_as_xyz
  x,y,z
_cell_length_a                    28.7820
_cell_length_b                    32.2761
_cell_length_c                    26.9057
_cell_angle_alpha                 91.3774
_cell_angle_beta                  73.4751
_cell_angle_gamma                 91.5365
loop_
_atom_site_label
_atom_site_type_symbol
_atom_site_fract_x
_atom_site_fract_y
_atom_site_fract_z
_atom_site_U_iso_or_equiv
_atom_site_adp_type
_atom_site_occupancy
C1     C     0.16665   0.24583   0.25203   0.00000  Uiso   1.00
C2     C     0.12840   0.18423   0.40593   0.00000  Uiso   1.00
C3     C     0.18197   0.31393   0.29156   0.00000  Uiso   1.00
C4     C     0.14138   0.17193   0.34964   0.00000  Uiso   1.00
C5     C     0.18162   0.02374   0.28958   0.00000  Uiso   1.00
C6     C     0.16510   0.04295   0.25201   0.00000  Uiso   1.00
C7     C     0.14896   0.01962   0.21574   0.00000  Uiso   1.00
C8     C     0.15009   0.31020   0.21633   0.00000  Uiso   1.00
C9     C     0.16701   0.29055   0.25343   0.00000  Uiso   1.00
C10    C     0.30360   0.19816   0.27319   0.00000  Uiso   1.00
C11    C     0.01958   0.19811   0.27336   0.00000  Uiso   1.00
C12    C     0.15009   0.18929   0.48805   0.00000  Uiso   1.00
C13    C     0.02858   0.13470   0.22608   0.00000  Uiso   1.00
C14    C     0.31292   0.13610   0.22564   0.00000  Uiso   1.00
C15    C     0.16615   0.08750   0.25020   0.00000  Uiso   1.00
C16    C     0.19251   0.16553   0.15016   0.00000  Uiso   1.00
C17    C     0.26758   0.16059   0.00994   0.00000  Uiso   1.00
C18    C     0.20726   0.16529   0.09326   0.00000  Uiso   1.00
C19    C     0.07978   0.19323   0.43349   0.00000  Uiso   1.00
C20    C     0.06777   0.20405   0.48656   0.00000  Uiso   1.00
C21    C     0.10170   0.19929   0.01378   0.00000  Uiso   1.00
C22    C     0.05297   0.09482   0.20147   0.00000  Uiso   1.00
C23    C     0.16448   0.18790   0.43315   0.00000  Uiso   1.00
C24    C     0.08891   0.10012   0.14780   0.00000  Uiso   1.00
C25    C     0.19532   0.29471   0.33638   0.00000  Uiso   1.00
C26    C     0.15345   0.29734   0.38605   0.00000  Uiso   1.00
C27    C     0.18514   0.18101   0.01466   0.00000  Uiso   1.00
C28    C     0.23389   0.17434   0.48586   0.00000  Uiso   1.00
C29    C     0.24865   0.18216   0.43322   0.00000  Uiso   1.00
C30    C     0.21468   0.19098   0.40790   0.00000  Uiso   1.00
C31    C     0.17318   0.17768   0.06863   0.00000  Uiso   1.00
C32    C     0.25438   0.15445   0.06311   0.00000  Uiso   1.00
Cu33   Cu    0.11978   0.16666   0.25000   0.00000  Uiso   1.00
Cu34   Cu    0.21355   0.16667   0.25000   0.00000  Uiso   1.00
H35    H     0.19325   0.04244   0.31807   0.00000  Uiso   1.00
H36    H     0.08935   0.20552   0.05491   0.00000  Uiso   1.00
H37    H     0.22911   0.20163   0.36904   0.00000  Uiso   1.00
H38    H     0.27097   0.11928   0.11226   0.00000  Uiso   1.00
H39    H     0.08308   0.12953   0.13013   0.00000  Uiso   1.00
H40    H     0.12660   0.09841   0.14990   0.00000  Uiso   1.00
H41    H     0.08410   0.07433   0.12147   0.00000  Uiso   1.00
H42    H     0.06601   0.07644   0.22836   0.00000  Uiso   1.00
H43    H     0.02517   0.07233   0.19502   0.00000  Uiso   1.00
H44    H     0.03875   0.16320   0.40071   0.00000  Uiso   1.00
H45    H     0.00472   0.22581   0.48910   0.00000  Uiso   1.00
H46    H     0.13682   0.03433   0.18614   0.00000  Uiso   1.00
H47    H     0.14425   0.33018   0.39680   0.00000  Uiso   1.00
H48    H     0.12102   0.28045   0.38072   0.00000  Uiso   1.00
H49    H     0.16397   0.28296   0.41825   0.00000  Uiso   1.00
H50    H     0.20495   0.26182   0.32907   0.00000  Uiso   1.00
H51    H     0.22778   0.31108   0.34250   0.00000  Uiso   1.00
H52    H     0.13819   0.29233   0.18740   0.00000  Uiso   1.00
H53    H     0.28136   0.22382   0.29138   0.00000  Uiso   1.00
H54    H     0.03361   0.22331   0.29247   0.00000  Uiso   1.00
H55    H     0.29721   0.11220   0.20616   0.00000  Uiso   1.00
H56    H     0.28651   0.18148   0.41136   0.00000  Uiso   1.00
H57    H     0.30403   0.15326   0.48711   0.00000  Uiso   1.00
H58    H     0.13737   0.18465   0.09248   0.00000  Uiso   1.00
N59    N     0.04931   0.16666   0.24999   0.00000  Uiso   1.00
N60    N     0.28402   0.16669   0.25000   0.00000  Uiso   1.00
O61    O     0.12708   0.22678   0.25001   0.00000  Uiso   1.00
O62    O     0.04385   0.19275   0.40911   0.00000  Uiso   1.00
O63    O     0.02256   0.21796   0.01383   0.00000  Uiso   1.00
O64    O     0.20627   0.22679   0.25001   0.00000  Uiso   1.00
O65    O     0.10775   0.16665   0.32549   0.00000  Uiso   1.00
O66    O     0.18694   0.16666   0.32549   0.00000  Uiso   1.00
O67    O     0.12706   0.10654   0.25000   0.00000  Uiso   1.00
O68    O     0.20625   0.10655   0.25000   0.00000  Uiso   1.00
O69    O     0.14640   0.16667   0.17451   0.00000  Uiso   1.00
O70    O     0.22559   0.16668   0.17451   0.00000  Uiso   1.00
O71    O     0.28827   0.13766   0.08365   0.00000  Uiso   1.00
C72    C     0.49998   0.24583   0.25203   0.00000  Uiso   1.00
C73    C     0.46174   0.18423   0.40593   0.00000  Uiso   1.00
C74    C     0.51530   0.31393   0.29156   0.00000  Uiso   1.00
C75    C     0.47472   0.17193   0.34964   0.00000  Uiso   1.00
C76    C     0.51496   0.02374   0.28958   0.00000  Uiso   1.00
C77    C     0.49843   0.04295   0.25201   0.00000  Uiso   1.00
C78    C     0.48229   0.01962   0.21574   0.00000  Uiso   1.00
C79    C     0.48342   0.31020   0.21633   0.00000  Uiso   1.00
C80    C     0.50035   0.29055   0.25343   0.00000  Uiso   1.00
C81    C     0.63694   0.19816   0.27319   0.00000  Uiso   1.00
C82    C     0.35291   0.19811   0.27336   0.00000  Uiso   1.00
C83    C     0.48343   0.18929   0.48805   0.00000  Uiso   1.00
C84    C     0.36191   0.13470   0.22608   0.00000  Uiso   1.00
C85    C     0.64626   0.13610   0.22564   0.00000  Uiso   1.00
C86    C     0.49948   0.08750   0.25020   0.00000  Uiso   1.00
C87    C     0.52584   0.16553   0.15016   0.00000  Uiso   1.00
C88    C     0.60091   0.16059   0.00994   0.00000  Uiso   1.00
C89    C     0.54059   0.16529   0.09326   0.00000  Uiso   1.00
C90    C     0.41311   0.19323   0.43349   0.00000  Uiso   1.00
C91    C     0.40111   0.20405   0.48656   0.00000  Uiso   1.00
C92    C     0.43504   0.19929   0.01378   0.00000  Uiso   1.00
C93    C     0.38630   0.09482   0.20147   0.00000  Uiso   1.00
C94    C     0.49782   0.18790   0.43315   0.00000  Uiso   1.00
C95    C     0.42224   0.10012   0.14780   0.00000  Uiso   1.00
C96    C     0.52866   0.29471   0.33638   0.00000  Uiso   1.00
C97    C     0.48679   0.29734   0.38605   0.00000  Uiso   1.00
C98    C     0.51847   0.18101   0.01466   0.00000  Uiso   1.00
C99    C     0.56722   0.17434   0.48586   0.00000  Uiso   1.00
C100   C     0.58198   0.18216   0.43322   0.00000  Uiso   1.00
C101   C     0.54801   0.19098   0.40790   0.00000  Uiso   1.00
C102   C     0.50651   0.17768   0.06863   0.00000  Uiso   1.00
C103   C     0.58772   0.15445   0.06311   0.00000  Uiso   1.00
Cu104  Cu    0.45311   0.16666   0.25000   0.00000  Uiso   1.00
Cu105  Cu    0.54689   0.16667   0.25000   0.00000  Uiso   1.00
H106   H     0.52659   0.04244   0.31807   0.00000  Uiso   1.00
H107   H     0.42269   0.20552   0.05491   0.00000  Uiso   1.00
H108   H     0.56244   0.20163   0.36904   0.00000  Uiso   1.00
H109   H     0.60430   0.11928   0.11226   0.00000  Uiso   1.00
H110   H     0.41641   0.12953   0.13013   0.00000  Uiso   1.00
H111   H     0.45994   0.09841   0.14990   0.00000  Uiso   1.00
H112   H     0.41744   0.07433   0.12147   0.00000  Uiso   1.00
H113   H     0.39934   0.07644   0.22836   0.00000  Uiso   1.00
H114   H     0.35850   0.07233   0.19502   0.00000  Uiso   1.00
H115   H     0.37208   0.16320   0.40071   0.00000  Uiso   1.00
H116   H     0.33805   0.22581   0.48910   0.00000  Uiso   1.00
H117   H     0.47015   0.03433   0.18614   0.00000  Uiso   1.00
H118   H     0.47758   0.33018   0.39680   0.00000  Uiso   1.00
H119   H     0.45435   0.28045   0.38072   0.00000  Uiso   1.00
H120   H     0.49730   0.28296   0.41825   0.00000  Uiso   1.00
H121   H     0.53828   0.26182   0.32907   0.00000  Uiso   1.00
H122   H     0.56111   0.31108   0.34250   0.00000  Uiso   1.00
H123   H     0.47152   0.29233   0.18740   0.00000  Uiso   1.00
H124   H     0.61469   0.22382   0.29138   0.00000  Uiso   1.00
H125   H     0.36694   0.22331   0.29247   0.00000  Uiso   1.00
H126   H     0.63055   0.11220   0.20616   0.00000  Uiso   1.00
H127   H     0.61984   0.18148   0.41136   0.00000  Uiso   1.00
H128   H     0.63736   0.15326   0.48711   0.00000  Uiso   1.00
H129   H     0.47071   0.18465   0.09248   0.00000  Uiso   1.00
N130   N     0.38265   0.16666   0.24999   0.00000  Uiso   1.00
N131   N     0.61735   0.16669   0.25000   0.00000  Uiso   1.00
O132   O     0.46042   0.22678   0.25001   0.00000  Uiso   1.00
O133   O     0.37718   0.19275   0.40911   0.00000  Uiso   1.00
O134   O     0.35590   0.21796   0.01383   0.00000  Uiso   1.00
O135   O     0.53961   0.22679   0.25001   0.00000  Uiso   1.00
O136   O     0.44108   0.16665   0.32549   0.00000  Uiso   1.00
O137   O     0.52027   0.16666   0.32549   0.00000  Uiso   1.00
O138   O     0.46039   0.10654   0.25000   0.00000  Uiso   1.00
O139   O     0.53958   0.10655   0.25000   0.00000  Uiso   1.00
O140   O     0.47973   0.16667   0.17451   0.00000  Uiso   1.00
O141   O     0.55892   0.16668   0.17451   0.00000  Uiso   1.00
O142   O     0.62161   0.13766   0.08365   0.00000  Uiso   1.00
C143   C     0.83331   0.24583   0.25203   0.00000  Uiso   1.00
C144   C     0.79507   0.18423   0.40593   0.00000  Uiso   1.00
C145   C     0.84863   0.31393   0.29156   0.00000  Uiso   1.00
C146   C     0.80805   0.17193   0.34964   0.00000  Uiso   1.00
C147   C     0.84829   0.02374   0.28958   0.00000  Uiso   1.00
C148   C     0.83177   0.04295   0.25201   0.00000  Uiso   1.00
C149   C     0.81563   0.01962   0.21574   0.00000  Uiso   1.00
C150   C     0.81675   0.31020   0.21633   0.00000  Uiso   1.00
C151   C     0.83368   0.29055   0.25343   0.00000  Uiso   1.00
C152   C     0.97027   0.19816   0.27319   0.00000  Uiso   1.00
C153   C     0.68624   0.19811   0.27336   0.00000  Uiso   1.00
C154   C     0.81676   0.18929   0.48805   0.00000  Uiso   1.00
C155   C     0.69524   0.13470   0.22608   0.00000  Uiso   1.00
C156   C     0.97959   0.13610   0.22564   0.00000  Uiso   1.00
C157   C     0.83281   0.08750   0.25020   0.00000  Uiso   1.00
C158   C     0.85918   0.16553   0.15016   0.00000  Uiso   1.00
C159   C     0.93425   0.16059   0.00994   0.00000  Uiso   1.00
C160   C     0.87393   0.16529   0.09326   0.00000  Uiso   1.00
C161   C     0.74644   0.19323   0.43349   0.00000  Uiso   1.00
C162   C     0.73444   0.20405   0.48656   0.00000  Uiso   1.00
C163   C     0.76837   0.19929   0.01378   0.00000  Uiso   1.00
C164   C     0.71963   0.09482   0.20147   0.00000  Uiso   1.00
C165   C     0.83115   0.18790   0.43315   0.00000  Uiso   1.00
C166   C     0.75557   0.10012   0.14780   0.00000  Uiso   1.00
C167   C     0.86199   0.29471   0.33638   0.00000  Uiso   1.00
C168   C     0.82012   0.29734   0.38605   0.00000  Uiso   1.00
C169   C     0.85181   0.18101   0.01466   0.00000  Uiso   1.00
C170   C     0.90055   0.17434   0.48586   0.00000  Uiso   1.00
C171   C     0.91531   0.18216   0.43322   0.00000  Uiso   1.00
C172   C     0.88135   0.19098   0.40790   0.00000  Uiso   1.00
C173   C     0.83985   0.17768   0.06863   0.00000  Uiso   1.00
C174   C     0.92105   0.15445   0.06311   0.00000  Uiso   1.00
Cu175  Cu    0.78645   0.16666   0.25000   0.00000  Uiso   1.00
Cu176  Cu    0.88022   0.16667   0.25000   0.00000  Uiso   1.00
H177   H     0.85992   0.04244   0.31807   0.00000  Uiso   1.00
H178   H     0.75602   0.20552   0.05491   0.00000  Uiso   1.00
H179   H     0.89578   0.20163   0.36904   0.00000  Uiso   1.00
H180   H     0.93764   0.11928   0.11226   0.00000  Uiso   1.00
H181   H     0.74974   0.12953   0.13013   0.00000  Uiso   1.00
H182   H     0.79327   0.09841   0.14990   0.00000  Uiso   1.00
H183   H     0.75077   0.07433   0.12147   0.00000  Uiso   1.00
H184   H     0.73268   0.07644   0.22836   0.00000  Uiso   1.00
H185   H     0.69183   0.07233   0.19502   0.00000  Uiso   1.00
H186   H     0.70542   0.16320   0.40071   0.00000  Uiso   1.00
H187   H     0.67138   0.22581   0.48910   0.00000  Uiso   1.00
H188   H     0.80349   0.03433   0.18614   0.00000  Uiso   1.00
H189   H     0.81092   0.33018   0.39680   0.00000  Uiso   1.00
H190   H     0.78769   0.28045   0.38072   0.00000  Uiso   1.00
H191   H     0.83064   0.28296   0.41825   0.00000  Uiso   1.00
H192   H     0.87161   0.26182   0.32907   0.00000  Uiso   1.00
H193   H     0.89444   0.31108   0.34250   0.00000  Uiso   1.00
H194   H     0.80486   0.29233   0.18740   0.00000  Uiso   1.00
H195   H     0.94803   0.22382   0.29138   0.00000  Uiso   1.00
H196   H     0.70027   0.22331   0.29247   0.00000  Uiso   1.00
H197   H     0.96388   0.11220   0.20616   0.00000  Uiso   1.00
H198   H     0.95318   0.18148   0.41136   0.00000  Uiso   1.00
H199   H     0.97070   0.15326   0.48711   0.00000  Uiso   1.00
H200   H     0.80404   0.18465   0.09248   0.00000  Uiso   1.00
N201   N     0.71598   0.16666   0.24999   0.00000  Uiso   1.00
N202   N     0.95069   0.16669   0.25000   0.00000  Uiso   1.00
O203   O     0.79375   0.22678   0.25001   0.00000  Uiso   1.00
O204   O     0.71051   0.19275   0.40911   0.00000  Uiso   1.00
O205   O     0.68923   0.21796   0.01383   0.00000  Uiso   1.00
O206   O     0.87294   0.22679   0.25001   0.00000  Uiso   1.00
O207   O     0.77441   0.16665   0.32549   0.00000  Uiso   1.00
O208   O     0.85360   0.16666   0.32549   0.00000  Uiso   1.00
O209   O     0.79373   0.10654   0.25000   0.00000  Uiso   1.00
O210   O     0.87292   0.10655   0.25000   0.00000  Uiso   1.00
O211   O     0.81306   0.16667   0.17451   0.00000  Uiso   1.00
O212   O     0.89225   0.16668   0.17451   0.00000  Uiso   1.00
O213   O     0.95494   0.13766   0.08365   0.00000  Uiso   1.00
C214   C     0.16665   0.57916   0.25203   0.00000  Uiso   1.00
C215   C     0.12840   0.51756   0.40593   0.00000  Uiso   1.00
C216   C     0.18197   0.64726   0.29156   0.00000  Uiso   1.00
C217   C     0.14138   0.50527   0.34964   0.00000  Uiso   1.00
C218   C     0.18162   0.35707   0.28958   0.00000  Uiso   1.00
C219   C     0.16510   0.37628   0.25201   0.00000  Uiso   1.00
C220   C     0.14896   0.35295   0.21574   0.00000  Uiso   1.00
C221   C     0.15009   0.64353   0.21633   0.00000  Uiso   1.00
C222   C     0.16701   0.62388   0.25343   0.00000  Uiso   1.00
C223   C     0.30360   0.53150   0.27319   0.00000  Uiso   1.00
C224   C     0.01958   0.53145   0.27336   0.00000  Uiso   1.00
C225   C     0.15009   0.52262   0.48805   0.00000  Uiso   1.00
C226   C     0.02858   0.46804   0.22608   0.00000  Uiso   1.00
C227   C     0.31292   0.46943   0.22564   0.00000  Uiso   1.00
C228   C     0.16615   0.42083   0.25020   0.00000  Uiso   1.00
C229   C     0.19251   0.49886   0.15016   0.00000  Uiso   1.00
C230   C     0.26758   0.49393   0.00994   0.00000  Uiso   1.00
C231   C     0.20726   0.49862   0.09326   0.00000  Uiso   1.00
C232   C     0.07978   0.52656   0.43349   0.00000  Uiso   1.00
C233   C     0.06777   0.53738   0.48656   0.00000  Uiso   1.00
C234   C     0.10170   0.53262   0.01378   0.00000  Uiso   1.00
C235   C     0.05297   0.42815   0.20147   0.00000  Uiso   1.00
C236   C     0.16448   0.52123   0.43315   0.00000  Uiso   1.00
C237   C     0.08891   0.43345   0.14780   0.00000  Uiso   1.00
C238   C     0.19532   0.62804   0.33638   0.00000  Uiso   1.00
C239   C     0.15345   0.63068   0.38605   0.00000  Uiso   1.00
C240   C     0.18514   0.51434   0.01466   0.00000  Uiso   1.00
C241   C     0.23389   0.50767   0.48586   0.00000  Uiso   1.00
C242   C     0.24865   0.51550   0.43322   0.00000  Uiso   1.00
C243   C     0.21468   0.52432   0.40790   0.00000  Uiso   1.00
C244   C     0.17318   0.51101   0.06863   0.00000  Uiso   1.00
C245   C     0.25438   0.48778   0.06311   0.00000  Uiso   1.00
Cu246  Cu    0.11978   0.49999   0.25000   0.00000  Uiso   1.00
Cu247  Cu    0.21355   0.50001   0.25000   0.00000  Uiso   1.00
H248   H     0.19325   0.37578   0.31807   0.00000  Uiso   1.00
H249   H     0.08935   0.53885   0.05491   0.00000  Uiso   1.00
H250   H     0.22911   0.53496   0.36904   0.00000  Uiso   1.00
H251   H     0.27097   0.45261   0.11226   0.00000  Uiso   1.00
H252   H     0.08308   0.46286   0.13013   0.00000  Uiso   1.00
H253   H     0.12660   0.43175   0.14990   0.00000  Uiso   1.00
H254   H     0.08410   0.40766   0.12147   0.00000  Uiso   1.00
H255   H     0.06601   0.40977   0.22836   0.00000  Uiso   1.00
H256   H     0.02517   0.40566   0.19502   0.00000  Uiso   1.00
H257   H     0.03875   0.49653   0.40071   0.00000  Uiso   1.00
H258   H     0.00472   0.55915   0.48910   0.00000  Uiso   1.00
H259   H     0.13682   0.36767   0.18614   0.00000  Uiso   1.00
H260   H     0.14425   0.66351   0.39680   0.00000  Uiso   1.00
H261   H     0.12102   0.61378   0.38072   0.00000  Uiso   1.00
H262   H     0.16397   0.61630   0.41825   0.00000  Uiso   1.00
H263   H     0.20495   0.59515   0.32907   0.00000  Uiso   1.00
H264   H     0.22778   0.64442   0.34250   0.00000  Uiso   1.00
H265   H     0.13819   0.62566   0.18740   0.00000  Uiso   1.00
H266   H     0.28136   0.55716   0.29138   0.00000  Uiso   1.00
H267   H     0.03361   0.55664   0.29247   0.00000  Uiso   1.00
H268   H     0.29721   0.44554   0.20616   0.00000  Uiso   1.00
H269   H     0.28651   0.51482   0.41136   0.00000  Uiso   1.00
H270   H     0.30403   0.48659   0.48711   0.00000  Uiso   1.00
H271   H     0.13737   0.51798   0.09248   0.00000  Uiso   1.00
N272   N     0.04931   0.49999   0.24999   0.00000  Uiso   1.00
N273   N     0.28402   0.50002   0.25000   0.00000  Uiso   1.00
O274   O     0.12708   0.56011   0.25001   0.00000  Uiso   1.00
O275   O     0.04385   0.52609   0.40911   0.00000  Uiso   1.00
O276   O     0.02256   0.55129   0.01383   0.00000  Uiso   1.00
O277   O     0.20627   0.56012   0.25001   0.00000  Uiso   1.00
O278   O     0.10775   0.49998   0.32549   0.00000  Uiso   1.00
O279   O     0.18694   0.49999   0.32549   0.00000  Uiso   1.00
O280   O     0.12706   0.43988   0.25000   0.00000  Uiso   1.00
O281   O     0.20625   0.43989   0.25000   0.00000  Uiso   1.00
O282   O     0.14640   0.50001   0.17451   0.00000  Uiso   1.00
O283   O     0.22559   0.50002   0.17451   0.00000  Uiso   1.00
O284   O     0.28827   0.47099   0.08365   0.00000  Uiso   1.00
C285   C     0.49998   0.57916   0.25203   0.00000  Uiso   1.00
C286   C     0.46174   0.51756   0.40593   0.00000  Uiso   1.00
C287   C     0.51530   0.64726   0.29156   0.00000  Uiso   1.00
C288   C     0.47472   0.50527   0.34964   0.00000  Uiso   1.00
C289   C     0.51496   0.35707   0.28958   0.00000  Uiso   1.00
C290   C     0.49843   0.37628   0.25201   0.00000  Uiso   1.00
C291   C     0.48229   0.35295   0.21574   0.00000  Uiso   1.00
C292   C     0.48342   0.64353   0.21633   0.00000  Uiso   1.00
C293   C     0.50035   0.62388   0.25343   0.00000  Uiso   1.00
C294   C     0.63694   0.53150   0.27319   0.00000  Uiso   1.00
C295   C     0.35291   0.53145   0.27336   0.00000  Uiso   1.00
C296   C     0.48343   0.52262   0.48805   0.00000  Uiso   1.00
C297   C     0.36191   0.46804   0.22608   0.00000  Uiso   1.00
C298   C     0.64626   0.46943   0.22564   0.00000  Uiso   1.00
C299   C     0.49948   0.42083   0.25020   0.00000  Uiso   1.00
C300   C     0.52584   0.49886   0.15016   0.00000  Uiso   1.00
C301   C     0.60091   0.49393   0.00994   0.00000  Uiso   1.00
C302   C     0.54059   0.49862   0.09326   0.00000  Uiso   1.00
C303   C     0.41311   0.52656   0.43349   0.00000  Uiso   1.00
C304   C     0.40111   0.53738   0.48656   0.00000  Uiso   1.00
C305   C     0.43504   0.53262   0.01378   0.00000  Uiso   1.00
C306   C     0.38630   0.42815   0.20147   0.00000  Uiso   1.00
C307   C     0.49782   0.52123   0.43315   0.00000  Uiso   1.00
C308   C     0.42224   0.43345   0.14780   0.00000  Uiso   1.00
C309   C     0.52866   0.62804   0.33638   0.00000  Uiso   1.00
C310   C     0.48679   0.63068   0.38605   0.00000  Uiso   1.00
C311   C     0.51847   0.51434   0.01466   0.00000  Uiso   1.00
C312   C     0.56722   0.50767   0.48586   0.00000  Uiso   1.00
C313   C     0.58198   0.51550   0.43322   0.00000  Uiso   1.00
C314   C     0.54801   0.52432   0.40790   0.00000  Uiso   1.00
C315   C     0.50651   0.51101   0.06863   0.00000  Uiso   1.00
C316   C     0.58772   0.48778   0.06311   0.00000  Uiso   1.00
Cu317  Cu    0.45311   0.49999   0.25000   0.00000  Uiso   1.00
Cu318  Cu    0.54689   0.50001   0.25000   0.00000  Uiso   1.00
H319   H     0.52659   0.37578   0.31807   0.00000  Uiso   1.00
H320   H     0.42269   0.53885   0.05491   0.00000  Uiso   1.00
H321   H     0.56244   0.53496   0.36904   0.00000  Uiso   1.00
H322   H     0.60430   0.45261   0.11226   0.00000  Uiso   1.00
H323   H     0.41641   0.46286   0.13013   0.00000  Uiso   1.00
H324   H     0.45994   0.43175   0.14990   0.00000  Uiso   1.00
H325   H     0.41744   0.40766   0.12147   0.00000  Uiso   1.00
H326   H     0.39934   0.40977   0.22836   0.00000  Uiso   1.00
H327   H     0.35850   0.40566   0.19502   0.00000  Uiso   1.00
H328   H     0.37208   0.49653   0.40071   0.00000  Uiso   1.00
H329   H     0.33805   0.55915   0.48910   0.00000  Uiso   1.00
H330   H     0.47015   0.36767   0.18614   0.00000  Uiso   1.00
H331   H     0.47758   0.66351   0.39680   0.00000  Uiso   1.00
H332   H     0.45435   0.61378   0.38072   0.00000  Uiso   1.00
H333   H     0.49730   0.61630   0.41825   0.00000  Uiso   1.00
H334   H     0.53828   0.59515   0.32907   0.00000  Uiso   1.00
H335   H     0.56111   0.64442   0.34250   0.00000  Uiso   1.00
H336   H     0.47152   0.62566   0.18740   0.00000  Uiso   1.00
H337   H     0.61469   0.55716   0.29138   0.00000  Uiso   1.00
H338   H     0.36694   0.55664   0.29247   0.00000  Uiso   1.00
H339   H     0.63055   0.44554   0.20616   0.00000  Uiso   1.00
H340   H     0.61984   0.51482   0.41136   0.00000  Uiso   1.00
H341   H     0.63736   0.48659   0.48711   0.00000  Uiso   1.00
H342   H     0.47071   0.51798   0.09248   0.00000  Uiso   1.00
N343   N     0.38265   0.49999   0.24999   0.00000  Uiso   1.00
N344   N     0.61735   0.50002   0.25000   0.00000  Uiso   1.00
O345   O     0.46042   0.56011   0.25001   0.00000  Uiso   1.00
O346   O     0.37718   0.52609   0.40911   0.00000  Uiso   1.00
O347   O     0.35590   0.55129   0.01383   0.00000  Uiso   1.00
O348   O     0.53961   0.56012   0.25001   0.00000  Uiso   1.00
O349   O     0.44108   0.49998   0.32549   0.00000  Uiso   1.00
O350   O     0.52027   0.49999   0.32549   0.00000  Uiso   1.00
O351   O     0.46039   0.43988   0.25000   0.00000  Uiso   1.00
O352   O     0.53958   0.43989   0.25000   0.00000  Uiso   1.00
O353   O     0.47973   0.50001   0.17451   0.00000  Uiso   1.00
O354   O     0.55892   0.50002   0.17451   0.00000  Uiso   1.00
O355   O     0.62161   0.47099   0.08365   0.00000  Uiso   1.00
C356   C     0.83331   0.57916   0.25203   0.00000  Uiso   1.00
C357   C     0.79507   0.51756   0.40593   0.00000  Uiso   1.00
C358   C     0.84863   0.64726   0.29156   0.00000  Uiso   1.00
C359   C     0.80805   0.50527   0.34964   0.00000  Uiso   1.00
C360   C     0.84829   0.35707   0.28958   0.00000  Uiso   1.00
C361   C     0.83177   0.37628   0.25201   0.00000  Uiso   1.00
C362   C     0.81563   0.35295   0.21574   0.00000  Uiso   1.00
C363   C     0.81675   0.64353   0.21633   0.00000  Uiso   1.00
C364   C     0.83368   0.62388   0.25343   0.00000  Uiso   1.00
C365   C     0.97027   0.53150   0.27319   0.00000  Uiso   1.00
C366   C     0.68624   0.53145   0.27336   0.00000  Uiso   1.00
C367   C     0.81676   0.52262   0.48805   0.00000  Uiso   1.00
C368   C     0.69524   0.46804   0.22608   0.00000  Uiso   1.00
C369   C     0.97959   0.46943   0.22564   0.00000  Uiso   1.00
C370   C     0.83281   0.42083   0.25020   0.00000  Uiso   1.00
C371   C     0.85918   0.49886   0.15016   0.00000  Uiso   1.00
C372   C     0.93425   0.49393   0.00994   0.00000  Uiso   1.00
C373   C     0.87393   0.49862   0.09326   0.00000  Uiso   1.00
C374   C     0.74644   0.52656   0.43349   0.00000  Uiso   1.00
C375   C     0.73444   0.53738   0.48656   0.00000  Uiso   1.00
C376   C     0.76837   0.53262   0.01378   0.00000  Uiso   1.00
C377   C     0.71963   0.42815   0.20147   0.00000  Uiso   1.00
C378   C     0.83115   0.52123   0.43315   0.00000  Uiso   1.00
C379   C     0.75557   0.43345   0.14780   0.00000  Uiso   1.00
C380   C     0.86199   0.62804   0.33638   0.00000  Uiso   1.00
C381   C     0.82012   0.63068   0.38605   0.00000  Uiso   1.00
C382   C     0.85181   0.51434   0.01466   0.00000  Uiso   1.00
C383   C     0.90055   0.50767   0.48586   0.00000  Uiso   1.00
C384   C     0.91531   0.51550   0.43322   0.00000  Uiso   1.00
C385   C     0.88135   0.52432   0.40790   0.00000  Uiso   1.00
C386   C     0.83985   0.51101   0.06863   0.00000  Uiso   1.00
C387   C     0.92105   0.48778   0.06311   0.00000  Uiso   1.00
Cu388  Cu    0.78645   0.49999   0.25000   0.00000  Uiso   1.00
Cu389  Cu    0.88022   0.50001   0.25000   0.00000  Uiso   1.00
H390   H     0.85992   0.37578   0.31807   0.00000  Uiso   1.00
H391   H     0.75602   0.53885   0.05491   0.00000  Uiso   1.00
H392   H     0.89578   0.53496   0.36904   0.00000  Uiso   1.00
H393   H     0.93764   0.45261   0.11226   0.00000  Uiso   1.00
H394   H     0.74974   0.46286   0.13013   0.00000  Uiso   1.00
H395   H     0.79327   0.43175   0.14990   0.00000  Uiso   1.00
H396   H     0.75077   0.40766   0.12147   0.00000  Uiso   1.00
H397   H     0.73268   0.40977   0.22836   0.00000  Uiso   1.00
H398   H     0.69183   0.40566   0.19502   0.00000  Uiso   1.00
H399   H     0.70542   0.49653   0.40071   0.00000  Uiso   1.00
H400   H     0.67138   0.55915   0.48910   0.00000  Uiso   1.00
H401   H     0.80349   0.36767   0.18614   0.00000  Uiso   1.00
H402   H     0.81092   0.66351   0.39680   0.00000  Uiso   1.00
H403   H     0.78769   0.61378   0.38072   0.00000  Uiso   1.00
H404   H     0.83064   0.61630   0.41825   0.00000  Uiso   1.00
H405   H     0.87161   0.59515   0.32907   0.00000  Uiso   1.00
H406   H     0.89444   0.64442   0.34250   0.00000  Uiso   1.00
H407   H     0.80486   0.62566   0.18740   0.00000  Uiso   1.00
H408   H     0.94803   0.55716   0.29138   0.00000  Uiso   1.00
H409   H     0.70027   0.55664   0.29247   0.00000  Uiso   1.00
H410   H     0.96388   0.44554   0.20616   0.00000  Uiso   1.00
H411   H     0.95318   0.51482   0.41136   0.00000  Uiso   1.00
H412   H     0.97070   0.48659   0.48711   0.00000  Uiso   1.00
H413   H     0.80404   0.51798   0.09248   0.00000  Uiso   1.00
N414   N     0.71598   0.49999   0.24999   0.00000  Uiso   1.00
N415   N     0.95069   0.50002   0.25000   0.00000  Uiso   1.00
O416   O     0.79375   0.56011   0.25001   0.00000  Uiso   1.00
O417   O     0.71051   0.52609   0.40911   0.00000  Uiso   1.00
O418   O     0.68923   0.55129   0.01383   0.00000  Uiso   1.00
O419   O     0.87294   0.56012   0.25001   0.00000  Uiso   1.00
O420   O     0.77441   0.49998   0.32549   0.00000  Uiso   1.00
O421   O     0.85360   0.49999   0.32549   0.00000  Uiso   1.00
O422   O     0.79373   0.43988   0.25000   0.00000  Uiso   1.00
O423   O     0.87292   0.43989   0.25000   0.00000  Uiso   1.00
O424   O     0.81306   0.50001   0.17451   0.00000  Uiso   1.00
O425   O     0.89225   0.50002   0.17451   0.00000  Uiso   1.00
O426   O     0.95494   0.47099   0.08365   0.00000  Uiso   1.00
C427   C     0.16665   0.91250   0.25203   0.00000  Uiso   1.00
C428   C     0.12840   0.85089   0.40593   0.00000  Uiso   1.00
C429   C     0.18197   0.98060   0.29156   0.00000  Uiso   1.00
C430   C     0.14138   0.83860   0.34964   0.00000  Uiso   1.00
C431   C     0.18162   0.69040   0.28958   0.00000  Uiso   1.00
C432   C     0.16510   0.70962   0.25201   0.00000  Uiso   1.00
C433   C     0.14896   0.68629   0.21574   0.00000  Uiso   1.00
C434   C     0.15009   0.97687   0.21633   0.00000  Uiso   1.00
C435   C     0.16701   0.95721   0.25343   0.00000  Uiso   1.00
C436   C     0.30360   0.86483   0.27319   0.00000  Uiso   1.00
C437   C     0.01958   0.86478   0.27336   0.00000  Uiso   1.00
C438   C     0.15009   0.85596   0.48805   0.00000  Uiso   1.00
C439   C     0.02858   0.80137   0.22608   0.00000  Uiso   1.00
C440   C     0.31292   0.80276   0.22564   0.00000  Uiso   1.00
C441   C     0.16615   0.75417   0.25020   0.00000  Uiso   1.00
C442   C     0.19251   0.83220   0.15016   0.00000  Uiso   1.00
C443   C     0.26758   0.82726   0.00994   0.00000  Uiso   1.00
C444   C     0.20726   0.83195   0.09326   0.00000  Uiso   1.00
C445   C     0.07978   0.85989   0.43349   0.00000  Uiso   1.00
C446   C     0.06777   0.87072   0.48656   0.00000  Uiso   1.00
C447   C     0.10170   0.86596   0.01378   0.00000  Uiso   1.00
C448   C     0.05297   0.76149   0.20147   0.00000  Uiso   1.00
C449   C     0.16448   0.85457   0.43315   0.00000  Uiso   1.00
C450   C     0.08891   0.76678   0.14780   0.00000  Uiso   1.00
C451   C     0.19532   0.96137   0.33638   0.00000  Uiso   1.00
C452   C     0.15345   0.96401   0.38605   0.00000  Uiso   1.00
C453   C     0.18514   0.84767   0.01466   0.00000  Uiso   1.00
C454   C     0.23389   0.84101   0.48586   0.00000  Uiso   1.00
C455   C     0.24865   0.84883   0.43322   0.00000  Uiso   1.00
C456   C     0.21468   0.85765   0.40790   0.00000  Uiso   1.00
C457   C     0.17318   0.84434   0.06863   0.00000  Uiso   1.00
C458   C     0.25438   0.82111   0.06311   0.00000  Uiso   1.00
Cu459  Cu    0.11978   0.83333   0.25000   0.00000  Uiso   1.00
Cu460  Cu    0.21355   0.83334   0.25000   0.00000  Uiso   1.00
H461   H     0.19325   0.70911   0.31807   0.00000  Uiso   1.00
H462   H     0.08935   0.87218   0.05491   0.00000  Uiso   1.00
H463   H     0.22911   0.86830   0.36904   0.00000  Uiso   1.00
H464   H     0.27097   0.78595   0.11226   0.00000  Uiso   1.00
H465   H     0.08308   0.79620   0.13013   0.00000  Uiso   1.00
H466   H     0.12660   0.76508   0.14990   0.00000  Uiso   1.00
H467   H     0.08410   0.74099   0.12147   0.00000  Uiso   1.00
H468   H     0.06601   0.74310   0.22836   0.00000  Uiso   1.00
H469   H     0.02517   0.73899   0.19502   0.00000  Uiso   1.00
H470   H     0.03875   0.82986   0.40071   0.00000  Uiso   1.00
H471   H     0.00472   0.89248   0.48910   0.00000  Uiso   1.00
H472   H     0.13682   0.70100   0.18614   0.00000  Uiso   1.00
H473   H     0.14425   0.99684   0.39680   0.00000  Uiso   1.00
H474   H     0.12102   0.94711   0.38072   0.00000  Uiso   1.00
H475   H     0.16397   0.94963   0.41825   0.00000  Uiso   1.00
H476   H     0.20495   0.92848   0.32907   0.00000  Uiso   1.00
H477   H     0.22778   0.97775   0.34250   0.00000  Uiso   1.00
H478   H     0.13819   0.95899   0.18740   0.00000  Uiso   1.00
H479   H     0.28136   0.89049   0.29138   0.00000  Uiso   1.00
H480   H     0.03361   0.88998   0.29247   0.00000  Uiso   1.00
H481   H     0.29721   0.77887   0.20616   0.00000  Uiso   1.00
H482   H     0.28651   0.84815   0.41136   0.00000  Uiso   1.00
H483   H     0.30403   0.81992   0.48711   0.00000  Uiso   1.00
H484   H     0.13737   0.85131   0.09248   0.00000  Uiso   1.00
N485   N     0.04931   0.83332   0.24999   0.00000  Uiso   1.00
N486   N     0.28402   0.83335   0.25000   0.00000  Uiso   1.00
O487   O     0.12708   0.89345   0.25001   0.00000  Uiso   1.00
O488   O     0.04385   0.85942   0.40911   0.00000  Uiso   1.00
O489   O     0.02256   0.88462   0.01383   0.00000  Uiso   1.00
O490   O     0.20627   0.89346   0.25001   0.00000  Uiso   1.00
O491   O     0.10775   0.83332   0.32549   0.00000  Uiso   1.00
O492   O     0.18694   0.83333   0.32549   0.00000  Uiso   1.00
O493   O     0.12706   0.77321   0.25000   0.00000  Uiso   1.00
O494   O     0.20625   0.77322   0.25000   0.00000  Uiso   1.00
O495   O     0.14640   0.83334   0.17451   0.00000  Uiso   1.00
O496   O     0.22559   0.83335   0.17451   0.00000  Uiso   1.00
O497   O     0.28827   0.80432   0.08365   0.00000  Uiso   1.00
C498   C     0.49998   0.91250   0.25203   0.00000  Uiso   1.00
C499   C     0.46174   0.85089   0.40593   0.00000  Uiso   1.00
C500   C     0.51530   0.98060   0.29156   0.00000  Uiso   1.00
C501   C     0.47472   0.83860   0.34964   0.00000  Uiso   1.00
C502   C     0.51496   0.69040   0.28958   0.00000  Uiso   1.00
C503   C     0.49843   0.70962   0.25201   0.00000  Uiso   1.00
C504   C     0.48229   0.68629   0.21574   0.00000  Uiso   1.00
C505   C     0.48342   0.97687   0.21633   0.00000  Uiso   1.00
C506   C     0.50035   0.95721   0.25343   0.00000  Uiso   1.00
C507   C     0.63694   0.86483   0.27319   0.00000  Uiso   1.00
C508   C     0.35291   0.86478   0.27336   0.00000  Uiso   1.00
C509   C     0.48343   0.85596   0.48805   0.00000  Uiso   1.00
C510   C     0.36191   0.80137   0.22608   0.00000  Uiso   1.00
C511   C     0.64626   0.80276   0.22564   0.00000  Uiso   1.00
C512   C     0.49948   0.75417   0.25020   0.00000  Uiso   1.00
C513   C     0.52584   0.83220   0.15016   0.00000  Uiso   1.00
C514   C     0.60091   0.82726   0.00994   0.00000  Uiso   1.00
C515   C     0.54059   0.83195   0.09326   0.00000  Uiso   1.00
C516   C     0.41311   0.85989   0.43349   0.00000  Uiso   1.00
C517   C     0.40111   0.87072   0.48656   0.00000  Uiso   1.00
C518   C     0.43504   0.86596   0.01378   0.00000  Uiso   1.00
C519   C     0.38630   0.76149   0.20147   0.00000  Uiso   1.00
C520   C     0.49782   0.85457   0.43315   0.00000  Uiso   1.00
C521   C     0.42224   0.76678   0.14780   0.00000  Uiso   1.00
C522   C     0.52866   0.96137   0.33638   0.00000  Uiso   1.00
C523   C     0.48679   0.96401   0.38605   0.00000  Uiso   1.00
C524   C     0.51847   0.84767   0.01466   0.00000  Uiso   1.00
C525   C     0.56722   0.84101   0.48586   0.00000  Uiso   1.00
C526   C     0.58198   0.84883   0.43322   0.00000  Uiso   1.00
C527   C     0.54801   0.85765   0.40790   0.00000  Uiso   1.00
C528   C     0.50651   0.84434   0.06863   0.00000  Uiso   1.00
C529   C     0.58772   0.82111   0.06311   0.00000  Uiso   1.00
Cu530  Cu    0.45311   0.83333   0.25000   0.00000  Uiso   1.00
Cu531  Cu    0.54689   0.83334   0.25000   0.00000  Uiso   1.00
H532   H     0.52659   0.70911   0.31807   0.00000  Uiso   1.00
H533   H     0.42269   0.87218   0.05491   0.00000  Uiso   1.00
H534   H     0.56244   0.86830   0.36904   0.00000  Uiso   1.00
H535   H     0.60430   0.78595   0.11226   0.00000  Uiso   1.00
H536   H     0.41641   0.79620   0.13013   0.00000  Uiso   1.00
H537   H     0.45994   0.76508   0.14990   0.00000  Uiso   1.00
H538   H     0.41744   0.74099   0.12147   0.00000  Uiso   1.00
H539   H     0.39934   0.74310   0.22836   0.00000  Uiso   1.00
H540   H     0.35850   0.73899   0.19502   0.00000  Uiso   1.00
H541   H     0.37208   0.82986   0.40071   0.00000  Uiso   1.00
H542   H     0.33805   0.89248   0.48910   0.00000  Uiso   1.00
H543   H     0.47015   0.70100   0.18614   0.00000  Uiso   1.00
H544   H     0.47758   0.99684   0.39680   0.00000  Uiso   1.00
H545   H     0.45435   0.94711   0.38072   0.00000  Uiso   1.00
H546   H     0.49730   0.94963   0.41825   0.00000  Uiso   1.00
H547   H     0.53828   0.92848   0.32907   0.00000  Uiso   1.00
H548   H     0.56111   0.97775   0.34250   0.00000  Uiso   1.00
H549   H     0.47152   0.95899   0.18740   0.00000  Uiso   1.00
H550   H     0.61469   0.89049   0.29138   0.00000  Uiso   1.00
H551   H     0.36694   0.88998   0.29247   0.00000  Uiso   1.00
H552   H     0.63055   0.77887   0.20616   0.00000  Uiso   1.00
H553   H     0.61984   0.84815   0.41136   0.00000  Uiso   1.00
H554   H     0.63736   0.81992   0.48711   0.00000  Uiso   1.00
H555   H     0.47071   0.85131   0.09248   0.00000  Uiso   1.00
N556   N     0.38265   0.83332   0.24999   0.00000  Uiso   1.00
N557   N     0.61735   0.83335   0.25000   0.00000  Uiso   1.00
O558   O     0.46042   0.89345   0.25001   0.00000  Uiso   1.00
O559   O     0.37718   0.85942   0.40911   0.00000  Uiso   1.00
O560   O     0.35590   0.88462   0.01383   0.00000  Uiso   1.00
O561   O     0.53961   0.89346   0.25001   0.00000  Uiso   1.00
O562   O     0.44108   0.83332   0.32549   0.00000  Uiso   1.00
O563   O     0.52027   0.83333   0.32549   0.00000  Uiso   1.00
O564   O     0.46039   0.77321   0.25000   0.00000  Uiso   1.00
O565   O     0.53958   0.77322   0.25000   0.00000  Uiso   1.00
O566   O     0.47973   0.83334   0.17451   0.00000  Uiso   1.00
O567   O     0.55892   0.83335   0.17451   0.00000  Uiso   1.00
O568   O     0.62161   0.80432   0.08365   0.00000  Uiso   1.00
C569   C     0.83331   0.91250   0.25203   0.00000  Uiso   1.00
C570   C     0.79507   0.85089   0.40593   0.00000  Uiso   1.00
C571   C     0.84863   0.98060   0.29156   0.00000  Uiso   1.00
C572   C     0.80805   0.83860   0.34964   0.00000  Uiso   1.00
C573   C     0.84829   0.69040   0.28958   0.00000  Uiso   1.00
C574   C     0.83177   0.70962   0.25201   0.00000  Uiso   1.00
C575   C     0.81563   0.68629   0.21574   0.00000  Uiso   1.00
C576   C     0.81675   0.97687   0.21633   0.00000  Uiso   1.00
C577   C     0.83368   0.95721   0.25343   0.00000  Uiso   1.00
C578   C     0.97027   0.86483   0.27319   0.00000  Uiso   1.00
C579   C     0.68624   0.86478   0.27336   0.00000  Uiso   1.00
C580   C     0.81676   0.85596   0.48805   0.00000  Uiso   1.00
C581   C     0.69524   0.80137   0.22608   0.00000  Uiso   1.00
C582   C     0.97959   0.80276   0.22564   0.00000  Uiso   1.00
C583   C     0.83281   0.75417   0.25020   0.00000  Uiso   1.00
C584   C     0.85918   0.83220   0.15016   0.00000  Uiso   1.00
C585   C     0.93425   0.82726   0.00994   0.00000  Uiso   1.00
C586   C     0.87393   0.83195   0.09326   0.00000  Uiso   1.00
C587   C     0.74644   0.85989   0.43349   0.00000  Uiso   1.00
C588   C     0.73444   0.87072   0.48656   0.00000  Uiso   1.00
C589   C     0.76837   0.86596   0.01378   0.00000  Uiso   1.00
C590   C     0.71963   0.76149   0.20147   0.00000  Uiso   1.00
C591   C     0.83115   0.85457   0.43315   0.00000  Uiso   1.00
C592   C     0.75557   0.76678   0.14780   0.00000  Uiso   1.00
C593   C     0.86199   0.96137   0.33638   0.00000  Uiso   1.00
C594   C     0.82012   0.96401   0.38605   0.00000  Uiso   1.00
C595   C     0.85181   0.84767   0.01466   0.00000  Uiso   1.00
C596   C     0.90055   0.84101   0.48586   0.00000  Uiso   1.00
C597   C     0.91531   0.84883   0.43322   0.00000  Uiso   1.00
C598   C     0.88135   0.85765   0.40790   0.00000  Uiso   1.00
C599   C     0.83985   0.84434   0.06863   0.00000  Uiso   1.00
C600   C     0.92105   0.82111   0.06311   0.00000  Uiso   1.00
Cu601  Cu    0.78645   0.83333   0.25000   0.00000  Uiso   1.00
Cu602  Cu    0.88022   0.83334   0.25000   0.00000  Uiso   1.00
H603   H     0.85992   0.70911   0.31807   0.00000  Uiso   1.00
H604   H     0.75602   0.87218   0.05491   0.00000  Uiso   1.00
H605   H     0.89578   0.86830   0.36904   0.00000  Uiso   1.00
H606   H     0.93764   0.78595   0.11226   0.00000  Uiso   1.00
H607   H     0.74974   0.79620   0.13013   0.00000  Uiso   1.00
H608   H     0.79327   0.76508   0.14990   0.00000  Uiso   1.00
H609   H     0.75077   0.74099   0.12147   0.00000  Uiso   1.00
H610   H     0.73268   0.74310   0.22836   0.00000  Uiso   1.00
H611   H     0.69183   0.73899   0.19502   0.00000  Uiso   1.00
H612   H     0.70542   0.82986   0.40071   0.00000  Uiso   1.00
H613   H     0.67138   0.89248   0.48910   0.00000  Uiso   1.00
H614   H     0.80349   0.70100   0.18614   0.00000  Uiso   1.00
H615   H     0.81092   0.99684   0.39680   0.00000  Uiso   1.00
H616   H     0.78769   0.94711   0.38072   0.00000  Uiso   1.00
H617   H     0.83064   0.94963   0.41825   0.00000  Uiso   1.00
H618   H     0.87161   0.92848   0.32907   0.00000  Uiso   1.00
H619   H     0.89444   0.97775   0.34250   0.00000  Uiso   1.00
H620   H     0.80486   0.95899   0.18740   0.00000  Uiso   1.00
H621   H     0.94803   0.89049   0.29138   0.00000  Uiso   1.00
H622   H     0.70027   0.88998   0.29247   0.00000  Uiso   1.00
H623   H     0.96388   0.77887   0.20616   0.00000  Uiso   1.00
H624   H     0.95318   0.84815   0.41136   0.00000  Uiso   1.00
H625   H     0.97070   0.81992   0.48711   0.00000  Uiso   1.00
H626   H     0.80404   0.85131   0.09248   0.00000  Uiso   1.00
N627   N     0.71598   0.83332   0.24999   0.00000  Uiso   1.00
N628   N     0.95069   0.83335   0.25000   0.00000  Uiso   1.00
O629   O     0.79375   0.89345   0.25001   0.00000  Uiso   1.00
O630   O     0.71051   0.85942   0.40911   0.00000  Uiso   1.00
O631   O     0.68923   0.88462   0.01383   0.00000  Uiso   1.00
O632   O     0.87294   0.89346   0.25001   0.00000  Uiso   1.00
O633   O     0.77441   0.83332   0.32549   0.00000  Uiso   1.00
O634   O     0.85360   0.83333   0.32549   0.00000  Uiso   1.00
O635   O     0.79373   0.77321   0.25000   0.00000  Uiso   1.00
O636   O     0.87292   0.77322   0.25000   0.00000  Uiso   1.00
O637   O     0.81306   0.83334   0.17451   0.00000  Uiso   1.00
O638   O     0.89225   0.83335   0.17451   0.00000  Uiso   1.00
O639   O     0.95494   0.80432   0.08365   0.00000  Uiso   1.00
C640   C     0.16665   0.24583   0.75203   0.00000  Uiso   1.00
C641   C     0.12840   0.18423   0.90593   0.00000  Uiso   1.00
C642   C     0.18197   0.31393   0.79156   0.00000  Uiso   1.00
C643   C     0.14138   0.17193   0.84964   0.00000  Uiso   1.00
C644   C     0.18162   0.02374   0.78958   0.00000  Uiso   1.00
C645   C     0.16510   0.04295   0.75201   0.00000  Uiso   1.00
C646   C     0.14896   0.01962   0.71574   0.00000  Uiso   1.00
C647   C     0.15009   0.31020   0.71633   0.00000  Uiso   1.00
C648   C     0.16701   0.29055   0.75343   0.00000  Uiso   1.00
C649   C     0.30360   0.19816   0.77319   0.00000  Uiso   1.00
C650   C     0.01958   0.19811   0.77336   0.00000  Uiso   1.00
C651   C     0.15009   0.18929   0.98805   0.00000  Uiso   1.00
C652   C     0.02858   0.13470   0.72608   0.00000  Uiso   1.00
C653   C     0.31292   0.13610   0.72564   0.00000  Uiso   1.00
C654   C     0.16615   0.08750   0.75020   0.00000  Uiso   1.00
C655   C     0.19251   0.16553   0.65016   0.00000  Uiso   1.00
C656   C     0.26758   0.16059   0.50994   0.00000  Uiso   1.00
C657   C     0.20726   0.16529   0.59326   0.00000  Uiso   1.00
C658   C     0.07978   0.19323   0.93349   0.00000  Uiso   1.00
C659   C     0.06777   0.20405   0.98656   0.00000  Uiso   1.00
C660   C     0.10170   0.19929   0.51378   0.00000  Uiso   1.00
C661   C     0.05297   0.09482   0.70147   0.00000  Uiso   1.00
C662   C     0.16448   0.18790   0.93315   0.00000  Uiso   1.00
C663   C     0.08891   0.10012   0.64780   0.00000  Uiso   1.00
C664   C     0.19532   0.29471   0.83638   0.00000  Uiso   1.00
C665   C     0.15345   0.29734   0.88605   0.00000  Uiso   1.00
C666   C     0.18514   0.18101   0.51466   0.00000  Uiso   1.00
C667   C     0.23389   0.17434   0.98586   0.00000  Uiso   1.00
C668   C     0.24865   0.18216   0.93322   0.00000  Uiso   1.00
C669   C     0.21468   0.19098   0.90790   0.00000  Uiso   1.00
C670   C     0.17318   0.17768   0.56863   0.00000  Uiso   1.00
C671   C     0.25438   0.15445   0.56311   0.00000  Uiso   1.00
Cu672  Cu    0.11978   0.16666   0.75000   0.00000  Uiso   1.00
Cu673  Cu    0.21355   0.16667   0.75000   0.00000  Uiso   1.00
H674   H     0.19325   0.04244   0.81807   0.00000  Uiso   1.00
H675   H     0.08935   0.20552   0.55491   0.00000  Uiso   1.00
H676   H     0.22911   0.20163   0.86904   0.00000  Uiso   1.00
H677   H     0.27097   0.11928   0.61226   0.00000  Uiso   1.00
H678   H     0.08308   0.12953   0.63013   0.00000  Uiso   1.00
H679   H     0.12660   0.09841   0.64990   0.00000  Uiso   1.00
H680   H     0.08410   0.07433   0.62147   0.00000  Uiso   1.00
H681   H     0.06601   0.07644   0.72836   0.00000  Uiso   1.00
H682   H     0.02517   0.07233   0.69502   0.00000  Uiso   1.00
H683   H     0.03875   0.16320   0.90071   0.00000  Uiso   1.00
H684   H     0.00472   0.22581   0.98910   0.00000  Uiso   1.00
H685   H     0.13682   0.03433   0.68614   0.00000  Uiso   1.00
H686   H     0.14425   0.33018   0.89680   0.00000  Uiso   1.00
H687   H     0.12102   0.28045   0.88072   0.00000  Uiso   1.00
H688   H     0.16397   0.28296   0.91825   0.00000  Uiso   1.00
H689   H     0.20495   0.26182   0.82907   0.00000  Uiso   1.00
H690   H     0.22778   0.31108   0.84250   0.00000  Uiso   1.00
H691   H     0.13819   0.29233   0.68740   0.00000  Uiso   1.00
H692   H     0.28136   0.22382   0.79138   0.00000  Uiso   1.00
H693   H     0.03361   0.22331   0.79247   0.00000  Uiso   1.00
H694   H     0.29721   0.11220   0.70616   0.00000  Uiso   1.00
H695   H     0.28651   0.18148   0.91136   0.00000  Uiso   1.00
H696   H     0.30403   0.15326   0.98711   0.00000  Uiso   1.00
H697   H     0.13737   0.18465   0.59248   0.00000  Uiso   1.00
N698   N     0.04931   0.16666   0.74999   0.00000  Uiso   1.00
N699   N     0.28402   0.16669   0.75000   0.00000  Uiso   1.00
O700   O     0.12708   0.22678   0.75001   0.00000  Uiso   1.00
O701   O     0.04385   0.19275   0.90911   0.00000  Uiso   1.00
O702   O     0.02256   0.21796   0.51383   0.00000  Uiso   1.00
O703   O     0.20627   0.22679   0.75001   0.00000  Uiso   1.00
O704   O     0.10775   0.16665   0.82549   0.00000  Uiso   1.00
O705   O     0.18694   0.16666   0.82549   0.00000  Uiso   1.00
O706   O     0.12706   0.10654   0.75000   0.00000  Uiso   1.00
O707   O     0.20625   0.10655   0.75000   0.00000  Uiso   1.00
O708   O     0.14640   0.16667   0.67451   0.00000  Uiso   1.00
O709   O     0.22559   0.16668   0.67451   0.00000  Uiso   1.00
O710   O     0.28827   0.13766   0.58365   0.00000  Uiso   1.00
C711   C     0.49998   0.24583   0.75203   0.00000  Uiso   1.00
C712   C     0.46174   0.18423   0.90593   0.00000  Uiso   1.00
C713   C     0.51530   0.31393   0.79156   0.00000  Uiso   1.00
C714   C     0.47472   0.17193   0.84964   0.00000  Uiso   1.00
C715   C     0.51496   0.02374   0.78958   0.00000  Uiso   1.00
C716   C     0.49843   0.04295   0.75201   0.00000  Uiso   1.00
C717   C     0.48229   0.01962   0.71574   0.00000  Uiso   1.00
C718   C     0.48342   0.31020   0.71633   0.00000  Uiso   1.00
C719   C     0.50035   0.29055   0.75343   0.00000  Uiso   1.00
C720   C     0.63694   0.19816   0.77319   0.00000  Uiso   1.00
C721   C     0.35291   0.19811   0.77336   0.00000  Uiso   1.00
C722   C     0.48343   0.18929   0.98805   0.00000  Uiso   1.00
C723   C     0.36191   0.13470   0.72608   0.00000  Uiso   1.00
C724   C     0.64626   0.13610   0.72564   0.00000  Uiso   1.00
C725   C     0.49948   0.08750   0.75020   0.00000  Uiso   1.00
C726   C     0.52584   0.16553   0.65016   0.00000  Uiso   1.00
C727   C     0.60091   0.16059   0.50994   0.00000  Uiso   1.00
C728   C     0.54059   0.16529   0.59326   0.00000  Uiso   1.00
C729   C     0.41311   0.19323   0.93349   0.00000  Uiso   1.00
C730   C     0.40111   0.20405   0.98656   0.00000  Uiso   1.00
C731   C     0.43504   0.19929   0.51378   0.00000  Uiso   1.00
C732   C     0.38630   0.09482   0.70147   0.00000  Uiso   1.00
C733   C     0.49782   0.18790   0.93315   0.00000  Uiso   1.00
C734   C     0.42224   0.10012   0.64780   0.00000  Uiso   1.00
C735   C     0.52866   0.29471   0.83638   0.00000  Uiso   1.00
C736   C     0.48679   0.29734   0.88605   0.00000  Uiso   1.00
C737   C     0.51847   0.18101   0.51466   0.00000  Uiso   1.00
C738   C     0.56722   0.17434   0.98586   0.00000  Uiso   1.00
C739   C     0.58198   0.18216   0.93322   0.00000  Uiso   1.00
C740   C     0.54801   0.19098   0.90790   0.00000  Uiso   1.00
C741   C     0.50651   0.17768   0.56863   0.00000  Uiso   1.00
C742   C     0.58772   0.15445   0.56311   0.00000  Uiso   1.00
Cu743  Cu    0.45311   0.16666   0.75000   0.00000  Uiso   1.00
Cu744  Cu    0.54689   0.16667   0.75000   0.00000  Uiso   1.00
H745   H     0.52659   0.04244   0.81807   0.00000  Uiso   1.00
H746   H     0.42269   0.20552   0.55491   0.00000  Uiso   1.00
H747   H     0.56244   0.20163   0.86904   0.00000  Uiso   1.00
H748   H     0.60430   0.11928   0.61226   0.00000  Uiso   1.00
H749   H     0.41641   0.12953   0.63013   0.00000  Uiso   1.00
H750   H     0.45994   0.09841   0.64990   0.00000  Uiso   1.00
H751   H     0.41744   0.07433   0.62147   0.00000  Uiso   1.00
H752   H     0.39934   0.07644   0.72836   0.00000  Uiso   1.00
H753   H     0.35850   0.07233   0.69502   0.00000  Uiso   1.00
H754   H     0.37208   0.16320   0.90071   0.00000  Uiso   1.00
H755   H     0.33805   0.22581   0.98910   0.00000  Uiso   1.00
H756   H     0.47015   0.03433   0.68614   0.00000  Uiso   1.00
H757   H     0.47758   0.33018   0.89680   0.00000  Uiso   1.00
H758   H     0.45435   0.28045   0.88072   0.00000  Uiso   1.00
H759   H     0.49730   0.28296   0.91825   0.00000  Uiso   1.00
H760   H     0.53828   0.26182   0.82907   0.00000  Uiso   1.00
H761   H     0.56111   0.31108   0.84250   0.00000  Uiso   1.00
H762   H     0.47152   0.29233   0.68740   0.00000  Uiso   1.00
H763   H     0.61469   0.22382   0.79138   0.00000  Uiso   1.00
H764   H     0.36694   0.22331   0.79247   0.00000  Uiso   1.00
H765   H     0.63055   0.11220   0.70616   0.00000  Uiso   1.00
H766   H     0.61984   0.18148   0.91136   0.00000  Uiso   1.00
H767   H     0.63736   0.15326   0.98711   0.00000  Uiso   1.00
H768   H     0.47071   0.18465   0.59248   0.00000  Uiso   1.00
N769   N     0.38265   0.16666   0.74999   0.00000  Uiso   1.00
N770   N     0.61735   0.16669   0.75000   0.00000  Uiso   1.00
O771   O     0.46042   0.22678   0.75001   0.00000  Uiso   1.00
O772   O     0.37718   0.19275   0.90911   0.00000  Uiso   1.00
O773   O     0.35590   0.21796   0.51383   0.00000  Uiso   1.00
O774   O     0.53961   0.22679   0.75001   0.00000  Uiso   1.00
O775   O     0.44108   0.16665   0.82549   0.00000  Uiso   1.00
O776   O     0.52027   0.16666   0.82549   0.00000  Uiso   1.00
O777   O     0.46039   0.10654   0.75000   0.00000  Uiso   1.00
O778   O     0.53958   0.10655   0.75000   0.00000  Uiso   1.00
O779   O     0.47973   0.16667   0.67451   0.00000  Uiso   1.00
O780   O     0.55892   0.16668   0.67451   0.00000  Uiso   1.00
O781   O     0.62161   0.13766   0.58365   0.00000  Uiso   1.00
C782   C     0.83331   0.24583   0.75203   0.00000  Uiso   1.00
C783   C     0.79507   0.18423   0.90593   0.00000  Uiso   1.00
C784   C     0.84863   0.31393   0.79156   0.00000  Uiso   1.00
C785   C     0.80805   0.17193   0.84964   0.00000  Uiso   1.00
C786   C     0.84829   0.02374   0.78958   0.00000  Uiso   1.00
C787   C     0.83177   0.04295   0.75201   0.00000  Uiso   1.00
C788   C     0.81563   0.01962   0.71574   0.00000  Uiso   1.00
C789   C     0.81675   0.31020   0.71633   0.00000  Uiso   1.00
C790   C     0.83368   0.29055   0.75343   0.00000  Uiso   1.00
C791   C     0.97027   0.19816   0.77319   0.00000  Uiso   1.00
C792   C     0.68624   0.19811   0.77336   0.00000  Uiso   1.00
C793   C     0.81676   0.18929   0.98805   0.00000  Uiso   1.00
C794   C     0.69524   0.13470   0.72608   0.00000  Uiso   1.00
C795   C     0.97959   0.13610   0.72564   0.00000  Uiso   1.00
C796   C     0.83281   0.08750   0.75020   0.00000  Uiso   1.00
C797   C     0.85918   0.16553   0.65016   0.00000  Uiso   1.00
C798   C     0.93425   0.16059   0.50994   0.00000  Uiso   1.00
C799   C     0.87393   0.16529   0.59326   0.00000  Uiso   1.00
C800   C     0.74644   0.19323   0.93349   0.00000  Uiso   1.00
C801   C     0.73444   0.20405   0.98656   0.00000  Uiso   1.00
C802   C     0.76837   0.19929   0.51378   0.00000  Uiso   1.00
C803   C     0.71963   0.09482   0.70147   0.00000  Uiso   1.00
C804   C     0.83115   0.18790   0.93315   0.00000  Uiso   1.00
C805   C     0.75557   0.10012   0.64780   0.00000  Uiso   1.00
C806   C     0.86199   0.29471   0.83638   0.00000  Uiso   1.00
C807   C     0.82012   0.29734   0.88605   0.00000  Uiso   1.00
C808   C     0.85181   0.18101   0.51466   0.00000  Uiso   1.00
C809   C     0.90055   0.17434   0.98586   0.00000  Uiso   1.00
C810   C     0.91531   0.18216   0.93322   0.00000  Uiso   1.00
C811   C     0.88135   0.19098   0.90790   0.00000  Uiso   1.00
C812   C     0.83985   0.17768   0.56863   0.00000  Uiso   1.00
C813   C     0.92105   0.15445   0.56311   0.00000  Uiso   1.00
Cu814  Cu    0.78645   0.16666   0.75000   0.00000  Uiso   1.00
Cu815  Cu    0.88022   0.16667   0.75000   0.00000  Uiso   1.00
H816   H     0.85992   0.04244   0.81807   0.00000  Uiso   1.00
H817   H     0.75602   0.20552   0.55491   0.00000  Uiso   1.00
H818   H     0.89578   0.20163   0.86904   0.00000  Uiso   1.00
H819   H     0.93764   0.11928   0.61226   0.00000  Uiso   1.00
H820   H     0.74974   0.12953   0.63013   0.00000  Uiso   1.00
H821   H     0.79327   0.09841   0.64990   0.00000  Uiso   1.00
H822   H     0.75077   0.07433   0.62147   0.00000  Uiso   1.00
H823   H     0.73268   0.07644   0.72836   0.00000  Uiso   1.00
H824   H     0.69183   0.07233   0.69502   0.00000  Uiso   1.00
H825   H     0.70542   0.16320   0.90071   0.00000  Uiso   1.00
H826   H     0.67138   0.22581   0.98910   0.00000  Uiso   1.00
H827   H     0.80349   0.03433   0.68614   0.00000  Uiso   1.00
H828   H     0.81092   0.33018   0.89680   0.00000  Uiso   1.00
H829   H     0.78769   0.28045   0.88072   0.00000  Uiso   1.00
H830   H     0.83064   0.28296   0.91825   0.00000  Uiso   1.00
H831   H     0.87161   0.26182   0.82907   0.00000  Uiso   1.00
H832   H     0.89444   0.31108   0.84250   0.00000  Uiso   1.00
H833   H     0.80486   0.29233   0.68740   0.00000  Uiso   1.00
H834   H     0.94803   0.22382   0.79138   0.00000  Uiso   1.00
H835   H     0.70027   0.22331   0.79247   0.00000  Uiso   1.00
H836   H     0.96388   0.11220   0.70616   0.00000  Uiso   1.00
H837   H     0.95318   0.18148   0.91136   0.00000  Uiso   1.00
H838   H     0.97070   0.15326   0.98711   0.00000  Uiso   1.00
H839   H     0.80404   0.18465   0.59248   0.00000  Uiso   1.00
N840   N     0.71598   0.16666   0.74999   0.00000  Uiso   1.00
N841   N     0.95069   0.16669   0.75000   0.00000  Uiso   1.00
O842   O     0.79375   0.22678   0.75001   0.00000  Uiso   1.00
O843   O     0.71051   0.19275   0.90911   0.00000  Uiso   1.00
O844   O     0.68923   0.21796   0.51383   0.00000  Uiso   1.00
O845   O     0.87294   0.22679   0.75001   0.00000  Uiso   1.00
O846   O     0.77441   0.16665   0.82549   0.00000  Uiso   1.00
O847   O     0.85360   0.16666   0.82549   0.00000  Uiso   1.00
O848   O     0.79373   0.10654   0.75000   0.00000  Uiso   1.00
O849   O     0.87292   0.10655   0.75000   0.00000  Uiso   1.00
O850   O     0.81306   0.16667   0.67451   0.00000  Uiso   1.00
O851   O     0.89225   0.16668   0.67451   0.00000  Uiso   1.00
O852   O     0.95494   0.13766   0.58365   0.00000  Uiso   1.00
C853   C     0.16665   0.57916   0.75203   0.00000  Uiso   1.00
C854   C     0.12840   0.51756   0.90593   0.00000  Uiso   1.00
C855   C     0.18197   0.64726   0.79156   0.00000  Uiso   1.00
C856   C     0.14138   0.50527   0.84964   0.00000  Uiso   1.00
C857   C     0.18162   0.35707   0.78958   0.00000  Uiso   1.00
C858   C     0.16510   0.37628   0.75201   0.00000  Uiso   1.00
C859   C     0.14896   0.35295   0.71574   0.00000  Uiso   1.00
C860   C     0.15009   0.64353   0.71633   0.00000  Uiso   1.00
C861   C     0.16701   0.62388   0.75343   0.00000  Uiso   1.00
C862   C     0.30360   0.53150   0.77319   0.00000  Uiso   1.00
C863   C     0.01958   0.53145   0.77336   0.00000  Uiso   1.00
C864   C     0.15009   0.52262   0.98805   0.00000  Uiso   1.00
C865   C     0.02858   0.46804   0.72608   0.00000  Uiso   1.00
C866   C     0.31292   0.46943   0.72564   0.00000  Uiso   1.00
C867   C     0.16615   0.42083   0.75020   0.00000  Uiso   1.00
C868   C     0.19251   0.49886   0.65016   0.00000  Uiso   1.00
C869   C     0.26758   0.49393   0.50994   0.00000  Uiso   1.00
C870   C     0.20726   0.49862   0.59326   0.00000  Uiso   1.00
C871   C     0.07978   0.52656   0.93349   0.00000  Uiso   1.00
C872   C     0.06777   0.53738   0.98656   0.00000  Uiso   1.00
C873   C     0.10170   0.53262   0.51378   0.00000  Uiso   1.00
C874   C     0.05297   0.42815   0.70147   0.00000  Uiso   1.00
C875   C     0.16448   0.52123   0.93315   0.00000  Uiso   1.00
C876   C     0.08891   0.43345   0.64780   0.00000  Uiso   1.00
C877   C     0.19532   0.62804   0.83638   0.00000  Uiso   1.00
C878   C     0.15345   0.63068   0.88605   0.00000  Uiso   1.00
C879   C     0.18514   0.51434   0.51466   0.00000  Uiso   1.00
C880   C     0.23389   0.50767   0.98586   0.00000  Uiso   1.00
C881   C     0.24865   0.51550   0.93322   0.00000  Uiso   1.00
C882   C     0.21468   0.52432   0.90790   0.00000  Uiso   1.00
C883   C     0.17318   0.51101   0.56863   0.00000  Uiso   1.00
C884   C     0.25438   0.48778   0.56311   0.00000  Uiso   1.00
Cu885  Cu    0.11978   0.49999   0.75000   0.00000  Uiso   1.00
Cu886  Cu    0.21355   0.50001   0.75000   0.00000  Uiso   1.00
H887   H     0.19325   0.37578   0.81807   0.00000  Uiso   1.00
H888   H     0.08935   0.53885   0.55491   0.00000  Uiso   1.00
H889   H     0.22911   0.53496   0.86904   0.00000  Uiso   1.00
H890   H     0.27097   0.45261   0.61226   0.00000  Uiso   1.00
H891   H     0.08308   0.46286   0.63013   0.00000  Uiso   1.00
H892   H     0.12660   0.43175   0.64990   0.00000  Uiso   1.00
H893   H     0.08410   0.40766   0.62147   0.00000  Uiso   1.00
H894   H     0.06601   0.40977   0.72836   0.00000  Uiso   1.00
H895   H     0.02517   0.40566   0.69502   0.00000  Uiso   1.00
H896   H     0.03875   0.49653   0.90071   0.00000  Uiso   1.00
H897   H     0.00472   0.55915   0.98910   0.00000  Uiso   1.00
H898   H     0.13682   0.36767   0.68614   0.00000  Uiso   1.00
H899   H     0.14425   0.66351   0.89680   0.00000  Uiso   1.00
H900   H     0.12102   0.61378   0.88072   0.00000  Uiso   1.00
H901   H     0.16397   0.61630   0.91825   0.00000  Uiso   1.00
H902   H     0.20495   0.59515   0.82907   0.00000  Uiso   1.00
H903   H     0.22778   0.64442   0.84250   0.00000  Uiso   1.00
H904   H     0.13819   0.62566   0.68740   0.00000  Uiso   1.00
H905   H     0.28136   0.55716   0.79138   0.00000  Uiso   1.00
H906   H     0.03361   0.55664   0.79247   0.00000  Uiso   1.00
H907   H     0.29721   0.44554   0.70616   0.00000  Uiso   1.00
H908   H     0.28651   0.51482   0.91136   0.00000  Uiso   1.00
H909   H     0.30403   0.48659   0.98711   0.00000  Uiso   1.00
H910   H     0.13737   0.51798   0.59248   0.00000  Uiso   1.00
N911   N     0.04931   0.49999   0.74999   0.00000  Uiso   1.00
N912   N     0.28402   0.50002   0.75000   0.00000  Uiso   1.00
O913   O     0.12708   0.56011   0.75001   0.00000  Uiso   1.00
O914   O     0.04385   0.52609   0.90911   0.00000  Uiso   1.00
O915   O     0.02256   0.55129   0.51383   0.00000  Uiso   1.00
O916   O     0.20627   0.56012   0.75001   0.00000  Uiso   1.00
O917   O     0.10775   0.49998   0.82549   0.00000  Uiso   1.00
O918   O     0.18694   0.49999   0.82549   0.00000  Uiso   1.00
O919   O     0.12706   0.43988   0.75000   0.00000  Uiso   1.00
O920   O     0.20625   0.43989   0.75000   0.00000  Uiso   1.00
O921   O     0.14640   0.50001   0.67451   0.00000  Uiso   1.00
O922   O     0.22559   0.50002   0.67451   0.00000  Uiso   1.00
O923   O     0.28827   0.47099   0.58365   0.00000  Uiso   1.00
C924   C     0.49998   0.57916   0.75203   0.00000  Uiso   1.00
C925   C     0.46174   0.51756   0.90593   0.00000  Uiso   1.00
C926   C     0.51530   0.64726   0.79156   0.00000  Uiso   1.00
C927   C     0.47472   0.50527   0.84964   0.00000  Uiso   1.00
C928   C     0.51496   0.35707   0.78958   0.00000  Uiso   1.00
C929   C     0.49843   0.37628   0.75201   0.00000  Uiso   1.00
C930   C     0.48229   0.35295   0.71574   0.00000  Uiso   1.00
C931   C     0.48342   0.64353   0.71633   0.00000  Uiso   1.00
C932   C     0.50035   0.62388   0.75343   0.00000  Uiso   1.00
C933   C     0.63694   0.53150   0.77319   0.00000  Uiso   1.00
C934   C     0.35291   0.53145   0.77336   0.00000  Uiso   1.00
C935   C     0.48343   0.52262   0.98805   0.00000  Uiso   1.00
C936   C     0.36191   0.46804   0.72608   0.00000  Uiso   1.00
C937   C     0.64626   0.46943   0.72564   0.00000  Uiso   1.00
C938   C     0.49948   0.42083   0.75020   0.00000  Uiso   1.00
C939   C     0.52584   0.49886   0.65016   0.00000  Uiso   1.00
C940   C     0.60091   0.49393   0.50994   0.00000  Uiso   1.00
C941   C     0.54059   0.49862   0.59326   0.00000  Uiso   1.00
C942   C     0.41311   0.52656   0.93349   0.00000  Uiso   1.00
C943   C     0.40111   0.53738   0.98656   0.00000  Uiso   1.00
C944   C     0.43504   0.53262   0.51378   0.00000  Uiso   1.00
C945   C     0.38630   0.42815   0.70147   0.00000  Uiso   1.00
C946   C     0.49782   0.52123   0.93315   0.00000  Uiso   1.00
C947   C     0.42224   0.43345   0.64780   0.00000  Uiso   1.00
C948   C     0.52866   0.62804   0.83638   0.00000  Uiso   1.00
C949   C     0.48679   0.63068   0.88605   0.00000  Uiso   1.00
C950   C     0.51847   0.51434   0.51466   0.00000  Uiso   1.00
C951   C     0.56722   0.50767   0.98586   0.00000  Uiso   1.00
C952   C     0.58198   0.51550   0.93322   0.00000  Uiso   1.00
C953   C     0.54801   0.52432   0.90790   0.00000  Uiso   1.00
C954   C     0.50651   0.51101   0.56863   0.00000  Uiso   1.00
C955   C     0.58772   0.48778   0.56311   0.00000  Uiso   1.00
Cu956  Cu    0.45311   0.49999   0.75000   0.00000  Uiso   1.00
Cu957  Cu    0.54689   0.50001   0.75000   0.00000  Uiso   1.00
H958   H     0.52659   0.37578   0.81807   0.00000  Uiso   1.00
H959   H     0.42269   0.53885   0.55491   0.00000  Uiso   1.00
H960   H     0.56244   0.53496   0.86904   0.00000  Uiso   1.00
H961   H     0.60430   0.45261   0.61226   0.00000  Uiso   1.00
H962   H     0.41641   0.46286   0.63013   0.00000  Uiso   1.00
H963   H     0.45994   0.43175   0.64990   0.00000  Uiso   1.00
H964   H     0.41744   0.40766   0.62147   0.00000  Uiso   1.00
H965   H     0.39934   0.40977   0.72836   0.00000  Uiso   1.00
H966   H     0.35850   0.40566   0.69502   0.00000  Uiso   1.00
H967   H     0.37208   0.49653   0.90071   0.00000  Uiso   1.00
H968   H     0.33805   0.55915   0.98910   0.00000  Uiso   1.00
H969   H     0.47015   0.36767   0.68614   0.00000  Uiso   1.00
H970   H     0.47758   0.66351   0.89680   0.00000  Uiso   1.00
H971   H     0.45435   0.61378   0.88072   0.00000  Uiso   1.00
H972   H     0.49730   0.61630   0.91825   0.00000  Uiso   1.00
H973   H     0.53828   0.59515   0.82907   0.00000  Uiso   1.00
H974   H     0.56111   0.64442   0.84250   0.00000  Uiso   1.00
H975   H     0.47152   0.62566   0.68740   0.00000  Uiso   1.00
H976   H     0.61469   0.55716   0.79138   0.00000  Uiso   1.00
H977   H     0.36694   0.55664   0.79247   0.00000  Uiso   1.00
H978   H     0.63055   0.44554   0.70616   0.00000  Uiso   1.00
H979   H     0.61984   0.51482   0.91136   0.00000  Uiso   1.00
H980   H     0.63736   0.48659   0.98711   0.00000  Uiso   1.00
H981   H     0.47071   0.51798   0.59248   0.00000  Uiso   1.00
N982   N     0.38265   0.49999   0.74999   0.00000  Uiso   1.00
N983   N     0.61735   0.50002   0.75000   0.00000  Uiso   1.00
O984   O     0.46042   0.56011   0.75001   0.00000  Uiso   1.00
O985   O     0.37718   0.52609   0.90911   0.00000  Uiso   1.00
O986   O     0.35590   0.55129   0.51383   0.00000  Uiso   1.00
O987   O     0.53961   0.56012   0.75001   0.00000  Uiso   1.00
O988   O     0.44108   0.49998   0.82549   0.00000  Uiso   1.00
O989   O     0.52027   0.49999   0.82549   0.00000  Uiso   1.00
O990   O     0.46039   0.43988   0.75000   0.00000  Uiso   1.00
O991   O     0.53958   0.43989   0.75000   0.00000  Uiso   1.00
O992   O     0.47973   0.50001   0.67451   0.00000  Uiso   1.00
O993   O     0.55892   0.50002   0.67451   0.00000  Uiso   1.00
O994   O     0.62161   0.47099   0.58365   0.00000  Uiso   1.00
C995   C     0.83331   0.57916   0.75203   0.00000  Uiso   1.00
C996   C     0.79507   0.51756   0.90593   0.00000  Uiso   1.00
C997   C     0.84863   0.64726   0.79156   0.00000  Uiso   1.00
C998   C     0.80805   0.50527   0.84964   0.00000  Uiso   1.00
C999   C     0.84829   0.35707   0.78958   0.00000  Uiso   1.00
C1000  C     0.83177   0.37628   0.75201   0.00000  Uiso   1.00
C1001  C     0.81563   0.35295   0.71574   0.00000  Uiso   1.00
C1002  C     0.81675   0.64353   0.71633   0.00000  Uiso   1.00
C1003  C     0.83368   0.62388   0.75343   0.00000  Uiso   1.00
C1004  C     0.97027   0.53150   0.77319   0.00000  Uiso   1.00
C1005  C     0.68624   0.53145   0.77336   0.00000  Uiso   1.00
C1006  C     0.81676   0.52262   0.98805   0.00000  Uiso   1.00
C1007  C     0.69524   0.46804   0.72608   0.00000  Uiso   1.00
C1008  C     0.97959   0.46943   0.72564   0.00000  Uiso   1.00
C1009  C     0.83281   0.42083   0.75020   0.00000  Uiso   1.00
C1010  C     0.85918   0.49886   0.65016   0.00000  Uiso   1.00
C1011  C     0.93425   0.49393   0.50994   0.00000  Uiso   1.00
C1012  C     0.87393   0.49862   0.59326   0.00000  Uiso   1.00
C1013  C     0.74644   0.52656   0.93349   0.00000  Uiso   1.00
C1014  C     0.73444   0.53738   0.98656   0.00000  Uiso   1.00
C1015  C     0.76837   0.53262   0.51378   0.00000  Uiso   1.00
C1016  C     0.71963   0.42815   0.70147   0.00000  Uiso   1.00
C1017  C     0.83115   0.52123   0.93315   0.00000  Uiso   1.00
C1018  C     0.75557   0.43345   0.64780   0.00000  Uiso   1.00
C1019  C     0.86199   0.62804   0.83638   0.00000  Uiso   1.00
C1020  C     0.82012   0.63068   0.88605   0.00000  Uiso   1.00
C1021  C     0.85181   0.51434   0.51466   0.00000  Uiso   1.00
C1022  C     0.90055   0.50767   0.98586   0.00000  Uiso   1.00
C1023  C     0.91531   0.51550   0.93322   0.00000  Uiso   1.00
C1024  C     0.88135   0.52432   0.90790   0.00000  Uiso   1.00
C1025  C     0.83985   0.51101   0.56863   0.00000  Uiso   1.00
C1026  C     0.92105   0.48778   0.56311   0.00000  Uiso   1.00
Cu1027 Cu    0.78645   0.49999   0.75000   0.00000  Uiso   1.00
Cu1028 Cu    0.88022   0.50001   0.75000   0.00000  Uiso   1.00
H1029  H     0.85992   0.37578   0.81807   0.00000  Uiso   1.00
H1030  H     0.75602   0.53885   0.55491   0.00000  Uiso   1.00
H1031  H     0.89578   0.53496   0.86904   0.00000  Uiso   1.00
H1032  H     0.93764   0.45261   0.61226   0.00000  Uiso   1.00
H1033  H     0.74974   0.46286   0.63013   0.00000  Uiso   1.00
H1034  H     0.79327   0.43175   0.64990   0.00000  Uiso   1.00
H1035  H     0.75077   0.40766   0.62147   0.00000  Uiso   1.00
H1036  H     0.73268   0.40977   0.72836   0.00000  Uiso   1.00
H1037  H     0.69183   0.40566   0.69502   0.00000  Uiso   1.00
H1038  H     0.70542   0.49653   0.90071   0.00000  Uiso   1.00
H1039  H     0.67138   0.55915   0.98910   0.00000  Uiso   1.00
H1040  H     0.80349   0.36767   0.68614   0.00000  Uiso   1.00
H1041  H     0.81092   0.66351   0.89680   0.00000  Uiso   1.00
H1042  H     0.78769   0.61378   0.88072   0.00000  Uiso   1.00
H1043  H     0.83064   0.61630   0.91825   0.00000  Uiso   1.00
H1044  H     0.87161   0.59515   0.82907   0.00000  Uiso   1.00
H1045  H     0.89444   0.64442   0.84250   0.00000  Uiso   1.00
H1046  H     0.80486   0.62566   0.68740   0.00000  Uiso   1.00
H1047  H     0.94803   0.55716   0.79138   0.00000  Uiso   1.00
H1048  H     0.70027   0.55664   0.79247   0.00000  Uiso   1.00
H1049  H     0.96388   0.44554   0.70616   0.00000  Uiso   1.00
H1050  H     0.95318   0.51482   0.91136   0.00000  Uiso   1.00
H1051  H     0.97070   0.48659   0.98711   0.00000  Uiso   1.00
H1052  H     0.80404   0.51798   0.59248   0.00000  Uiso   1.00
N1053  N     0.71598   0.49999   0.74999   0.00000  Uiso   1.00
N1054  N     0.95069   0.50002   0.75000   0.00000  Uiso   1.00
O1055  O     0.79375   0.56011   0.75001   0.00000  Uiso   1.00
O1056  O     0.71051   0.52609   0.90911   0.00000  Uiso   1.00
O1057  O     0.68923   0.55129   0.51383   0.00000  Uiso   1.00
O1058  O     0.87294   0.56012   0.75001   0.00000  Uiso   1.00
O1059  O     0.77441   0.49998   0.82549   0.00000  Uiso   1.00
O1060  O     0.85360   0.49999   0.82549   0.00000  Uiso   1.00
O1061  O     0.79373   0.43988   0.75000   0.00000  Uiso   1.00
O1062  O     0.87292   0.43989   0.75000   0.00000  Uiso   1.00
O1063  O     0.81306   0.50001   0.67451   0.00000  Uiso   1.00
O1064  O     0.89225   0.50002   0.67451   0.00000  Uiso   1.00
O1065  O     0.95494   0.47099   0.58365   0.00000  Uiso   1.00
C1066  C     0.16665   0.91250   0.75203   0.00000  Uiso   1.00
C1067  C     0.12840   0.85089   0.90593   0.00000  Uiso   1.00
C1068  C     0.18197   0.98060   0.79156   0.00000  Uiso   1.00
C1069  C     0.14138   0.83860   0.84964   0.00000  Uiso   1.00
C1070  C     0.18162   0.69040   0.78958   0.00000  Uiso   1.00
C1071  C     0.16510   0.70962   0.75201   0.00000  Uiso   1.00
C1072  C     0.14896   0.68629   0.71574   0.00000  Uiso   1.00
C1073  C     0.15009   0.97687   0.71633   0.00000  Uiso   1.00
C1074  C     0.16701   0.95721   0.75343   0.00000  Uiso   1.00
C1075  C     0.30360   0.86483   0.77319   0.00000  Uiso   1.00
C1076  C     0.01958   0.86478   0.77336   0.00000  Uiso   1.00
C1077  C     0.15009   0.85596   0.98805   0.00000  Uiso   1.00
C1078  C     0.02858   0.80137   0.72608   0.00000  Uiso   1.00
C1079  C     0.31292   0.80276   0.72564   0.00000  Uiso   1.00
C1080  C     0.16615   0.75417   0.75020   0.00000  Uiso   1.00
C1081  C     0.19251   0.83220   0.65016   0.00000  Uiso   1.00
C1082  C     0.26758   0.82726   0.50994   0.00000  Uiso   1.00
C1083  C     0.20726   0.83195   0.59326   0.00000  Uiso   1.00
C1084  C     0.07978   0.85989   0.93349   0.00000  Uiso   1.00
C1085  C     0.06777   0.87072   0.98656   0.00000  Uiso   1.00
C1086  C     0.10170   0.86596   0.51378   0.00000  Uiso   1.00
C1087  C     0.05297   0.76149   0.70147   0.00000  Uiso   1.00
C1088  C     0.16448   0.85457   0.93315   0.00000  Uiso   1.00
C1089  C     0.08891   0.76678   0.64780   0.00000  Uiso   1.00
C1090  C     0.19532   0.96137   0.83638   0.00000  Uiso   1.00
C1091  C     0.15345   0.96401   0.88605   0.00000  Uiso   1.00
C1092  C     0.18514   0.84767   0.51466   0.00000  Uiso   1.00
C1093  C     0.23389   0.84101   0.98586   0.00000  Uiso   1.00
C1094  C     0.24865   0.84883   0.93322   0.00000  Uiso   1.00
C1095  C     0.21468   0.85765   0.90790   0.00000  Uiso   1.00
C1096  C     0.17318   0.84434   0.56863   0.00000  Uiso   1.00
C1097  C     0.25438   0.82111   0.56311   0.00000  Uiso   1.00
Cu1098 Cu    0.11978   0.83333   0.75000   0.00000  Uiso   1.00
Cu1099 Cu    0.21355   0.83334   0.75000   0.00000  Uiso   1.00
H1100  H     0.19325   0.70911   0.81807   0.00000  Uiso   1.00
H1101  H     0.08935   0.87218   0.55491   0.00000  Uiso   1.00
H1102  H     0.22911   0.86830   0.86904   0.00000  Uiso   1.00
H1103  H     0.27097   0.78595   0.61226   0.00000  Uiso   1.00
H1104  H     0.08308   0.79620   0.63013   0.00000  Uiso   1.00
H1105  H     0.12660   0.76508   0.64990   0.00000  Uiso   1.00
H1106  H     0.08410   0.74099   0.62147   0.00000  Uiso   1.00
H1107  H     0.06601   0.74310   0.72836   0.00000  Uiso   1.00
H1108  H     0.02517   0.73899   0.69502   0.00000  Uiso   1.00
H1109  H     0.03875   0.82986   0.90071   0.00000  Uiso   1.00
H1110  H     0.00472   0.89248   0.98910   0.00000  Uiso   1.00
H1111  H     0.13682   0.70100   0.68614   0.00000  Uiso   1.00
H1112  H     0.14425   0.99684   0.89680   0.00000  Uiso   1.00
H1113  H     0.12102   0.94711   0.88072   0.00000  Uiso   1.00
H1114  H     0.16397   0.94963   0.91825   0.00000  Uiso   1.00
H1115  H     0.20495   0.92848   0.82907   0.00000  Uiso   1.00
H1116  H     0.22778   0.97775   0.84250   0.00000  Uiso   1.00
H1117  H     0.13819   0.95899   0.68740   0.00000  Uiso   1.00
H1118  H     0.28136   0.89049   0.79138   0.00000  Uiso   1.00
H1119  H     0.03361   0.88998   0.79247   0.00000  Uiso   1.00
H1120  H     0.29721   0.77887   0.70616   0.00000  Uiso   1.00
H1121  H     0.28651   0.84815   0.91136   0.00000  Uiso   1.00
H1122  H     0.30403   0.81992   0.98711   0.00000  Uiso   1.00
H1123  H     0.13737   0.85131   0.59248   0.00000  Uiso   1.00
N1124  N     0.04931   0.83332   0.74999   0.00000  Uiso   1.00
N1125  N     0.28402   0.83335   0.75000   0.00000  Uiso   1.00
O1126  O     0.12708   0.89345   0.75001   0.00000  Uiso   1.00
O1127  O     0.04385   0.85942   0.90911   0.00000  Uiso   1.00
O1128  O     0.02256   0.88462   0.51383   0.00000  Uiso   1.00
O1129  O     0.20627   0.89346   0.75001   0.00000  Uiso   1.00
O1130  O     0.10775   0.83332   0.82549   0.00000  Uiso   1.00
O1131  O     0.18694   0.83333   0.82549   0.00000  Uiso   1.00
O1132  O     0.12706   0.77321   0.75000   0.00000  Uiso   1.00
O1133  O     0.20625   0.77322   0.75000   0.00000  Uiso   1.00
O1134  O     0.14640   0.83334   0.67451   0.00000  Uiso   1.00
O1135  O     0.22559   0.83335   0.67451   0.00000  Uiso   1.00
O1136  O     0.28827   0.80432   0.58365   0.00000  Uiso   1.00
C1137  C     0.49998   0.91250   0.75203   0.00000  Uiso   1.00
C1138  C     0.46174   0.85089   0.90593   0.00000  Uiso   1.00
C1139  C     0.51530   0.98060   0.79156   0.00000  Uiso   1.00
C1140  C     0.47472   0.83860   0.84964   0.00000  Uiso   1.00
C1141  C     0.51496   0.69040   0.78958   0.00000  Uiso   1.00
C1142  C     0.49843   0.70962   0.75201   0.00000  Uiso   1.00
C1143  C     0.48229   0.68629   0.71574   0.00000  Uiso   1.00
C1144  C     0.48342   0.97687   0.71633   0.00000  Uiso   1.00
C1145  C     0.50035   0.95721   0.75343   0.00000  Uiso   1.00
C1146  C     0.63694   0.86483   0.77319   0.00000  Uiso   1.00
C1147  C     0.35291   0.86478   0.77336   0.00000  Uiso   1.00
C1148  C     0.48343   0.85596   0.98805   0.00000  Uiso   1.00
C1149  C     0.36191   0.80137   0.72608   0.00000  Uiso   1.00
C1150  C     0.64626   0.80276   0.72564   0.00000  Uiso   1.00
C1151  C     0.49948   0.75417   0.75020   0.00000  Uiso   1.00
C1152  C     0.52584   0.83220   0.65016   0.00000  Uiso   1.00
C1153  C     0.60091   0.82726   0.50994   0.00000  Uiso   1.00
C1154  C     0.54059   0.83195   0.59326   0.00000  Uiso   1.00
C1155  C     0.41311   0.85989   0.93349   0.00000  Uiso   1.00
C1156  C     0.40111   0.87072   0.98656   0.00000  Uiso   1.00
C1157  C     0.43504   0.86596   0.51378   0.00000  Uiso   1.00
C1158  C     0.38630   0.76149   0.70147   0.00000  Uiso   1.00
C1159  C     0.49782   0.85457   0.93315   0.00000  Uiso   1.00
C1160  C     0.42224   0.76678   0.64780   0.00000  Uiso   1.00
C1161  C     0.52866   0.96137   0.83638   0.00000  Uiso   1.00
C1162  C     0.48679   0.96401   0.88605   0.00000  Uiso   1.00
C1163  C     0.51847   0.84767   0.51466   0.00000  Uiso   1.00
C1164  C     0.56722   0.84101   0.98586   0.00000  Uiso   1.00
C1165  C     0.58198   0.84883   0.93322   0.00000  Uiso   1.00
C1166  C     0.54801   0.85765   0.90790   0.00000  Uiso   1.00
C1167  C     0.50651   0.84434   0.56863   0.00000  Uiso   1.00
C1168  C     0.58772   0.82111   0.56311   0.00000  Uiso   1.00
Cu1169 Cu    0.45311   0.83333   0.75000   0.00000  Uiso   1.00
Cu1170 Cu    0.54689   0.83334   0.75000   0.00000  Uiso   1.00
H1171  H     0.52659   0.70911   0.81807   0.00000  Uiso   1.00
H1172  H     0.42269   0.87218   0.55491   0.00000  Uiso   1.00
H1173  H     0.56244   0.86830   0.86904   0.00000  Uiso   1.00
H1174  H     0.60430   0.78595   0.61226   0.00000  Uiso   1.00
H1175  H     0.41641   0.79620   0.63013   0.00000  Uiso   1.00
H1176  H     0.45994   0.76508   0.64990   0.00000  Uiso   1.00
H1177  H     0.41744   0.74099   0.62147   0.00000  Uiso   1.00
H1178  H     0.39934   0.74310   0.72836   0.00000  Uiso   1.00
H1179  H     0.35850   0.73899   0.69502   0.00000  Uiso   1.00
H1180  H     0.37208   0.82986   0.90071   0.00000  Uiso   1.00
H1181  H     0.33805   0.89248   0.98910   0.00000  Uiso   1.00
H1182  H     0.47015   0.70100   0.68614   0.00000  Uiso   1.00
H1183  H     0.47758   0.99684   0.89680   0.00000  Uiso   1.00
H1184  H     0.45435   0.94711   0.88072   0.00000  Uiso   1.00
H1185  H     0.49730   0.94963   0.91825   0.00000  Uiso   1.00
H1186  H     0.53828   0.92848   0.82907   0.00000  Uiso   1.00
H1187  H     0.56111   0.97775   0.84250   0.00000  Uiso   1.00
H1188  H     0.47152   0.95899   0.68740   0.00000  Uiso   1.00
H1189  H     0.61469   0.89049   0.79138   0.00000  Uiso   1.00
H1190  H     0.36694   0.88998   0.79247   0.00000  Uiso   1.00
H1191  H     0.63055   0.77887   0.70616   0.00000  Uiso   1.00
H1192  H     0.61984   0.84815   0.91136   0.00000  Uiso   1.00
H1193  H     0.63736   0.81992   0.98711   0.00000  Uiso   1.00
H1194  H     0.47071   0.85131   0.59248   0.00000  Uiso   1.00
N1195  N     0.38265   0.83332   0.74999   0.00000  Uiso   1.00
N1196  N     0.61735   0.83335   0.75000   0.00000  Uiso   1.00
O1197  O     0.46042   0.89345   0.75001   0.00000  Uiso   1.00
O1198  O     0.37718   0.85942   0.90911   0.00000  Uiso   1.00
O1199  O     0.35590   0.88462   0.51383   0.00000  Uiso   1.00
O1200  O     0.53961   0.89346   0.75001   0.00000  Uiso   1.00
O1201  O     0.44108   0.83332   0.82549   0.00000  Uiso   1.00
O1202  O     0.52027   0.83333   0.82549   0.00000  Uiso   1.00
O1203  O     0.46039   0.77321   0.75000   0.00000  Uiso   1.00
O1204  O     0.53958   0.77322   0.75000   0.00000  Uiso   1.00
O1205  O     0.47973   0.83334   0.67451   0.00000  Uiso   1.00
O1206  O     0.55892   0.83335   0.67451   0.00000  Uiso   1.00
O1207  O     0.62161   0.80432   0.58365   0.00000  Uiso   1.00
C1208  C     0.83331   0.91250   0.75203   0.00000  Uiso   1.00
C1209  C     0.79507   0.85089   0.90593   0.00000  Uiso   1.00
C1210  C     0.84863   0.98060   0.79156   0.00000  Uiso   1.00
C1211  C     0.80805   0.83860   0.84964   0.00000  Uiso   1.00
C1212  C     0.84829   0.69040   0.78958   0.00000  Uiso   1.00
C1213  C     0.83177   0.70962   0.75201   0.00000  Uiso   1.00
C1214  C     0.81563   0.68629   0.71574   0.00000  Uiso   1.00
C1215  C     0.81675   0.97687   0.71633   0.00000  Uiso   1.00
C1216  C     0.83368   0.95721   0.75343   0.00000  Uiso   1.00
C1217  C     0.97027   0.86483   0.77319   0.00000  Uiso   1.00
C1218  C     0.68624   0.86478   0.77336   0.00000  Uiso   1.00
C1219  C     0.81676   0.85596   0.98805   0.00000  Uiso   1.00
C1220  C     0.69524   0.80137   0.72608   0.00000  Uiso   1.00
C1221  C     0.97959   0.80276   0.72564   0.00000  Uiso   1.00
C1222  C     0.83281   0.75417   0.75020   0.00000  Uiso   1.00
C1223  C     0.85918   0.83220   0.65016   0.00000  Uiso   1.00
C1224  C     0.93425   0.82726   0.50994   0.00000  Uiso   1.00
C1225  C     0.87393   0.83195   0.59326   0.00000  Uiso   1.00
C1226  C     0.74644   0.85989   0.93349   0.00000  Uiso   1.00
C1227  C     0.73444   0.87072   0.98656   0.00000  Uiso   1.00
C1228  C     0.76837   0.86596   0.51378   0.00000  Uiso   1.00
C1229  C     0.71963   0.76149   0.70147   0.00000  Uiso   1.00
C1230  C     0.83115   0.85457   0.93315   0.00000  Uiso   1.00
C1231  C     0.75557   0.76678   0.64780   0.00000  Uiso   1.00
C1232  C     0.86199   0.96137   0.83638   0.00000  Uiso   1.00
C1233  C     0.82012   0.96401   0.88605   0.00000  Uiso   1.00
C1234  C     0.85181   0.84767   0.51466   0.00000  Uiso   1.00
C1235  C     0.90055   0.84101   0.98586   0.00000  Uiso   1.00
C1236  C     0.91531   0.84883   0.93322   0.00000  Uiso   1.00
C1237  C     0.88135   0.85765   0.90790   0.00000  Uiso   1.00
C1238  C     0.83985   0.84434   0.56863   0.00000  Uiso   1.00
C1239  C     0.92105   0.82111   0.56311   0.00000  Uiso   1.00
Cu1240 Cu    0.78645   0.83333   0.75000   0.00000  Uiso   1.00
Cu1241 Cu    0.88022   0.83334   0.75000   0.00000  Uiso   1.00
H1242  H     0.85992   0.70911   0.81807   0.00000  Uiso   1.00
H1243  H     0.75602   0.87218   0.55491   0.00000  Uiso   1.00
H1244  H     0.89578   0.86830   0.86904   0.00000  Uiso   1.00
H1245  H     0.93764   0.78595   0.61226   0.00000  Uiso   1.00
H1246  H     0.74974   0.79620   0.63013   0.00000  Uiso   1.00
H1247  H     0.79327   0.76508   0.64990   0.00000  Uiso   1.00
H1248  H     0.75077   0.74099   0.62147   0.00000  Uiso   1.00
H1249  H     0.73268   0.74310   0.72836   0.00000  Uiso   1.00
H1250  H     0.69183   0.73899   0.69502   0.00000  Uiso   1.00
H1251  H     0.70542   0.82986   0.90071   0.00000  Uiso   1.00
H1252  H     0.67138   0.89248   0.98910   0.00000  Uiso   1.00
H1253  H     0.80349   0.70100   0.68614   0.00000  Uiso   1.00
H1254  H     0.81092   0.99684   0.89680   0.00000  Uiso   1.00
H1255  H     0.78769   0.94711   0.88072   0.00000  Uiso   1.00
H1256  H     0.83064   0.94963   0.91825   0.00000  Uiso   1.00
H1257  H     0.87161   0.92848   0.82907   0.00000  Uiso   1.00
H1258  H     0.89444   0.97775   0.84250   0.00000  Uiso   1.00
H1259  H     0.80486   0.95899   0.68740   0.00000  Uiso   1.00
H1260  H     0.94803   0.89049   0.79138   0.00000  Uiso   1.00
H1261  H     0.70027   0.88998   0.79247   0.00000  Uiso   1.00
H1262  H     0.96388   0.77887   0.70616   0.00000  Uiso   1.00
H1263  H     0.95318   0.84815   0.91136   0.00000  Uiso   1.00
H1264  H     0.97070   0.81992   0.98711   0.00000  Uiso   1.00
H1265  H     0.80404   0.85131   0.59248   0.00000  Uiso   1.00
N1266  N     0.71598   0.83332   0.74999   0.00000  Uiso   1.00
N1267  N     0.95069   0.83335   0.75000   0.00000  Uiso   1.00
O1268  O     0.79375   0.89345   0.75001   0.00000  Uiso   1.00
O1269  O     0.71051   0.85942   0.90911   0.00000  Uiso   1.00
O1270  O     0.68923   0.88462   0.51383   0.00000  Uiso   1.00
O1271  O     0.87294   0.89346   0.75001   0.00000  Uiso   1.00
O1272  O     0.77441   0.83332   0.82549   0.00000  Uiso   1.00
O1273  O     0.85360   0.83333   0.82549   0.00000  Uiso   1.00
O1274  O     0.79373   0.77321   0.75000   0.00000  Uiso   1.00
O1275  O     0.87292   0.77322   0.75000   0.00000  Uiso   1.00
O1276  O     0.81306   0.83334   0.67451   0.00000  Uiso   1.00
O1277  O     0.89225   0.83335   0.67451   0.00000  Uiso   1.00
O1278  O     0.95494   0.80432   0.58365   0.00000  Uiso   1.00
loop_
_geom_bond_atom_site_label_1
_geom_bond_atom_site_label_2
_geom_bond_distance
_geom_bond_site_symmetry_2
_ccdc_geom_bond_type
C1     C9      1.443   .     S
C1     O64     1.297   .     A
C1     O61     1.294   .     A
C2     C4      1.499   .     S
C2     C23     1.432   .     A
C2     C19     1.419   .     A
C3     C9      1.416   .     A
C3     C25     1.516   .     S
C3     C218    1.395   .     S
C4     O66     1.301   .     A
C4     O65     1.316   .     A
C5     H35     1.085   .     S
C5     C6      1.397   .     A
C5     C429    1.395   1_545 S
C6     C7      1.393   .     A
C6     C15     1.439   .     S
C7     H46     1.080   .     S
C7     C434    1.382   1_545 S
C8     H52     1.084   .     S
C8     C9      1.400   .     A
C8     C220    1.382   .     S
C10    N60     1.371   .     A
C10    H53     1.080   .     S
C10    C82     1.421   .     S
C11    H54     1.081   .     S
C11    N59     1.367   .     A
C11    C152    1.421   1_455 S
C12    C23     1.416   .     A
C12    C660    1.410   .     S
C12    C666    1.427   .     S
C13    N59     1.410   .     A
C13    C22     1.527   .     S
C13    C156    1.415   1_455 S
C14    N60     1.341   .     A
C14    H55     1.082   .     S
C14    C84     1.415   .     S
C15    O67     1.298   .     A
C15    O68     1.292   .     A
C16    O70     1.299   .     A
C16    C18     1.468   .     S
C16    O69     1.303   .     A
C17    C32     1.389   .     A
C17    C667    1.397   1_554 S
C17    H696    1.083   1_554 S
C18    C32     1.416   .     A
C18    C31     1.402   .     A
C19    C20     1.408   .     A
C19    O62     1.373   .     S
C20    C660    1.391   .     S
C20    O702    1.380   .     S
C21    H36     1.077   .     S
C21    C651    1.410   1_554 S
C21    C659    1.391   1_554 S
C22    H42     1.097   .     S
C22    C24     1.529   .     S
C22    H43     1.113   .     S
C23    C30     1.413   .     A
C24    H41     1.111   .     S
C24    H40     1.105   .     S
C24    H39     1.110   .     S
C25    H51     1.112   .     S
C25    C26     1.526   .     S
C25    H50     1.103   .     S
C26    H48     1.111   .     S
C26    H47     1.111   .     S
C26    H49     1.111   .     S
C27    C31     1.400   .     A
C27    C651    1.427   1_554 S
C27    C667    1.416   1_554 S
C28    C29     1.385   .     A
C28    C656    1.397   .     S
C28    C666    1.416   .     S
C29    H56     1.082   .     S
C29    C30     1.380   .     A
C30    H37     1.071   .     S
C31    H58     1.074   .     S
C32    O71     1.378   .     S
Cu33   O69     1.956   .     S
Cu33   O65     1.961   .     S
Cu33   N59     2.028   .     S
Cu33   O61     1.946   .     S
Cu33   Cu34    2.699   .     S
Cu33   O67     1.957   .     S
Cu34   N60     2.028   .     S
Cu34   O66     1.956   .     S
Cu34   O64     1.957   .     S
Cu34   O68     1.946   .     S
Cu34   O70     1.961   .     S
H38    O71     0.990   .     S
H44    O62     0.992   .     S
H45    O702    0.990   .     S
H57    C656    1.083   .     S
O63    C659    1.380   1_554 S
O63    H684    0.990   1_554 S
C72    C80     1.443   .     S
C72    O135    1.297   .     A
C72    O132    1.294   .     A
C73    C75     1.499   .     S
C73    C94     1.432   .     A
C73    C90     1.419   .     A
C74    C80     1.416   .     A
C74    C96     1.516   .     S
C74    C289    1.395   .     S
C75    O137    1.301   .     A
C75    O136    1.316   .     A
C76    H106    1.085   .     S
C76    C77     1.397   .     A
C76    C500    1.395   1_545 S
C77    C78     1.393   .     A
C77    C86     1.439   .     S
C78    H117    1.080   .     S
C78    C505    1.382   1_545 S
C79    H123    1.084   .     S
C79    C80     1.400   .     A
C79    C291    1.382   .     S
C81    N131    1.371   .     A
C81    H124    1.080   .     S
C81    C153    1.421   .     S
C82    H125    1.081   .     S
C82    N130    1.367   .     A
C83    C94     1.416   .     A
C83    C731    1.410   .     S
C83    C737    1.427   .     S
C84    N130    1.410   .     A
C84    C93     1.527   .     S
C85    N131    1.341   .     A
C85    H126    1.082   .     S
C85    C155    1.415   .     S
C86    O138    1.298   .     A
C86    O139    1.292   .     A
C87    O141    1.299   .     A
C87    C89     1.468   .     S
C87    O140    1.303   .     A
C88    C103    1.389   .     A
C88    C738    1.397   1_554 S
C88    H767    1.083   1_554 S
C89    C103    1.416   .     A
C89    C102    1.402   .     A
C90    C91     1.408   .     A
C90    O133    1.373   .     S
C91    C731    1.391   .     S
C91    O773    1.380   .     S
C92    H107    1.077   .     S
C92    C722    1.410   1_554 S
C92    C730    1.391   1_554 S
C93    H113    1.097   .     S
C93    C95     1.529   .     S
C93    H114    1.113   .     S
C94    C101    1.413   .     A
C95    H112    1.111   .     S
C95    H111    1.105   .     S
C95    H110    1.110   .     S
C96    H122    1.112   .     S
C96    C97     1.526   .     S
C96    H121    1.103   .     S
C97    H119    1.111   .     S
C97    H118    1.111   .     S
C97    H120    1.111   .     S
C98    C102    1.400   .     A
C98    C722    1.427   1_554 S
C98    C738    1.416   1_554 S
C99    C100    1.385   .     A
C99    C727    1.397   .     S
C99    C737    1.416   .     S
C100   H127    1.082   .     S
C100   C101    1.380   .     A
C101   H108    1.071   .     S
C102   H129    1.074   .     S
C103   O142    1.378   .     S
Cu104  O140    1.956   .     S
Cu104  O136    1.961   .     S
Cu104  N130    2.028   .     S
Cu104  O132    1.946   .     S
Cu104  Cu105   2.699   .     S
Cu104  O138    1.957   .     S
Cu105  N131    2.028   .     S
Cu105  O137    1.956   .     S
Cu105  O135    1.957   .     S
Cu105  O139    1.946   .     S
Cu105  O141    1.961   .     S
H109   O142    0.990   .     S
H115   O133    0.992   .     S
H116   O773    0.990   .     S
H128   C727    1.083   .     S
O134   C730    1.380   1_554 S
O134   H755    0.990   1_554 S
C143   C151    1.443   .     S
C143   O206    1.297   .     A
C143   O203    1.294   .     A
C144   C146    1.499   .     S
C144   C165    1.432   .     A
C144   C161    1.419   .     A
C145   C151    1.416   .     A
C145   C167    1.516   .     S
C145   C360    1.395   .     S
C146   O208    1.301   .     A
C146   O207    1.316   .     A
C147   H177    1.085   .     S
C147   C148    1.397   .     A
C147   C571    1.395   1_545 S
C148   C149    1.393   .     A
C148   C157    1.439   .     S
C149   H188    1.080   .     S
C149   C576    1.382   1_545 S
C150   H194    1.084   .     S
C150   C151    1.400   .     A
C150   C362    1.382   .     S
C152   N202    1.371   .     A
C152   H195    1.080   .     S
C152   C11     1.421   1_655 S
C153   H196    1.081   .     S
C153   N201    1.367   .     A
C154   C165    1.416   .     A
C154   C802    1.410   .     S
C154   C808    1.427   .     S
C155   N201    1.410   .     A
C155   C164    1.527   .     S
C156   N202    1.341   .     A
C156   H197    1.082   .     S
C156   C13     1.415   1_655 S
C157   O209    1.298   .     A
C157   O210    1.292   .     A
C158   O212    1.299   .     A
C158   C160    1.468   .     S
C158   O211    1.303   .     A
C159   C174    1.389   .     A
C159   C809    1.397   1_554 S
C159   H838    1.083   1_554 S
C160   C174    1.416   .     A
C160   C173    1.402   .     A
C161   C162    1.408   .     A
C161   O204    1.373   .     S
C162   C802    1.391   .     S
C162   O844    1.380   .     S
C163   H178    1.077   .     S
C163   C793    1.410   1_554 S
C163   C801    1.391   1_554 S
C164   H184    1.097   .     S
C164   C166    1.529   .     S
C164   H185    1.113   .     S
C165   C172    1.413   .     A
C166   H183    1.111   .     S
C166   H182    1.105   .     S
C166   H181    1.110   .     S
C167   H193    1.112   .     S
C167   C168    1.526   .     S
C167   H192    1.103   .     S
C168   H190    1.111   .     S
C168   H189    1.111   .     S
C168   H191    1.111   .     S
C169   C173    1.400   .     A
C169   C793    1.427   1_554 S
C169   C809    1.416   1_554 S
C170   C171    1.385   .     A
C170   C798    1.397   .     S
C170   C808    1.416   .     S
C171   H198    1.082   .     S
C171   C172    1.380   .     A
C172   H179    1.071   .     S
C173   H200    1.074   .     S
C174   O213    1.378   .     S
Cu175  O211    1.956   .     S
Cu175  O207    1.961   .     S
Cu175  N201    2.028   .     S
Cu175  O203    1.946   .     S
Cu175  Cu176   2.699   .     S
Cu175  O209    1.957   .     S
Cu176  N202    2.028   .     S
Cu176  O208    1.956   .     S
Cu176  O206    1.957   .     S
Cu176  O210    1.946   .     S
Cu176  O212    1.961   .     S
H180   O213    0.990   .     S
H186   O204    0.992   .     S
H187   O844    0.990   .     S
H199   C798    1.083   .     S
O205   C801    1.380   1_554 S
O205   H826    0.990   1_554 S
C214   C222    1.443   .     S
C214   O277    1.297   .     A
C214   O274    1.294   .     A
C215   C217    1.499   .     S
C215   C236    1.432   .     A
C215   C232    1.419   .     A
C216   C222    1.416   .     A
C216   C238    1.516   .     S
C216   C431    1.395   .     S
C217   O279    1.301   .     A
C217   O278    1.316   .     A
C218   H248    1.085   .     S
C218   C219    1.397   .     A
C219   C220    1.393   .     A
C219   C228    1.439   .     S
C220   H259    1.080   .     S
C221   H265    1.084   .     S
C221   C222    1.400   .     A
C221   C433    1.382   .     S
C223   N273    1.371   .     A
C223   H266    1.080   .     S
C223   C295    1.421   .     S
C224   H267    1.081   .     S
C224   N272    1.367   .     A
C224   C365    1.421   1_455 S
C225   C236    1.416   .     A
C225   C873    1.410   .     S
C225   C879    1.427   .     S
C226   N272    1.410   .     A
C226   C235    1.527   .     S
C226   C369    1.415   1_455 S
C227   N273    1.341   .     A
C227   H268    1.082   .     S
C227   C297    1.415   .     S
C228   O280    1.298   .     A
C228   O281    1.292   .     A
C229   O283    1.299   .     A
C229   C231    1.468   .     S
C229   O282    1.303   .     A
C230   C245    1.389   .     A
C230   C880    1.397   1_554 S
C230   H909    1.083   1_554 S
C231   C245    1.416   .     A
C231   C244    1.402   .     A
C232   C233    1.408   .     A
C232   O275    1.373   .     S
C233   C873    1.391   .     S
C233   O915    1.380   .     S
C234   H249    1.077   .     S
C234   C864    1.410   1_554 S
C234   C872    1.391   1_554 S
C235   H255    1.097   .     S
C235   C237    1.529   .     S
C235   H256    1.113   .     S
C236   C243    1.413   .     A
C237   H254    1.111   .     S
C237   H253    1.105   .     S
C237   H252    1.110   .     S
C238   H264    1.112   .     S
C238   C239    1.526   .     S
C238   H263    1.103   .     S
C239   H261    1.111   .     S
C239   H260    1.111   .     S
C239   H262    1.111   .     S
C240   C244    1.400   .     A
C240   C864    1.427   1_554 S
C240   C880    1.416   1_554 S
C241   C242    1.385   .     A
C241   C869    1.397   .     S
C241   C879    1.416   .     S
C242   H269    1.082   .     S
C242   C243    1.380   .     A
C243   H250    1.071   .     S
C244   H271    1.074   .     S
C245   O284    1.378   .     S
Cu246  O282    1.956   .     S
Cu246  O278    1.961   .     S
Cu246  N272    2.028   .     S
Cu246  O274    1.946   .     S
Cu246  Cu247   2.699   .     S
Cu246  O280    1.957   .     S
Cu247  N273    2.028   .     S
Cu247  O279    1.956   .     S
Cu247  O277    1.957   .     S
Cu247  O281    1.946   .     S
Cu247  O283    1.961   .     S
H251   O284    0.990   .     S
H257   O275    0.992   .     S
H258   O915    0.990   .     S
H270   C869    1.083   .     S
O276   C872    1.380   1_554 S
O276   H897    0.990   1_554 S
C285   C293    1.443   .     S
C285   O348    1.297   .     A
C285   O345    1.294   .     A
C286   C288    1.499   .     S
C286   C307    1.432   .     A
C286   C303    1.419   .     A
C287   C293    1.416   .     A
C287   C309    1.516   .     S
C287   C502    1.395   .     S
C288   O350    1.301   .     A
C288   O349    1.316   .     A
C289   H319    1.085   .     S
C289   C290    1.397   .     A
C290   C291    1.393   .     A
C290   C299    1.439   .     S
C291   H330    1.080   .     S
C292   H336    1.084   .     S
C292   C293    1.400   .     A
C292   C504    1.382   .     S
C294   N344    1.371   .     A
C294   H337    1.080   .     S
C294   C366    1.421   .     S
C295   H338    1.081   .     S
C295   N343    1.367   .     A
C296   C307    1.416   .     A
C296   C944    1.410   .     S
C296   C950    1.427   .     S
C297   N343    1.410   .     A
C297   C306    1.527   .     S
C298   N344    1.341   .     A
C298   H339    1.082   .     S
C298   C368    1.415   .     S
C299   O351    1.298   .     A
C299   O352    1.292   .     A
C300   O354    1.299   .     A
C300   C302    1.468   .     S
C300   O353    1.303   .     A
C301   C316    1.389   .     A
C301   C951    1.397   1_554 S
C301   H980    1.083   1_554 S
C302   C316    1.416   .     A
C302   C315    1.402   .     A
C303   C304    1.408   .     A
C303   O346    1.373   .     S
C304   C944    1.391   .     S
C304   O986    1.380   .     S
C305   H320    1.077   .     S
C305   C935    1.410   1_554 S
C305   C943    1.391   1_554 S
C306   H326    1.097   .     S
C306   C308    1.529   .     S
C306   H327    1.113   .     S
C307   C314    1.413   .     A
C308   H325    1.111   .     S
C308   H324    1.105   .     S
C308   H323    1.110   .     S
C309   H335    1.112   .     S
C309   C310    1.526   .     S
C309   H334    1.103   .     S
C310   H332    1.111   .     S
C310   H331    1.111   .     S
C310   H333    1.111   .     S
C311   C315    1.400   .     A
C311   C935    1.427   1_554 S
C311   C951    1.416   1_554 S
C312   C313    1.385   .     A
C312   C940    1.397   .     S
C312   C950    1.416   .     S
C313   H340    1.082   .     S
C313   C314    1.380   .     A
C314   H321    1.071   .     S
C315   H342    1.074   .     S
C316   O355    1.378   .     S
Cu317  O353    1.956   .     S
Cu317  O349    1.961   .     S
Cu317  N343    2.028   .     S
Cu317  O345    1.946   .     S
Cu317  Cu318   2.699   .     S
Cu317  O351    1.957   .     S
Cu318  N344    2.028   .     S
Cu318  O350    1.956   .     S
Cu318  O348    1.957   .     S
Cu318  O352    1.946   .     S
Cu318  O354    1.961   .     S
H322   O355    0.990   .     S
H328   O346    0.992   .     S
H329   O986    0.990   .     S
H341   C940    1.083   .     S
O347   C943    1.380   1_554 S
O347   H968    0.990   1_554 S
C356   C364    1.443   .     S
C356   O419    1.297   .     A
C356   O416    1.294   .     A
C357   C359    1.499   .     S
C357   C378    1.432   .     A
C357   C374    1.419   .     A
C358   C364    1.416   .     A
C358   C380    1.516   .     S
C358   C573    1.395   .     S
C359   O421    1.301   .     A
C359   O420    1.316   .     A
C360   H390    1.085   .     S
C360   C361    1.397   .     A
C361   C362    1.393   .     A
C361   C370    1.439   .     S
C362   H401    1.080   .     S
C363   H407    1.084   .     S
C363   C364    1.400   .     A
C363   C575    1.382   .     S
C365   N415    1.371   .     A
C365   H408    1.080   .     S
C365   C224    1.421   1_655 S
C366   H409    1.081   .     S
C366   N414    1.367   .     A
C367   C378    1.416   .     A
C367   C1015   1.410   .     S
C367   C1021   1.427   .     S
C368   N414    1.410   .     A
C368   C377    1.527   .     S
C369   N415    1.341   .     A
C369   H410    1.082   .     S
C369   C226    1.415   1_655 S
C370   O422    1.298   .     A
C370   O423    1.292   .     A
C371   O425    1.299   .     A
C371   C373    1.468   .     S
C371   O424    1.303   .     A
C372   C387    1.389   .     A
C372   C1022   1.397   1_554 S
C372   H1051   1.083   1_554 S
C373   C387    1.416   .     A
C373   C386    1.402   .     A
C374   C375    1.408   .     A
C374   O417    1.373   .     S
C375   C1015   1.391   .     S
C375   O1057   1.380   .     S
C376   H391    1.077   .     S
C376   C1006   1.410   1_554 S
C376   C1014   1.391   1_554 S
C377   H397    1.097   .     S
C377   C379    1.529   .     S
C377   H398    1.113   .     S
C378   C385    1.413   .     A
C379   H396    1.111   .     S
C379   H395    1.105   .     S
C379   H394    1.110   .     S
C380   H406    1.112   .     S
C380   C381    1.526   .     S
C380   H405    1.103   .     S
C381   H403    1.111   .     S
C381   H402    1.111   .     S
C381   H404    1.111   .     S
C382   C386    1.400   .     A
C382   C1006   1.427   1_554 S
C382   C1022   1.416   1_554 S
C383   C384    1.385   .     A
C383   C1011   1.397   .     S
C383   C1021   1.416   .     S
C384   H411    1.082   .     S
C384   C385    1.380   .     A
C385   H392    1.071   .     S
C386   H413    1.074   .     S
C387   O426    1.378   .     S
Cu388  O424    1.956   .     S
Cu388  O420    1.961   .     S
Cu388  N414    2.028   .     S
Cu388  O416    1.946   .     S
Cu388  Cu389   2.699   .     S
Cu388  O422    1.957   .     S
Cu389  N415    2.028   .     S
Cu389  O421    1.956   .     S
Cu389  O419    1.957   .     S
Cu389  O423    1.946   .     S
Cu389  O425    1.961   .     S
H393   O426    0.990   .     S
H399   O417    0.992   .     S
H400   O1057   0.990   .     S
H412   C1011   1.083   .     S
O418   C1014   1.380   1_554 S
O418   H1039   0.990   1_554 S
C427   C435    1.443   .     S
C427   O490    1.297   .     A
C427   O487    1.294   .     A
C428   C430    1.499   .     S
C428   C449    1.432   .     A
C428   C445    1.419   .     A
C429   C435    1.416   .     A
C429   C451    1.516   .     S
C429   C5      1.395   1_565 S
C430   O492    1.301   .     A
C430   O491    1.316   .     A
C431   H461    1.085   .     S
C431   C432    1.397   .     A
C432   C433    1.393   .     A
C432   C441    1.439   .     S
C433   H472    1.080   .     S
C434   H478    1.084   .     S
C434   C435    1.400   .     A
C434   C7      1.382   1_565 S
C436   N486    1.371   .     A
C436   H479    1.080   .     S
C436   C508    1.421   .     S
C437   H480    1.081   .     S
C437   N485    1.367   .     A
C437   C578    1.421   1_455 S
C438   C449    1.416   .     A
C438   C1086   1.410   .     S
C438   C1092   1.427   .     S
C439   N485    1.410   .     A
C439   C448    1.527   .     S
C439   C582    1.415   1_455 S
C440   N486    1.341   .     A
C440   H481    1.082   .     S
C440   C510    1.415   .     S
C441   O493    1.298   .     A
C441   O494    1.292   .     A
C442   O496    1.299   .     A
C442   C444    1.468   .     S
C442   O495    1.303   .     A
C443   C458    1.389   .     A
C443   C1093   1.397   1_554 S
C443   H1122   1.083   1_554 S
C444   C458    1.416   .     A
C444   C457    1.402   .     A
C445   C446    1.408   .     A
C445   O488    1.373   .     S
C446   C1086   1.391   .     S
C446   O1128   1.380   .     S
C447   H462    1.077   .     S
C447   C1077   1.410   1_554 S
C447   C1085   1.391   1_554 S
C448   H468    1.097   .     S
C448   C450    1.529   .     S
C448   H469    1.113   .     S
C449   C456    1.413   .     A
C450   H467    1.111   .     S
C450   H466    1.105   .     S
C450   H465    1.110   .     S
C451   H477    1.112   .     S
C451   C452    1.526   .     S
C451   H476    1.103   .     S
C452   H474    1.111   .     S
C452   H473    1.111   .     S
C452   H475    1.111   .     S
C453   C457    1.400   .     A
C453   C1077   1.427   1_554 S
C453   C1093   1.416   1_554 S
C454   C455    1.385   .     A
C454   C1082   1.397   .     S
C454   C1092   1.416   .     S
C455   H482    1.082   .     S
C455   C456    1.380   .     A
C456   H463    1.071   .     S
C457   H484    1.074   .     S
C458   O497    1.378   .     S
Cu459  O495    1.956   .     S
Cu459  O491    1.961   .     S
Cu459  N485    2.028   .     S
Cu459  O487    1.946   .     S
Cu459  Cu460   2.699   .     S
Cu459  O493    1.957   .     S
Cu460  N486    2.028   .     S
Cu460  O492    1.956   .     S
Cu460  O490    1.957   .     S
Cu460  O494    1.946   .     S
Cu460  O496    1.961   .     S
H464   O497    0.990   .     S
H470   O488    0.992   .     S
H471   O1128   0.990   .     S
H483   C1082   1.083   .     S
O489   C1085   1.380   1_554 S
O489   H1110   0.990   1_554 S
C498   C506    1.443   .     S
C498   O561    1.297   .     A
C498   O558    1.294   .     A
C499   C501    1.499   .     S
C499   C520    1.432   .     A
C499   C516    1.419   .     A
C500   C506    1.416   .     A
C500   C522    1.516   .     S
C500   C76     1.395   1_565 S
C501   O563    1.301   .     A
C501   O562    1.316   .     A
C502   H532    1.085   .     S
C502   C503    1.397   .     A
C503   C504    1.393   .     A
C503   C512    1.439   .     S
C504   H543    1.080   .     S
C505   H549    1.084   .     S
C505   C506    1.400   .     A
C505   C78     1.382   1_565 S
C507   N557    1.371   .     A
C507   H550    1.080   .     S
C507   C579    1.421   .     S
C508   H551    1.081   .     S
C508   N556    1.367   .     A
C509   C520    1.416   .     A
C509   C1157   1.410   .     S
C509   C1163   1.427   .     S
C510   N556    1.410   .     A
C510   C519    1.527   .     S
C511   N557    1.341   .     A
C511   H552    1.082   .     S
C511   C581    1.415   .     S
C512   O564    1.298   .     A
C512   O565    1.292   .     A
C513   O567    1.299   .     A
C513   C515    1.468   .     S
C513   O566    1.303   .     A
C514   C529    1.389   .     A
C514   C1164   1.397   1_554 S
C514   H1193   1.083   1_554 S
C515   C529    1.416   .     A
C515   C528    1.402   .     A
C516   C517    1.408   .     A
C516   O559    1.373   .     S
C517   C1157   1.391   .     S
C517   O1199   1.380   .     S
C518   H533    1.077   .     S
C518   C1148   1.410   1_554 S
C518   C1156   1.391   1_554 S
C519   H539    1.097   .     S
C519   C521    1.529   .     S
C519   H540    1.113   .     S
C520   C527    1.413   .     A
C521   H538    1.111   .     S
C521   H537    1.105   .     S
C521   H536    1.110   .     S
C522   H548    1.112   .     S
C522   C523    1.526   .     S
C522   H547    1.103   .     S
C523   H545    1.111   .     S
C523   H544    1.111   .     S
C523   H546    1.111   .     S
C524   C528    1.400   .     A
C524   C1148   1.427   1_554 S
C524   C1164   1.416   1_554 S
C525   C526    1.385   .     A
C525   C1153   1.397   .     S
C525   C1163   1.416   .     S
C526   H553    1.082   .     S
C526   C527    1.380   .     A
C527   H534    1.071   .     S
C528   H555    1.074   .     S
C529   O568    1.378   .     S
Cu530  O566    1.956   .     S
Cu530  O562    1.961   .     S
Cu530  N556    2.028   .     S
Cu530  O558    1.946   .     S
Cu530  Cu531   2.699   .     S
Cu530  O564    1.957   .     S
Cu531  N557    2.028   .     S
Cu531  O563    1.956   .     S
Cu531  O561    1.957   .     S
Cu531  O565    1.946   .     S
Cu531  O567    1.961   .     S
H535   O568    0.990   .     S
H541   O559    0.992   .     S
H542   O1199   0.990   .     S
H554   C1153   1.083   .     S
O560   C1156   1.380   1_554 S
O560   H1181   0.990   1_554 S
C569   C577    1.443   .     S
C569   O632    1.297   .     A
C569   O629    1.294   .     A
C570   C572    1.499   .     S
C570   C591    1.432   .     A
C570   C587    1.419   .     A
C571   C577    1.416   .     A
C571   C593    1.516   .     S
C571   C147    1.395   1_565 S
C572   O634    1.301   .     A
C572   O633    1.316   .     A
C573   H603    1.085   .     S
C573   C574    1.397   .     A
C574   C575    1.393   .     A
C574   C583    1.439   .     S
C575   H614    1.080   .     S
C576   H620    1.084   .     S
C576   C577    1.400   .     A
C576   C149    1.382   1_565 S
C578   N628    1.371   .     A
C578   H621    1.080   .     S
C578   C437    1.421   1_655 S
C579   H622    1.081   .     S
C579   N627    1.367   .     A
C580   C591    1.416   .     A
C580   C1228   1.410   .     S
C580   C1234   1.427   .     S
C581   N627    1.410   .     A
C581   C590    1.527   .     S
C582   N628    1.341   .     A
C582   H623    1.082   .     S
C582   C439    1.415   1_655 S
C583   O635    1.298   .     A
C583   O636    1.292   .     A
C584   O638    1.299   .     A
C584   C586    1.468   .     S
C584   O637    1.303   .     A
C585   C600    1.389   .     A
C585   C1235   1.397   1_554 S
C585   H1264   1.083   1_554 S
C586   C600    1.416   .     A
C586   C599    1.402   .     A
C587   C588    1.408   .     A
C587   O630    1.373   .     S
C588   C1228   1.391   .     S
C588   O1270   1.380   .     S
C589   H604    1.077   .     S
C589   C1219   1.410   1_554 S
C589   C1227   1.391   1_554 S
C590   H610    1.097   .     S
C590   C592    1.529   .     S
C590   H611    1.113   .     S
C591   C598    1.413   .     A
C592   H609    1.111   .     S
C592   H608    1.105   .     S
C592   H607    1.110   .     S
C593   H619    1.112   .     S
C593   C594    1.526   .     S
C593   H618    1.103   .     S
C594   H616    1.111   .     S
C594   H615    1.111   .     S
C594   H617    1.111   .     S
C595   C599    1.400   .     A
C595   C1219   1.427   1_554 S
C595   C1235   1.416   1_554 S
C596   C597    1.385   .     A
C596   C1224   1.397   .     S
C596   C1234   1.416   .     S
C597   H624    1.082   .     S
C597   C598    1.380   .     A
C598   H605    1.071   .     S
C599   H626    1.074   .     S
C600   O639    1.378   .     S
Cu601  O637    1.956   .     S
Cu601  O633    1.961   .     S
Cu601  N627    2.028   .     S
Cu601  O629    1.946   .     S
Cu601  Cu602   2.699   .     S
Cu601  O635    1.957   .     S
Cu602  N628    2.028   .     S
Cu602  O634    1.956   .     S
Cu602  O632    1.957   .     S
Cu602  O636    1.946   .     S
Cu602  O638    1.961   .     S
H606   O639    0.990   .     S
H612   O630    0.992   .     S
H613   O1270   0.990   .     S
H625   C1224   1.083   .     S
O631   C1227   1.380   1_554 S
O631   H1252   0.990   1_554 S
C640   C648    1.443   .     S
C640   O703    1.297   .     A
C640   O700    1.294   .     A
C641   C643    1.499   .     S
C641   C662    1.432   .     A
C641   C658    1.419   .     A
C642   C648    1.416   .     A
C642   C664    1.516   .     S
C642   C857    1.395   .     S
C643   O705    1.301   .     A
C643   O704    1.316   .     A
C644   H674    1.085   .     S
C644   C645    1.397   .     A
C644   C1068   1.395   1_545 S
C645   C646    1.393   .     A
C645   C654    1.439   .     S
C646   H685    1.080   .     S
C646   C1073   1.382   1_545 S
C647   H691    1.084   .     S
C647   C648    1.400   .     A
C647   C859    1.382   .     S
C649   N699    1.371   .     A
C649   H692    1.080   .     S
C649   C721    1.421   .     S
C650   H693    1.081   .     S
C650   N698    1.367   .     A
C650   C791    1.421   1_455 S
C651   C662    1.416   .     A
C651   C21     1.410   1_556 S
C651   C27     1.427   1_556 S
C652   N698    1.410   .     A
C652   C661    1.527   .     S
C652   C795    1.415   1_455 S
C653   N699    1.341   .     A
C653   H694    1.082   .     S
C653   C723    1.415   .     S
C654   O706    1.298   .     A
C654   O707    1.292   .     A
C655   O709    1.299   .     A
C655   C657    1.468   .     S
C655   O708    1.303   .     A
C656   C671    1.389   .     A
C657   C671    1.416   .     A
C657   C670    1.402   .     A
C658   C659    1.408   .     A
C658   O701    1.373   .     S
C659   C21     1.391   1_556 S
C659   O63     1.380   1_556 S
C660   H675    1.077   .     S
C661   H681    1.097   .     S
C661   C663    1.529   .     S
C661   H682    1.113   .     S
C662   C669    1.413   .     A
C663   H680    1.111   .     S
C663   H679    1.105   .     S
C663   H678    1.110   .     S
C664   H690    1.112   .     S
C664   C665    1.526   .     S
C664   H689    1.103   .     S
C665   H687    1.111   .     S
C665   H686    1.111   .     S
C665   H688    1.111   .     S
C666   C670    1.400   .     A
C667   C668    1.385   .     A
C667   C17     1.397   1_556 S
C667   C27     1.416   1_556 S
C668   H695    1.082   .     S
C668   C669    1.380   .     A
C669   H676    1.071   .     S
C670   H697    1.074   .     S
C671   O710    1.378   .     S
Cu672  O708    1.956   .     S
Cu672  O704    1.961   .     S
Cu672  N698    2.028   .     S
Cu672  O700    1.946   .     S
Cu672  Cu673   2.699   .     S
Cu672  O706    1.957   .     S
Cu673  N699    2.028   .     S
Cu673  O705    1.956   .     S
Cu673  O703    1.957   .     S
Cu673  O707    1.946   .     S
Cu673  O709    1.961   .     S
H677   O710    0.990   .     S
H683   O701    0.992   .     S
H684   O63     0.990   1_556 S
H696   C17     1.083   1_556 S
C711   C719    1.443   .     S
C711   O774    1.297   .     A
C711   O771    1.294   .     A
C712   C714    1.499   .     S
C712   C733    1.432   .     A
C712   C729    1.419   .     A
C713   C719    1.416   .     A
C713   C735    1.516   .     S
C713   C928    1.395   .     S
C714   O776    1.301   .     A
C714   O775    1.316   .     A
C715   H745    1.085   .     S
C715   C716    1.397   .     A
C715   C1139   1.395   1_545 S
C716   C717    1.393   .     A
C716   C725    1.439   .     S
C717   H756    1.080   .     S
C717   C1144   1.382   1_545 S
C718   H762    1.084   .     S
C718   C719    1.400   .     A
C718   C930    1.382   .     S
C720   N770    1.371   .     A
C720   H763    1.080   .     S
C720   C792    1.421   .     S
C721   H764    1.081   .     S
C721   N769    1.367   .     A
C722   C733    1.416   .     A
C722   C92     1.410   1_556 S
C722   C98     1.427   1_556 S
C723   N769    1.410   .     A
C723   C732    1.527   .     S
C724   N770    1.341   .     A
C724   H765    1.082   .     S
C724   C794    1.415   .     S
C725   O777    1.298   .     A
C725   O778    1.292   .     A
C726   O780    1.299   .     A
C726   C728    1.468   .     S
C726   O779    1.303   .     A
C727   C742    1.389   .     A
C728   C742    1.416   .     A
C728   C741    1.402   .     A
C729   C730    1.408   .     A
C729   O772    1.373   .     S
C730   C92     1.391   1_556 S
C730   O134    1.380   1_556 S
C731   H746    1.077   .     S
C732   H752    1.097   .     S
C732   C734    1.529   .     S
C732   H753    1.113   .     S
C733   C740    1.413   .     A
C734   H751    1.111   .     S
C734   H750    1.105   .     S
C734   H749    1.110   .     S
C735   H761    1.112   .     S
C735   C736    1.526   .     S
C735   H760    1.103   .     S
C736   H758    1.111   .     S
C736   H757    1.111   .     S
C736   H759    1.111   .     S
C737   C741    1.400   .     A
C738   C739    1.385   .     A
C738   C88     1.397   1_556 S
C738   C98     1.416   1_556 S
C739   H766    1.082   .     S
C739   C740    1.380   .     A
C740   H747    1.071   .     S
C741   H768    1.074   .     S
C742   O781    1.378   .     S
Cu743  O779    1.956   .     S
Cu743  O775    1.961   .     S
Cu743  N769    2.028   .     S
Cu743  O771    1.946   .     S
Cu743  Cu744   2.699   .     S
Cu743  O777    1.957   .     S
Cu744  N770    2.028   .     S
Cu744  O776    1.956   .     S
Cu744  O774    1.957   .     S
Cu744  O778    1.946   .     S
Cu744  O780    1.961   .     S
H748   O781    0.990   .     S
H754   O772    0.992   .     S
H755   O134    0.990   1_556 S
H767   C88     1.083   1_556 S
C782   C790    1.443   .     S
C782   O845    1.297   .     A
C782   O842    1.294   .     A
C783   C785    1.499   .     S
C783   C804    1.432   .     A
C783   C800    1.419   .     A
C784   C790    1.416   .     A
C784   C806    1.516   .     S
C784   C999    1.395   .     S
C785   O847    1.301   .     A
C785   O846    1.316   .     A
C786   H816    1.085   .     S
C786   C787    1.397   .     A
C786   C1210   1.395   1_545 S
C787   C788    1.393   .     A
C787   C796    1.439   .     S
C788   H827    1.080   .     S
C788   C1215   1.382   1_545 S
C789   H833    1.084   .     S
C789   C790    1.400   .     A
C789   C1001   1.382   .     S
C791   N841    1.371   .     A
C791   H834    1.080   .     S
C791   C650    1.421   1_655 S
C792   H835    1.081   .     S
C792   N840    1.367   .     A
C793   C804    1.416   .     A
C793   C163    1.410   1_556 S
C793   C169    1.427   1_556 S
C794   N840    1.410   .     A
C794   C803    1.527   .     S
C795   N841    1.341   .     A
C795   H836    1.082   .     S
C795   C652    1.415   1_655 S
C796   O848    1.298   .     A
C796   O849    1.292   .     A
C797   O851    1.299   .     A
C797   C799    1.468   .     S
C797   O850    1.303   .     A
C798   C813    1.389   .     A
C799   C813    1.416   .     A
C799   C812    1.402   .     A
C800   C801    1.408   .     A
C800   O843    1.373   .     S
C801   C163    1.391   1_556 S
C801   O205    1.380   1_556 S
C802   H817    1.077   .     S
C803   H823    1.097   .     S
C803   C805    1.529   .     S
C803   H824    1.113   .     S
C804   C811    1.413   .     A
C805   H822    1.111   .     S
C805   H821    1.105   .     S
C805   H820    1.110   .     S
C806   H832    1.112   .     S
C806   C807    1.526   .     S
C806   H831    1.103   .     S
C807   H829    1.111   .     S
C807   H828    1.111   .     S
C807   H830    1.111   .     S
C808   C812    1.400   .     A
C809   C810    1.385   .     A
C809   C159    1.397   1_556 S
C809   C169    1.416   1_556 S
C810   H837    1.082   .     S
C810   C811    1.380   .     A
C811   H818    1.071   .     S
C812   H839    1.074   .     S
C813   O852    1.378   .     S
Cu814  O850    1.956   .     S
Cu814  O846    1.961   .     S
Cu814  N840    2.028   .     S
Cu814  O842    1.946   .     S
Cu814  Cu815   2.699   .     S
Cu814  O848    1.957   .     S
Cu815  N841    2.028   .     S
Cu815  O847    1.956   .     S
Cu815  O845    1.957   .     S
Cu815  O849    1.946   .     S
Cu815  O851    1.961   .     S
H819   O852    0.990   .     S
H825   O843    0.992   .     S
H826   O205    0.990   1_556 S
H838   C159    1.083   1_556 S
C853   C861    1.443   .     S
C853   O916    1.297   .     A
C853   O913    1.294   .     A
C854   C856    1.499   .     S
C854   C875    1.432   .     A
C854   C871    1.419   .     A
C855   C861    1.416   .     A
C855   C877    1.516   .     S
C855   C1070   1.395   .     S
C856   O918    1.301   .     A
C856   O917    1.316   .     A
C857   H887    1.085   .     S
C857   C858    1.397   .     A
C858   C859    1.393   .     A
C858   C867    1.439   .     S
C859   H898    1.080   .     S
C860   H904    1.084   .     S
C860   C861    1.400   .     A
C860   C1072   1.382   .     S
C862   N912    1.371   .     A
C862   H905    1.080   .     S
C862   C934    1.421   .     S
C863   H906    1.081   .     S
C863   N911    1.367   .     A
C863   C1004   1.421   1_455 S
C864   C875    1.416   .     A
C864   C234    1.410   1_556 S
C864   C240    1.427   1_556 S
C865   N911    1.410   .     A
C865   C874    1.527   .     S
C865   C1008   1.415   1_455 S
C866   N912    1.341   .     A
C866   H907    1.082   .     S
C866   C936    1.415   .     S
C867   O919    1.298   .     A
C867   O920    1.292   .     A
C868   O922    1.299   .     A
C868   C870    1.468   .     S
C868   O921    1.303   .     A
C869   C884    1.389   .     A
C870   C884    1.416   .     A
C870   C883    1.402   .     A
C871   C872    1.408   .     A
C871   O914    1.373   .     S
C872   C234    1.391   1_556 S
C872   O276    1.380   1_556 S
C873   H888    1.077   .     S
C874   H894    1.097   .     S
C874   C876    1.529   .     S
C874   H895    1.113   .     S
C875   C882    1.413   .     A
C876   H893    1.111   .     S
C876   H892    1.105   .     S
C876   H891    1.110   .     S
C877   H903    1.112   .     S
C877   C878    1.526   .     S
C877   H902    1.103   .     S
C878   H900    1.111   .     S
C878   H899    1.111   .     S
C878   H901    1.111   .     S
C879   C883    1.400   .     A
C880   C881    1.385   .     A
C880   C230    1.397   1_556 S
C880   C240    1.416   1_556 S
C881   H908    1.082   .     S
C881   C882    1.380   .     A
C882   H889    1.071   .     S
C883   H910    1.074   .     S
C884   O923    1.378   .     S
Cu885  O921    1.956   .     S
Cu885  O917    1.961   .     S
Cu885  N911    2.028   .     S
Cu885  O913    1.946   .     S
Cu885  Cu886   2.699   .     S
Cu885  O919    1.957   .     S
Cu886  N912    2.028   .     S
Cu886  O918    1.956   .     S
Cu886  O916    1.957   .     S
Cu886  O920    1.946   .     S
Cu886  O922    1.961   .     S
H890   O923    0.990   .     S
H896   O914    0.992   .     S
H897   O276    0.990   1_556 S
H909   C230    1.083   1_556 S
C924   C932    1.443   .     S
C924   O987    1.297   .     A
C924   O984    1.294   .     A
C925   C927    1.499   .     S
C925   C946    1.432   .     A
C925   C942    1.419   .     A
C926   C932    1.416   .     A
C926   C948    1.516   .     S
C926   C1141   1.395   .     S
C927   O989    1.301   .     A
C927   O988    1.316   .     A
C928   H958    1.085   .     S
C928   C929    1.397   .     A
C929   C930    1.393   .     A
C929   C938    1.439   .     S
C930   H969    1.080   .     S
C931   H975    1.084   .     S
C931   C932    1.400   .     A
C931   C1143   1.382   .     S
C933   N983    1.371   .     A
C933   H976    1.080   .     S
C933   C1005   1.421   .     S
C934   H977    1.081   .     S
C934   N982    1.367   .     A
C935   C946    1.416   .     A
C935   C305    1.410   1_556 S
C935   C311    1.427   1_556 S
C936   N982    1.410   .     A
C936   C945    1.527   .     S
C937   N983    1.341   .     A
C937   H978    1.082   .     S
C937   C1007   1.415   .     S
C938   O990    1.298   .     A
C938   O991    1.292   .     A
C939   O993    1.299   .     A
C939   C941    1.468   .     S
C939   O992    1.303   .     A
C940   C955    1.389   .     A
C941   C955    1.416   .     A
C941   C954    1.402   .     A
C942   C943    1.408   .     A
C942   O985    1.373   .     S
C943   C305    1.391   1_556 S
C943   O347    1.380   1_556 S
C944   H959    1.077   .     S
C945   H965    1.097   .     S
C945   C947    1.529   .     S
C945   H966    1.113   .     S
C946   C953    1.413   .     A
C947   H964    1.111   .     S
C947   H963    1.105   .     S
C947   H962    1.110   .     S
C948   H974    1.112   .     S
C948   C949    1.526   .     S
C948   H973    1.103   .     S
C949   H971    1.111   .     S
C949   H970    1.111   .     S
C949   H972    1.111   .     S
C950   C954    1.400   .     A
C951   C952    1.385   .     A
C951   C301    1.397   1_556 S
C951   C311    1.416   1_556 S
C952   H979    1.082   .     S
C952   C953    1.380   .     A
C953   H960    1.071   .     S
C954   H981    1.074   .     S
C955   O994    1.378   .     S
Cu956  O992    1.956   .     S
Cu956  O988    1.961   .     S
Cu956  N982    2.028   .     S
Cu956  O984    1.946   .     S
Cu956  Cu957   2.699   .     S
Cu956  O990    1.957   .     S
Cu957  N983    2.028   .     S
Cu957  O989    1.956   .     S
Cu957  O987    1.957   .     S
Cu957  O991    1.946   .     S
Cu957  O993    1.961   .     S
H961   O994    0.990   .     S
H967   O985    0.992   .     S
H968   O347    0.990   1_556 S
H980   C301    1.083   1_556 S
C995   C1003   1.443   .     S
C995   O1058   1.297   .     A
C995   O1055   1.294   .     A
C996   C998    1.499   .     S
C996   C1017   1.432   .     A
C996   C1013   1.419   .     A
C997   C1003   1.416   .     A
C997   C1019   1.516   .     S
C997   C1212   1.395   .     S
C998   O1060   1.301   .     A
C998   O1059   1.316   .     A
C999   H1029   1.085   .     S
C999   C1000   1.397   .     A
C1000  C1001   1.393   .     A
C1000  C1009   1.439   .     S
C1001  H1040   1.080   .     S
C1002  H1046   1.084   .     S
C1002  C1003   1.400   .     A
C1002  C1214   1.382   .     S
C1004  N1054   1.371   .     A
C1004  H1047   1.080   .     S
C1004  C863    1.421   1_655 S
C1005  H1048   1.081   .     S
C1005  N1053   1.367   .     A
C1006  C1017   1.416   .     A
C1006  C376    1.410   1_556 S
C1006  C382    1.427   1_556 S
C1007  N1053   1.410   .     A
C1007  C1016   1.527   .     S
C1008  N1054   1.341   .     A
C1008  H1049   1.082   .     S
C1008  C865    1.415   1_655 S
C1009  O1061   1.298   .     A
C1009  O1062   1.292   .     A
C1010  O1064   1.299   .     A
C1010  C1012   1.468   .     S
C1010  O1063   1.303   .     A
C1011  C1026   1.389   .     A
C1012  C1026   1.416   .     A
C1012  C1025   1.402   .     A
C1013  C1014   1.408   .     A
C1013  O1056   1.373   .     S
C1014  C376    1.391   1_556 S
C1014  O418    1.380   1_556 S
C1015  H1030   1.077   .     S
C1016  H1036   1.097   .     S
C1016  C1018   1.529   .     S
C1016  H1037   1.113   .     S
C1017  C1024   1.413   .     A
C1018  H1035   1.111   .     S
C1018  H1034   1.105   .     S
C1018  H1033   1.110   .     S
C1019  H1045   1.112   .     S
C1019  C1020   1.526   .     S
C1019  H1044   1.103   .     S
C1020  H1042   1.111   .     S
C1020  H1041   1.111   .     S
C1020  H1043   1.111   .     S
C1021  C1025   1.400   .     A
C1022  C1023   1.385   .     A
C1022  C372    1.397   1_556 S
C1022  C382    1.416   1_556 S
C1023  H1050   1.082   .     S
C1023  C1024   1.380   .     A
C1024  H1031   1.071   .     S
C1025  H1052   1.074   .     S
C1026  O1065   1.378   .     S
Cu1027 O1063   1.956   .     S
Cu1027 O1059   1.961   .     S
Cu1027 N1053   2.028   .     S
Cu1027 O1055   1.946   .     S
Cu1027 Cu1028  2.699   .     S
Cu1027 O1061   1.957   .     S
Cu1028 N1054   2.028   .     S
Cu1028 O1060   1.956   .     S
Cu1028 O1058   1.957   .     S
Cu1028 O1062   1.946   .     S
Cu1028 O1064   1.961   .     S
H1032  O1065   0.990   .     S
H1038  O1056   0.992   .     S
H1039  O418    0.990   1_556 S
H1051  C372    1.083   1_556 S
C1066  C1074   1.443   .     S
C1066  O1129   1.297   .     A
C1066  O1126   1.294   .     A
C1067  C1069   1.499   .     S
C1067  C1088   1.432   .     A
C1067  C1084   1.419   .     A
C1068  C1074   1.416   .     A
C1068  C1090   1.516   .     S
C1068  C644    1.395   1_565 S
C1069  O1131   1.301   .     A
C1069  O1130   1.316   .     A
C1070  H1100   1.085   .     S
C1070  C1071   1.397   .     A
C1071  C1072   1.393   .     A
C1071  C1080   1.439   .     S
C1072  H1111   1.080   .     S
C1073  H1117   1.084   .     S
C1073  C1074   1.400   .     A
C1073  C646    1.382   1_565 S
C1075  N1125   1.371   .     A
C1075  H1118   1.080   .     S
C1075  C1147   1.421   .     S
C1076  H1119   1.081   .     S
C1076  N1124   1.367   .     A
C1076  C1217   1.421   1_455 S
C1077  C1088   1.416   .     A
C1077  C447    1.410   1_556 S
C1077  C453    1.427   1_556 S
C1078  N1124   1.410   .     A
C1078  C1087   1.527   .     S
C1078  C1221   1.415   1_455 S
C1079  N1125   1.341   .     A
C1079  H1120   1.082   .     S
C1079  C1149   1.415   .     S
C1080  O1132   1.298   .     A
C1080  O1133   1.292   .     A
C1081  O1135   1.299   .     A
C1081  C1083   1.468   .     S
C1081  O1134   1.303   .     A
C1082  C1097   1.389   .     A
C1083  C1097   1.416   .     A
C1083  C1096   1.402   .     A
C1084  C1085   1.408   .     A
C1084  O1127   1.373   .     S
C1085  C447    1.391   1_556 S
C1085  O489    1.380   1_556 S
C1086  H1101   1.077   .     S
C1087  H1107   1.097   .     S
C1087  C1089   1.529   .     S
C1087  H1108   1.113   .     S
C1088  C1095   1.413   .     A
C1089  H1106   1.111   .     S
C1089  H1105   1.105   .     S
C1089  H1104   1.110   .     S
C1090  H1116   1.112   .     S
C1090  C1091   1.526   .     S
C1090  H1115   1.103   .     S
C1091  H1113   1.111   .     S
C1091  H1112   1.111   .     S
C1091  H1114   1.111   .     S
C1092  C1096   1.400   .     A
C1093  C1094   1.385   .     A
C1093  C443    1.397   1_556 S
C1093  C453    1.416   1_556 S
C1094  H1121   1.082   .     S
C1094  C1095   1.380   .     A
C1095  H1102   1.071   .     S
C1096  H1123   1.074   .     S
C1097  O1136   1.378   .     S
Cu1098 O1134   1.956   .     S
Cu1098 O1130   1.961   .     S
Cu1098 N1124   2.028   .     S
Cu1098 O1126   1.946   .     S
Cu1098 Cu1099  2.699   .     S
Cu1098 O1132   1.957   .     S
Cu1099 N1125   2.028   .     S
Cu1099 O1131   1.956   .     S
Cu1099 O1129   1.957   .     S
Cu1099 O1133   1.946   .     S
Cu1099 O1135   1.961   .     S
H1103  O1136   0.990   .     S
H1109  O1127   0.992   .     S
H1110  O489    0.990   1_556 S
H1122  C443    1.083   1_556 S
C1137  C1145   1.443   .     S
C1137  O1200   1.297   .     A
C1137  O1197   1.294   .     A
C1138  C1140   1.499   .     S
C1138  C1159   1.432   .     A
C1138  C1155   1.419   .     A
C1139  C1145   1.416   .     A
C1139  C1161   1.516   .     S
C1139  C715    1.395   1_565 S
C1140  O1202   1.301   .     A
C1140  O1201   1.316   .     A
C1141  H1171   1.085   .     S
C1141  C1142   1.397   .     A
C1142  C1143   1.393   .     A
C1142  C1151   1.439   .     S
C1143  H1182   1.080   .     S
C1144  H1188   1.084   .     S
C1144  C1145   1.400   .     A
C1144  C717    1.382   1_565 S
C1146  N1196   1.371   .     A
C1146  H1189   1.080   .     S
C1146  C1218   1.421   .     S
C1147  H1190   1.081   .     S
C1147  N1195   1.367   .     A
C1148  C1159   1.416   .     A
C1148  C518    1.410   1_556 S
C1148  C524    1.427   1_556 S
C1149  N1195   1.410   .     A
C1149  C1158   1.527   .     S
C1150  N1196   1.341   .     A
C1150  H1191   1.082   .     S
C1150  C1220   1.415   .     S
C1151  O1203   1.298   .     A
C1151  O1204   1.292   .     A
C1152  O1206   1.299   .     A
C1152  C1154   1.468   .     S
C1152  O1205   1.303   .     A
C1153  C1168   1.389   .     A
C1154  C1168   1.416   .     A
C1154  C1167   1.402   .     A
C1155  C1156   1.408   .     A
C1155  O1198   1.373   .     S
C1156  C518    1.391   1_556 S
C1156  O560    1.380   1_556 S
C1157  H1172   1.077   .     S
C1158  H1178   1.097   .     S
C1158  C1160   1.529   .     S
C1158  H1179   1.113   .     S
C1159  C1166   1.413   .     A
C1160  H1177   1.111   .     S
C1160  H1176   1.105   .     S
C1160  H1175   1.110   .     S
C1161  H1187   1.112   .     S
C1161  C1162   1.526   .     S
C1161  H1186   1.103   .     S
C1162  H1184   1.111   .     S
C1162  H1183   1.111   .     S
C1162  H1185   1.111   .     S
C1163  C1167   1.400   .     A
C1164  C1165   1.385   .     A
C1164  C514    1.397   1_556 S
C1164  C524    1.416   1_556 S
C1165  H1192   1.082   .     S
C1165  C1166   1.380   .     A
C1166  H1173   1.071   .     S
C1167  H1194   1.074   .     S
C1168  O1207   1.378   .     S
Cu1169 O1205   1.956   .     S
Cu1169 O1201   1.961   .     S
Cu1169 N1195   2.028   .     S
Cu1169 O1197   1.946   .     S
Cu1169 Cu1170  2.699   .     S
Cu1169 O1203   1.957   .     S
Cu1170 N1196   2.028   .     S
Cu1170 O1202   1.956   .     S
Cu1170 O1200   1.957   .     S
Cu1170 O1204   1.946   .     S
Cu1170 O1206   1.961   .     S
H1174  O1207   0.990   .     S
H1180  O1198   0.992   .     S
H1181  O560    0.990   1_556 S
H1193  C514    1.083   1_556 S
C1208  C1216   1.443   .     S
C1208  O1271   1.297   .     A
C1208  O1268   1.294   .     A
C1209  C1211   1.499   .     S
C1209  C1230   1.432   .     A
C1209  C1226   1.419   .     A
C1210  C1216   1.416   .     A
C1210  C1232   1.516   .     S
C1210  C786    1.395   1_565 S
C1211  O1273   1.301   .     A
C1211  O1272   1.316   .     A
C1212  H1242   1.085   .     S
C1212  C1213   1.397   .     A
C1213  C1214   1.393   .     A
C1213  C1222   1.439   .     S
C1214  H1253   1.080   .     S
C1215  H1259   1.084   .     S
C1215  C1216   1.400   .     A
C1215  C788    1.382   1_565 S
C1217  N1267   1.371   .     A
C1217  H1260   1.080   .     S
C1217  C1076   1.421   1_655 S
C1218  H1261   1.081   .     S
C1218  N1266   1.367   .     A
C1219  C1230   1.416   .     A
C1219  C589    1.410   1_556 S
C1219  C595    1.427   1_556 S
C1220  N1266   1.410   .     A
C1220  C1229   1.527   .     S
C1221  N1267   1.341   .     A
C1221  H1262   1.082   .     S
C1221  C1078   1.415   1_655 S
C1222  O1274   1.298   .     A
C1222  O1275   1.292   .     A
C1223  O1277   1.299   .     A
C1223  C1225   1.468   .     S
C1223  O1276   1.303   .     A
C1224  C1239   1.389   .     A
C1225  C1239   1.416   .     A
C1225  C1238   1.402   .     A
C1226  C1227   1.408   .     A
C1226  O1269   1.373   .     S
C1227  C589    1.391   1_556 S
C1227  O631    1.380   1_556 S
C1228  H1243   1.077   .     S
C1229  H1249   1.097   .     S
C1229  C1231   1.529   .     S
C1229  H1250   1.113   .     S
C1230  C1237   1.413   .     A
C1231  H1248   1.111   .     S
C1231  H1247   1.105   .     S
C1231  H1246   1.110   .     S
C1232  H1258   1.112   .     S
C1232  C1233   1.526   .     S
C1232  H1257   1.103   .     S
C1233  H1255   1.111   .     S
C1233  H1254   1.111   .     S
C1233  H1256   1.111   .     S
C1234  C1238   1.400   .     A
C1235  C1236   1.385   .     A
C1235  C585    1.397   1_556 S
C1235  C595    1.416   1_556 S
C1236  H1263   1.082   .     S
C1236  C1237   1.380   .     A
C1237  H1244   1.071   .     S
C1238  H1265   1.074   .     S
C1239  O1278   1.378   .     S
Cu1240 O1276   1.956   .     S
Cu1240 O1272   1.961   .     S
Cu1240 N1266   2.028   .     S
Cu1240 O1268   1.946   .     S
Cu1240 Cu1241  2.699   .     S
Cu1240 O1274   1.957   .     S
Cu1241 N1267   2.028   .     S
Cu1241 O1273   1.956   .     S
Cu1241 O1271   1.957   .     S
Cu1241 O1275   1.946   .     S
Cu1241 O1277   1.961   .     S
H1245  O1278   0.990   .     S
H1251  O1269   0.992   .     S
H1252  O631    0.990   1_556 S
H1264  C585    1.083   1_556 S
