data_str_m2_o1_o16_pcu_sym.77
_audit_creation_date              2020-01-03
_audit_creation_method            'Materials Studio'
_symmetry_space_group_name_H-M    'P1'
_symmetry_Int_Tables_number       1
_symmetry_cell_setting            triclinic
loop_
_symmetry_equiv_pos_as_xyz
  x,y,z
_cell_length_a                    28.6027
_cell_length_b                    32.4971
_cell_length_c                    26.8921
_cell_angle_alpha                 90.7626
_cell_angle_beta                  71.6342
_cell_angle_gamma                 89.6816
loop_
_atom_site_label
_atom_site_type_symbol
_atom_site_fract_x
_atom_site_fract_y
_atom_site_fract_z
_atom_site_U_iso_or_equiv
_atom_site_adp_type
_atom_site_occupancy
C1     C     0.16657   0.24596   0.25010   0.00000  Uiso   1.00
C2     C     0.12225   0.16911   0.40914   0.00000  Uiso   1.00
C3     C     0.20867   0.31184   0.25146   0.00000  Uiso   1.00
C4     C     0.13973   0.16845   0.35061   0.00000  Uiso   1.00
C5     C     0.20877   0.02108   0.25138   0.00000  Uiso   1.00
C6     C     0.16676   0.04275   0.24998   0.00000  Uiso   1.00
C7     C     0.12462   0.02149   0.24870   0.00000  Uiso   1.00
C8     C     0.12451   0.31226   0.24881   0.00000  Uiso   1.00
C9     C     0.16654   0.29059   0.25015   0.00000  Uiso   1.00
C10    C     0.29969   0.19483   0.27933   0.00000  Uiso   1.00
C11    C     0.01584   0.19470   0.27949   0.00000  Uiso   1.00
C12    C     0.14568   0.16664   0.48977   0.00000  Uiso   1.00
C13    C     0.03432   0.13869   0.22061   0.00000  Uiso   1.00
C14    C     0.31826   0.13833   0.22006   0.00000  Uiso   1.00
C15    C     0.16674   0.08737   0.24996   0.00000  Uiso   1.00
C16    C     0.19326   0.16677   0.14982   0.00000  Uiso   1.00
C17    C     0.26250   0.19982   0.01325   0.00000  Uiso   1.00
C18    C     0.20885   0.17060   0.09275   0.00000  Uiso   1.00
C19    C     0.07441   0.15473   0.43770   0.00000  Uiso   1.00
C20    C     0.06406   0.14495   0.49039   0.00000  Uiso   1.00
C21    C     0.09920   0.14948   0.01554   0.00000  Uiso   1.00
C22    C     0.30589   0.10695   0.18571   0.00000  Uiso   1.00
C23    C     0.15568   0.17916   0.43707   0.00000  Uiso   1.00
C24    C     0.03346   0.15073   0.41511   0.00000  Uiso   1.00
C25    C     0.18205   0.17286   0.01515   0.00000  Uiso   1.00
C26    C     0.22656   0.19316   0.48855   0.00000  Uiso   1.00
C27    C     0.23373   0.20837   0.43859   0.00000  Uiso   1.00
C28    C     0.19822   0.20262   0.41402   0.00000  Uiso   1.00
C29    C     0.17503   0.16060   0.06684   0.00000  Uiso   1.00
C30    C     0.25353   0.18886   0.06533   0.00000  Uiso   1.00
Cu31   Cu    0.11978   0.16666   0.25000   0.00000  Uiso   1.00
Cu32   Cu    0.21355   0.16667   0.25000   0.00000  Uiso   1.00
H33    H     0.28030   0.19654   0.08479   0.00000  Uiso   1.00
H34    H     0.14270   0.14431   0.08894   0.00000  Uiso   1.00
H35    H     0.08752   0.14075   0.05601   0.00000  Uiso   1.00
H36    H     0.02804   0.13369   0.01270   0.00000  Uiso   1.00
H37    H     0.20374   0.21821   0.37747   0.00000  Uiso   1.00
H38    H     0.24153   0.29567   0.25260   0.00000  Uiso   1.00
H39    H     0.27441   0.10997   0.17248   0.00000  Uiso   1.00
H40    H     0.02881   0.17274   0.38709   0.00000  Uiso   1.00
H41    H     0.24165   0.03692   0.25249   0.00000  Uiso   1.00
H42    H     0.09176   0.03766   0.24757   0.00000  Uiso   1.00
H43    H     0.09160   0.29641   0.24777   0.00000  Uiso   1.00
H44    H     0.27419   0.21767   0.30248   0.00000  Uiso   1.00
H45    H     0.02732   0.21723   0.30314   0.00000  Uiso   1.00
H46    H     0.06117   0.11686   0.19696   0.00000  Uiso   1.00
H47    H     0.26643   0.22571   0.41884   0.00000  Uiso   1.00
H48    H     0.29664   0.21511   0.49298   0.00000  Uiso   1.00
N49    N     0.04931   0.16666   0.24999   0.00000  Uiso   1.00
N50    N     0.28402   0.16669   0.24999   0.00000  Uiso   1.00
O51    O     0.12708   0.22678   0.25000   0.00000  Uiso   1.00
O52    O     0.00304   0.12354   0.42932   0.00000  Uiso   1.00
O53    O     0.20627   0.22679   0.25000   0.00000  Uiso   1.00
O54    O     0.10775   0.16665   0.32549   0.00000  Uiso   1.00
O55    O     0.18694   0.16666   0.32549   0.00000  Uiso   1.00
O56    O     0.12706   0.10654   0.25000   0.00000  Uiso   1.00
O57    O     0.20625   0.10655   0.24999   0.00000  Uiso   1.00
O58    O     0.14640   0.16667   0.17451   0.00000  Uiso   1.00
O59    O     0.22559   0.16668   0.17451   0.00000  Uiso   1.00
O60    O     0.33205   0.07651   0.17066   0.00000  Uiso   1.00
C61    C     0.49991   0.24596   0.25010   0.00000  Uiso   1.00
C62    C     0.45558   0.16911   0.40914   0.00000  Uiso   1.00
C63    C     0.54200   0.31184   0.25146   0.00000  Uiso   1.00
C64    C     0.47307   0.16845   0.35061   0.00000  Uiso   1.00
C65    C     0.54211   0.02108   0.25138   0.00000  Uiso   1.00
C66    C     0.50009   0.04275   0.24998   0.00000  Uiso   1.00
C67    C     0.45796   0.02149   0.24870   0.00000  Uiso   1.00
C68    C     0.45784   0.31226   0.24881   0.00000  Uiso   1.00
C69    C     0.49987   0.29059   0.25015   0.00000  Uiso   1.00
C70    C     0.63303   0.19483   0.27933   0.00000  Uiso   1.00
C71    C     0.34917   0.19470   0.27949   0.00000  Uiso   1.00
C72    C     0.47902   0.16664   0.48977   0.00000  Uiso   1.00
C73    C     0.36765   0.13869   0.22061   0.00000  Uiso   1.00
C74    C     0.65160   0.13833   0.22006   0.00000  Uiso   1.00
C75    C     0.50008   0.08737   0.24996   0.00000  Uiso   1.00
C76    C     0.52659   0.16677   0.14982   0.00000  Uiso   1.00
C77    C     0.59584   0.19982   0.01325   0.00000  Uiso   1.00
C78    C     0.54219   0.17060   0.09275   0.00000  Uiso   1.00
C79    C     0.40774   0.15473   0.43770   0.00000  Uiso   1.00
C80    C     0.39740   0.14495   0.49039   0.00000  Uiso   1.00
C81    C     0.43253   0.14948   0.01554   0.00000  Uiso   1.00
C82    C     0.63922   0.10695   0.18571   0.00000  Uiso   1.00
C83    C     0.48901   0.17916   0.43707   0.00000  Uiso   1.00
C84    C     0.36679   0.15073   0.41511   0.00000  Uiso   1.00
C85    C     0.51539   0.17286   0.01515   0.00000  Uiso   1.00
C86    C     0.55989   0.19316   0.48855   0.00000  Uiso   1.00
C87    C     0.56706   0.20837   0.43859   0.00000  Uiso   1.00
C88    C     0.53156   0.20262   0.41402   0.00000  Uiso   1.00
C89    C     0.50837   0.16060   0.06684   0.00000  Uiso   1.00
C90    C     0.58687   0.18886   0.06533   0.00000  Uiso   1.00
Cu91   Cu    0.45311   0.16666   0.25000   0.00000  Uiso   1.00
Cu92   Cu    0.54689   0.16667   0.25000   0.00000  Uiso   1.00
H93    H     0.61363   0.19654   0.08479   0.00000  Uiso   1.00
H94    H     0.47603   0.14431   0.08894   0.00000  Uiso   1.00
H95    H     0.42086   0.14075   0.05601   0.00000  Uiso   1.00
H96    H     0.36138   0.13369   0.01270   0.00000  Uiso   1.00
H97    H     0.53708   0.21821   0.37747   0.00000  Uiso   1.00
H98    H     0.57486   0.29567   0.25260   0.00000  Uiso   1.00
H99    H     0.60774   0.10997   0.17248   0.00000  Uiso   1.00
H100   H     0.36215   0.17274   0.38709   0.00000  Uiso   1.00
H101   H     0.57499   0.03692   0.25249   0.00000  Uiso   1.00
H102   H     0.42509   0.03766   0.24757   0.00000  Uiso   1.00
H103   H     0.42493   0.29641   0.24777   0.00000  Uiso   1.00
H104   H     0.60753   0.21767   0.30248   0.00000  Uiso   1.00
H105   H     0.36065   0.21723   0.30314   0.00000  Uiso   1.00
H106   H     0.39451   0.11686   0.19696   0.00000  Uiso   1.00
H107   H     0.59977   0.22571   0.41884   0.00000  Uiso   1.00
H108   H     0.62997   0.21511   0.49298   0.00000  Uiso   1.00
N109   N     0.38265   0.16666   0.24999   0.00000  Uiso   1.00
N110   N     0.61735   0.16669   0.24999   0.00000  Uiso   1.00
O111   O     0.46042   0.22678   0.25000   0.00000  Uiso   1.00
O112   O     0.33637   0.12354   0.42932   0.00000  Uiso   1.00
O113   O     0.53961   0.22679   0.25000   0.00000  Uiso   1.00
O114   O     0.44108   0.16665   0.32549   0.00000  Uiso   1.00
O115   O     0.52027   0.16666   0.32549   0.00000  Uiso   1.00
O116   O     0.46039   0.10654   0.25000   0.00000  Uiso   1.00
O117   O     0.53958   0.10655   0.24999   0.00000  Uiso   1.00
O118   O     0.47973   0.16667   0.17451   0.00000  Uiso   1.00
O119   O     0.55892   0.16668   0.17451   0.00000  Uiso   1.00
O120   O     0.66538   0.07651   0.17066   0.00000  Uiso   1.00
C121   C     0.83324   0.24596   0.25010   0.00000  Uiso   1.00
C122   C     0.78891   0.16911   0.40914   0.00000  Uiso   1.00
C123   C     0.87533   0.31184   0.25146   0.00000  Uiso   1.00
C124   C     0.80640   0.16845   0.35061   0.00000  Uiso   1.00
C125   C     0.87544   0.02108   0.25138   0.00000  Uiso   1.00
C126   C     0.83343   0.04275   0.24998   0.00000  Uiso   1.00
C127   C     0.79129   0.02149   0.24870   0.00000  Uiso   1.00
C128   C     0.79118   0.31226   0.24881   0.00000  Uiso   1.00
C129   C     0.83321   0.29059   0.25015   0.00000  Uiso   1.00
C130   C     0.96636   0.19483   0.27933   0.00000  Uiso   1.00
C131   C     0.68250   0.19470   0.27949   0.00000  Uiso   1.00
C132   C     0.81235   0.16664   0.48977   0.00000  Uiso   1.00
C133   C     0.70098   0.13869   0.22061   0.00000  Uiso   1.00
C134   C     0.98493   0.13833   0.22006   0.00000  Uiso   1.00
C135   C     0.83341   0.08737   0.24996   0.00000  Uiso   1.00
C136   C     0.85993   0.16677   0.14982   0.00000  Uiso   1.00
C137   C     0.92917   0.19982   0.01325   0.00000  Uiso   1.00
C138   C     0.87552   0.17060   0.09275   0.00000  Uiso   1.00
C139   C     0.74107   0.15473   0.43770   0.00000  Uiso   1.00
C140   C     0.73073   0.14495   0.49039   0.00000  Uiso   1.00
C141   C     0.76586   0.14948   0.01554   0.00000  Uiso   1.00
C142   C     0.97255   0.10695   0.18571   0.00000  Uiso   1.00
C143   C     0.82235   0.17916   0.43707   0.00000  Uiso   1.00
C144   C     0.70012   0.15073   0.41511   0.00000  Uiso   1.00
C145   C     0.84872   0.17286   0.01515   0.00000  Uiso   1.00
C146   C     0.89323   0.19316   0.48855   0.00000  Uiso   1.00
C147   C     0.90039   0.20837   0.43859   0.00000  Uiso   1.00
C148   C     0.86489   0.20262   0.41402   0.00000  Uiso   1.00
C149   C     0.84170   0.16060   0.06684   0.00000  Uiso   1.00
C150   C     0.92020   0.18886   0.06533   0.00000  Uiso   1.00
Cu151  Cu    0.78645   0.16666   0.25000   0.00000  Uiso   1.00
Cu152  Cu    0.88022   0.16667   0.25000   0.00000  Uiso   1.00
H153   H     0.94696   0.19654   0.08479   0.00000  Uiso   1.00
H154   H     0.80937   0.14431   0.08894   0.00000  Uiso   1.00
H155   H     0.75419   0.14075   0.05601   0.00000  Uiso   1.00
H156   H     0.69471   0.13369   0.01270   0.00000  Uiso   1.00
H157   H     0.87041   0.21821   0.37747   0.00000  Uiso   1.00
H158   H     0.90819   0.29567   0.25260   0.00000  Uiso   1.00
H159   H     0.94107   0.10997   0.17248   0.00000  Uiso   1.00
H160   H     0.69548   0.17274   0.38709   0.00000  Uiso   1.00
H161   H     0.90832   0.03692   0.25249   0.00000  Uiso   1.00
H162   H     0.75843   0.03766   0.24757   0.00000  Uiso   1.00
H163   H     0.75827   0.29641   0.24777   0.00000  Uiso   1.00
H164   H     0.94086   0.21767   0.30248   0.00000  Uiso   1.00
H165   H     0.69398   0.21723   0.30314   0.00000  Uiso   1.00
H166   H     0.72784   0.11686   0.19696   0.00000  Uiso   1.00
H167   H     0.93310   0.22571   0.41884   0.00000  Uiso   1.00
H168   H     0.96331   0.21511   0.49298   0.00000  Uiso   1.00
N169   N     0.71598   0.16666   0.24999   0.00000  Uiso   1.00
N170   N     0.95069   0.16669   0.24999   0.00000  Uiso   1.00
O171   O     0.79375   0.22678   0.25000   0.00000  Uiso   1.00
O172   O     0.66970   0.12354   0.42932   0.00000  Uiso   1.00
O173   O     0.87294   0.22679   0.25000   0.00000  Uiso   1.00
O174   O     0.77441   0.16665   0.32549   0.00000  Uiso   1.00
O175   O     0.85360   0.16666   0.32549   0.00000  Uiso   1.00
O176   O     0.79373   0.10654   0.25000   0.00000  Uiso   1.00
O177   O     0.87292   0.10655   0.24999   0.00000  Uiso   1.00
O178   O     0.81306   0.16667   0.17451   0.00000  Uiso   1.00
O179   O     0.89225   0.16668   0.17451   0.00000  Uiso   1.00
O180   O     0.99871   0.07651   0.17066   0.00000  Uiso   1.00
C181   C     0.16657   0.57930   0.25010   0.00000  Uiso   1.00
C182   C     0.12225   0.50244   0.40914   0.00000  Uiso   1.00
C183   C     0.20867   0.64518   0.25146   0.00000  Uiso   1.00
C184   C     0.13973   0.50179   0.35061   0.00000  Uiso   1.00
C185   C     0.20877   0.35441   0.25138   0.00000  Uiso   1.00
C186   C     0.16676   0.37608   0.24998   0.00000  Uiso   1.00
C187   C     0.12462   0.35483   0.24870   0.00000  Uiso   1.00
C188   C     0.12451   0.64559   0.24881   0.00000  Uiso   1.00
C189   C     0.16654   0.62392   0.25015   0.00000  Uiso   1.00
C190   C     0.29969   0.52816   0.27933   0.00000  Uiso   1.00
C191   C     0.01584   0.52803   0.27949   0.00000  Uiso   1.00
C192   C     0.14568   0.49997   0.48977   0.00000  Uiso   1.00
C193   C     0.03432   0.47203   0.22061   0.00000  Uiso   1.00
C194   C     0.31826   0.47166   0.22006   0.00000  Uiso   1.00
C195   C     0.16674   0.42071   0.24996   0.00000  Uiso   1.00
C196   C     0.19326   0.50010   0.14982   0.00000  Uiso   1.00
C197   C     0.26250   0.53315   0.01325   0.00000  Uiso   1.00
C198   C     0.20885   0.50393   0.09275   0.00000  Uiso   1.00
C199   C     0.07441   0.48806   0.43770   0.00000  Uiso   1.00
C200   C     0.06406   0.47828   0.49039   0.00000  Uiso   1.00
C201   C     0.09920   0.48282   0.01554   0.00000  Uiso   1.00
C202   C     0.30589   0.44029   0.18571   0.00000  Uiso   1.00
C203   C     0.15568   0.51250   0.43707   0.00000  Uiso   1.00
C204   C     0.03346   0.48407   0.41511   0.00000  Uiso   1.00
C205   C     0.18205   0.50620   0.01515   0.00000  Uiso   1.00
C206   C     0.22656   0.52650   0.48855   0.00000  Uiso   1.00
C207   C     0.23373   0.54170   0.43859   0.00000  Uiso   1.00
C208   C     0.19822   0.53595   0.41402   0.00000  Uiso   1.00
C209   C     0.17503   0.49393   0.06684   0.00000  Uiso   1.00
C210   C     0.25353   0.52220   0.06533   0.00000  Uiso   1.00
Cu211  Cu    0.11978   0.49999   0.25000   0.00000  Uiso   1.00
Cu212  Cu    0.21355   0.50001   0.25000   0.00000  Uiso   1.00
H213   H     0.28030   0.52987   0.08479   0.00000  Uiso   1.00
H214   H     0.14270   0.47765   0.08894   0.00000  Uiso   1.00
H215   H     0.08752   0.47408   0.05601   0.00000  Uiso   1.00
H216   H     0.02804   0.46702   0.01270   0.00000  Uiso   1.00
H217   H     0.20374   0.55155   0.37747   0.00000  Uiso   1.00
H218   H     0.24153   0.62901   0.25260   0.00000  Uiso   1.00
H219   H     0.27441   0.44330   0.17248   0.00000  Uiso   1.00
H220   H     0.02881   0.50607   0.38709   0.00000  Uiso   1.00
H221   H     0.24165   0.37025   0.25249   0.00000  Uiso   1.00
H222   H     0.09176   0.37100   0.24757   0.00000  Uiso   1.00
H223   H     0.09160   0.62974   0.24777   0.00000  Uiso   1.00
H224   H     0.27419   0.55100   0.30248   0.00000  Uiso   1.00
H225   H     0.02732   0.55056   0.30314   0.00000  Uiso   1.00
H226   H     0.06117   0.45020   0.19696   0.00000  Uiso   1.00
H227   H     0.26643   0.55904   0.41884   0.00000  Uiso   1.00
H228   H     0.29664   0.54845   0.49298   0.00000  Uiso   1.00
N229   N     0.04931   0.49999   0.24999   0.00000  Uiso   1.00
N230   N     0.28402   0.50002   0.24999   0.00000  Uiso   1.00
O231   O     0.12708   0.56011   0.25000   0.00000  Uiso   1.00
O232   O     0.00304   0.45688   0.42932   0.00000  Uiso   1.00
O233   O     0.20627   0.56012   0.25000   0.00000  Uiso   1.00
O234   O     0.10775   0.49998   0.32549   0.00000  Uiso   1.00
O235   O     0.18694   0.49999   0.32549   0.00000  Uiso   1.00
O236   O     0.12706   0.43988   0.25000   0.00000  Uiso   1.00
O237   O     0.20625   0.43989   0.24999   0.00000  Uiso   1.00
O238   O     0.14640   0.50001   0.17451   0.00000  Uiso   1.00
O239   O     0.22559   0.50002   0.17451   0.00000  Uiso   1.00
O240   O     0.33205   0.40984   0.17066   0.00000  Uiso   1.00
C241   C     0.49991   0.57930   0.25010   0.00000  Uiso   1.00
C242   C     0.45558   0.50244   0.40914   0.00000  Uiso   1.00
C243   C     0.54200   0.64518   0.25146   0.00000  Uiso   1.00
C244   C     0.47307   0.50179   0.35061   0.00000  Uiso   1.00
C245   C     0.54211   0.35441   0.25138   0.00000  Uiso   1.00
C246   C     0.50009   0.37608   0.24998   0.00000  Uiso   1.00
C247   C     0.45796   0.35483   0.24870   0.00000  Uiso   1.00
C248   C     0.45784   0.64559   0.24881   0.00000  Uiso   1.00
C249   C     0.49987   0.62392   0.25015   0.00000  Uiso   1.00
C250   C     0.63303   0.52816   0.27933   0.00000  Uiso   1.00
C251   C     0.34917   0.52803   0.27949   0.00000  Uiso   1.00
C252   C     0.47902   0.49997   0.48977   0.00000  Uiso   1.00
C253   C     0.36765   0.47203   0.22061   0.00000  Uiso   1.00
C254   C     0.65160   0.47166   0.22006   0.00000  Uiso   1.00
C255   C     0.50008   0.42071   0.24996   0.00000  Uiso   1.00
C256   C     0.52659   0.50010   0.14982   0.00000  Uiso   1.00
C257   C     0.59584   0.53315   0.01325   0.00000  Uiso   1.00
C258   C     0.54219   0.50393   0.09275   0.00000  Uiso   1.00
C259   C     0.40774   0.48806   0.43770   0.00000  Uiso   1.00
C260   C     0.39740   0.47828   0.49039   0.00000  Uiso   1.00
C261   C     0.43253   0.48282   0.01554   0.00000  Uiso   1.00
C262   C     0.63922   0.44029   0.18571   0.00000  Uiso   1.00
C263   C     0.48901   0.51250   0.43707   0.00000  Uiso   1.00
C264   C     0.36679   0.48407   0.41511   0.00000  Uiso   1.00
C265   C     0.51539   0.50620   0.01515   0.00000  Uiso   1.00
C266   C     0.55989   0.52650   0.48855   0.00000  Uiso   1.00
C267   C     0.56706   0.54170   0.43859   0.00000  Uiso   1.00
C268   C     0.53156   0.53595   0.41402   0.00000  Uiso   1.00
C269   C     0.50837   0.49393   0.06684   0.00000  Uiso   1.00
C270   C     0.58687   0.52220   0.06533   0.00000  Uiso   1.00
Cu271  Cu    0.45311   0.49999   0.25000   0.00000  Uiso   1.00
Cu272  Cu    0.54689   0.50001   0.25000   0.00000  Uiso   1.00
H273   H     0.61363   0.52987   0.08479   0.00000  Uiso   1.00
H274   H     0.47603   0.47765   0.08894   0.00000  Uiso   1.00
H275   H     0.42086   0.47408   0.05601   0.00000  Uiso   1.00
H276   H     0.36138   0.46702   0.01270   0.00000  Uiso   1.00
H277   H     0.53708   0.55155   0.37747   0.00000  Uiso   1.00
H278   H     0.57486   0.62901   0.25260   0.00000  Uiso   1.00
H279   H     0.60774   0.44330   0.17248   0.00000  Uiso   1.00
H280   H     0.36215   0.50607   0.38709   0.00000  Uiso   1.00
H281   H     0.57499   0.37025   0.25249   0.00000  Uiso   1.00
H282   H     0.42509   0.37100   0.24757   0.00000  Uiso   1.00
H283   H     0.42493   0.62974   0.24777   0.00000  Uiso   1.00
H284   H     0.60753   0.55100   0.30248   0.00000  Uiso   1.00
H285   H     0.36065   0.55056   0.30314   0.00000  Uiso   1.00
H286   H     0.39451   0.45020   0.19696   0.00000  Uiso   1.00
H287   H     0.59977   0.55904   0.41884   0.00000  Uiso   1.00
H288   H     0.62997   0.54845   0.49298   0.00000  Uiso   1.00
N289   N     0.38265   0.49999   0.24999   0.00000  Uiso   1.00
N290   N     0.61735   0.50002   0.24999   0.00000  Uiso   1.00
O291   O     0.46042   0.56011   0.25000   0.00000  Uiso   1.00
O292   O     0.33637   0.45688   0.42932   0.00000  Uiso   1.00
O293   O     0.53961   0.56012   0.25000   0.00000  Uiso   1.00
O294   O     0.44108   0.49998   0.32549   0.00000  Uiso   1.00
O295   O     0.52027   0.49999   0.32549   0.00000  Uiso   1.00
O296   O     0.46039   0.43988   0.25000   0.00000  Uiso   1.00
O297   O     0.53958   0.43989   0.24999   0.00000  Uiso   1.00
O298   O     0.47973   0.50001   0.17451   0.00000  Uiso   1.00
O299   O     0.55892   0.50002   0.17451   0.00000  Uiso   1.00
O300   O     0.66538   0.40984   0.17066   0.00000  Uiso   1.00
C301   C     0.83324   0.57930   0.25010   0.00000  Uiso   1.00
C302   C     0.78891   0.50244   0.40914   0.00000  Uiso   1.00
C303   C     0.87533   0.64518   0.25146   0.00000  Uiso   1.00
C304   C     0.80640   0.50179   0.35061   0.00000  Uiso   1.00
C305   C     0.87544   0.35441   0.25138   0.00000  Uiso   1.00
C306   C     0.83343   0.37608   0.24998   0.00000  Uiso   1.00
C307   C     0.79129   0.35483   0.24870   0.00000  Uiso   1.00
C308   C     0.79118   0.64559   0.24881   0.00000  Uiso   1.00
C309   C     0.83321   0.62392   0.25015   0.00000  Uiso   1.00
C310   C     0.96636   0.52816   0.27933   0.00000  Uiso   1.00
C311   C     0.68250   0.52803   0.27949   0.00000  Uiso   1.00
C312   C     0.81235   0.49997   0.48977   0.00000  Uiso   1.00
C313   C     0.70098   0.47203   0.22061   0.00000  Uiso   1.00
C314   C     0.98493   0.47166   0.22006   0.00000  Uiso   1.00
C315   C     0.83341   0.42071   0.24996   0.00000  Uiso   1.00
C316   C     0.85993   0.50010   0.14982   0.00000  Uiso   1.00
C317   C     0.92917   0.53315   0.01325   0.00000  Uiso   1.00
C318   C     0.87552   0.50393   0.09275   0.00000  Uiso   1.00
C319   C     0.74107   0.48806   0.43770   0.00000  Uiso   1.00
C320   C     0.73073   0.47828   0.49039   0.00000  Uiso   1.00
C321   C     0.76586   0.48282   0.01554   0.00000  Uiso   1.00
C322   C     0.97255   0.44029   0.18571   0.00000  Uiso   1.00
C323   C     0.82235   0.51250   0.43707   0.00000  Uiso   1.00
C324   C     0.70012   0.48407   0.41511   0.00000  Uiso   1.00
C325   C     0.84872   0.50620   0.01515   0.00000  Uiso   1.00
C326   C     0.89323   0.52650   0.48855   0.00000  Uiso   1.00
C327   C     0.90039   0.54170   0.43859   0.00000  Uiso   1.00
C328   C     0.86489   0.53595   0.41402   0.00000  Uiso   1.00
C329   C     0.84170   0.49393   0.06684   0.00000  Uiso   1.00
C330   C     0.92020   0.52220   0.06533   0.00000  Uiso   1.00
Cu331  Cu    0.78645   0.49999   0.25000   0.00000  Uiso   1.00
Cu332  Cu    0.88022   0.50001   0.25000   0.00000  Uiso   1.00
H333   H     0.94696   0.52987   0.08479   0.00000  Uiso   1.00
H334   H     0.80937   0.47765   0.08894   0.00000  Uiso   1.00
H335   H     0.75419   0.47408   0.05601   0.00000  Uiso   1.00
H336   H     0.69471   0.46702   0.01270   0.00000  Uiso   1.00
H337   H     0.87041   0.55155   0.37747   0.00000  Uiso   1.00
H338   H     0.90819   0.62901   0.25260   0.00000  Uiso   1.00
H339   H     0.94107   0.44330   0.17248   0.00000  Uiso   1.00
H340   H     0.69548   0.50607   0.38709   0.00000  Uiso   1.00
H341   H     0.90832   0.37025   0.25249   0.00000  Uiso   1.00
H342   H     0.75843   0.37100   0.24757   0.00000  Uiso   1.00
H343   H     0.75827   0.62974   0.24777   0.00000  Uiso   1.00
H344   H     0.94086   0.55100   0.30248   0.00000  Uiso   1.00
H345   H     0.69398   0.55056   0.30314   0.00000  Uiso   1.00
H346   H     0.72784   0.45020   0.19696   0.00000  Uiso   1.00
H347   H     0.93310   0.55904   0.41884   0.00000  Uiso   1.00
H348   H     0.96331   0.54845   0.49298   0.00000  Uiso   1.00
N349   N     0.71598   0.49999   0.24999   0.00000  Uiso   1.00
N350   N     0.95069   0.50002   0.24999   0.00000  Uiso   1.00
O351   O     0.79375   0.56011   0.25000   0.00000  Uiso   1.00
O352   O     0.66970   0.45688   0.42932   0.00000  Uiso   1.00
O353   O     0.87294   0.56012   0.25000   0.00000  Uiso   1.00
O354   O     0.77441   0.49998   0.32549   0.00000  Uiso   1.00
O355   O     0.85360   0.49999   0.32549   0.00000  Uiso   1.00
O356   O     0.79373   0.43988   0.25000   0.00000  Uiso   1.00
O357   O     0.87292   0.43989   0.24999   0.00000  Uiso   1.00
O358   O     0.81306   0.50001   0.17451   0.00000  Uiso   1.00
O359   O     0.89225   0.50002   0.17451   0.00000  Uiso   1.00
O360   O     0.99871   0.40984   0.17066   0.00000  Uiso   1.00
C361   C     0.16657   0.91263   0.25010   0.00000  Uiso   1.00
C362   C     0.12225   0.83577   0.40914   0.00000  Uiso   1.00
C363   C     0.20867   0.97851   0.25146   0.00000  Uiso   1.00
C364   C     0.13973   0.83512   0.35061   0.00000  Uiso   1.00
C365   C     0.20877   0.68775   0.25138   0.00000  Uiso   1.00
C366   C     0.16676   0.70942   0.24998   0.00000  Uiso   1.00
C367   C     0.12462   0.68816   0.24870   0.00000  Uiso   1.00
C368   C     0.12451   0.97892   0.24881   0.00000  Uiso   1.00
C369   C     0.16654   0.95725   0.25015   0.00000  Uiso   1.00
C370   C     0.29969   0.86149   0.27933   0.00000  Uiso   1.00
C371   C     0.01584   0.86137   0.27949   0.00000  Uiso   1.00
C372   C     0.14568   0.83330   0.48977   0.00000  Uiso   1.00
C373   C     0.03432   0.80536   0.22061   0.00000  Uiso   1.00
C374   C     0.31826   0.80499   0.22006   0.00000  Uiso   1.00
C375   C     0.16674   0.75404   0.24996   0.00000  Uiso   1.00
C376   C     0.19326   0.83344   0.14982   0.00000  Uiso   1.00
C377   C     0.26250   0.86648   0.01325   0.00000  Uiso   1.00
C378   C     0.20885   0.83727   0.09275   0.00000  Uiso   1.00
C379   C     0.07441   0.82139   0.43770   0.00000  Uiso   1.00
C380   C     0.06406   0.81161   0.49039   0.00000  Uiso   1.00
C381   C     0.09920   0.81615   0.01554   0.00000  Uiso   1.00
C382   C     0.30589   0.77362   0.18571   0.00000  Uiso   1.00
C383   C     0.15568   0.84583   0.43707   0.00000  Uiso   1.00
C384   C     0.03346   0.81740   0.41511   0.00000  Uiso   1.00
C385   C     0.18205   0.83953   0.01515   0.00000  Uiso   1.00
C386   C     0.22656   0.85983   0.48855   0.00000  Uiso   1.00
C387   C     0.23373   0.87504   0.43859   0.00000  Uiso   1.00
C388   C     0.19822   0.86929   0.41402   0.00000  Uiso   1.00
C389   C     0.17503   0.82726   0.06684   0.00000  Uiso   1.00
C390   C     0.25353   0.85553   0.06533   0.00000  Uiso   1.00
Cu391  Cu    0.11978   0.83333   0.25000   0.00000  Uiso   1.00
Cu392  Cu    0.21355   0.83334   0.25000   0.00000  Uiso   1.00
H393   H     0.28030   0.86321   0.08479   0.00000  Uiso   1.00
H394   H     0.14270   0.81098   0.08894   0.00000  Uiso   1.00
H395   H     0.08752   0.80741   0.05601   0.00000  Uiso   1.00
H396   H     0.02804   0.80035   0.01270   0.00000  Uiso   1.00
H397   H     0.20374   0.88488   0.37747   0.00000  Uiso   1.00
H398   H     0.24153   0.96234   0.25260   0.00000  Uiso   1.00
H399   H     0.27441   0.77663   0.17248   0.00000  Uiso   1.00
H400   H     0.02881   0.83940   0.38709   0.00000  Uiso   1.00
H401   H     0.24165   0.70358   0.25249   0.00000  Uiso   1.00
H402   H     0.09176   0.70433   0.24757   0.00000  Uiso   1.00
H403   H     0.09160   0.96308   0.24777   0.00000  Uiso   1.00
H404   H     0.27419   0.88434   0.30248   0.00000  Uiso   1.00
H405   H     0.02732   0.88389   0.30314   0.00000  Uiso   1.00
H406   H     0.06117   0.78353   0.19696   0.00000  Uiso   1.00
H407   H     0.26643   0.89238   0.41884   0.00000  Uiso   1.00
H408   H     0.29664   0.88178   0.49298   0.00000  Uiso   1.00
N409   N     0.04931   0.83332   0.24999   0.00000  Uiso   1.00
N410   N     0.28402   0.83335   0.24999   0.00000  Uiso   1.00
O411   O     0.12708   0.89345   0.25000   0.00000  Uiso   1.00
O412   O     0.00304   0.79021   0.42932   0.00000  Uiso   1.00
O413   O     0.20627   0.89346   0.25000   0.00000  Uiso   1.00
O414   O     0.10775   0.83332   0.32549   0.00000  Uiso   1.00
O415   O     0.18694   0.83333   0.32549   0.00000  Uiso   1.00
O416   O     0.12706   0.77321   0.25000   0.00000  Uiso   1.00
O417   O     0.20625   0.77322   0.24999   0.00000  Uiso   1.00
O418   O     0.14640   0.83334   0.17451   0.00000  Uiso   1.00
O419   O     0.22559   0.83335   0.17451   0.00000  Uiso   1.00
O420   O     0.33205   0.74318   0.17066   0.00000  Uiso   1.00
C421   C     0.49991   0.91263   0.25010   0.00000  Uiso   1.00
C422   C     0.45558   0.83577   0.40914   0.00000  Uiso   1.00
C423   C     0.54200   0.97851   0.25146   0.00000  Uiso   1.00
C424   C     0.47307   0.83512   0.35061   0.00000  Uiso   1.00
C425   C     0.54211   0.68775   0.25138   0.00000  Uiso   1.00
C426   C     0.50009   0.70942   0.24998   0.00000  Uiso   1.00
C427   C     0.45796   0.68816   0.24870   0.00000  Uiso   1.00
C428   C     0.45784   0.97892   0.24881   0.00000  Uiso   1.00
C429   C     0.49987   0.95725   0.25015   0.00000  Uiso   1.00
C430   C     0.63303   0.86149   0.27933   0.00000  Uiso   1.00
C431   C     0.34917   0.86137   0.27949   0.00000  Uiso   1.00
C432   C     0.47902   0.83330   0.48977   0.00000  Uiso   1.00
C433   C     0.36765   0.80536   0.22061   0.00000  Uiso   1.00
C434   C     0.65160   0.80499   0.22006   0.00000  Uiso   1.00
C435   C     0.50008   0.75404   0.24996   0.00000  Uiso   1.00
C436   C     0.52659   0.83344   0.14982   0.00000  Uiso   1.00
C437   C     0.59584   0.86648   0.01325   0.00000  Uiso   1.00
C438   C     0.54219   0.83727   0.09275   0.00000  Uiso   1.00
C439   C     0.40774   0.82139   0.43770   0.00000  Uiso   1.00
C440   C     0.39740   0.81161   0.49039   0.00000  Uiso   1.00
C441   C     0.43253   0.81615   0.01554   0.00000  Uiso   1.00
C442   C     0.63922   0.77362   0.18571   0.00000  Uiso   1.00
C443   C     0.48901   0.84583   0.43707   0.00000  Uiso   1.00
C444   C     0.36679   0.81740   0.41511   0.00000  Uiso   1.00
C445   C     0.51539   0.83953   0.01515   0.00000  Uiso   1.00
C446   C     0.55989   0.85983   0.48855   0.00000  Uiso   1.00
C447   C     0.56706   0.87504   0.43859   0.00000  Uiso   1.00
C448   C     0.53156   0.86929   0.41402   0.00000  Uiso   1.00
C449   C     0.50837   0.82726   0.06684   0.00000  Uiso   1.00
C450   C     0.58687   0.85553   0.06533   0.00000  Uiso   1.00
Cu451  Cu    0.45311   0.83333   0.25000   0.00000  Uiso   1.00
Cu452  Cu    0.54689   0.83334   0.25000   0.00000  Uiso   1.00
H453   H     0.61363   0.86321   0.08479   0.00000  Uiso   1.00
H454   H     0.47603   0.81098   0.08894   0.00000  Uiso   1.00
H455   H     0.42086   0.80741   0.05601   0.00000  Uiso   1.00
H456   H     0.36138   0.80035   0.01270   0.00000  Uiso   1.00
H457   H     0.53708   0.88488   0.37747   0.00000  Uiso   1.00
H458   H     0.57486   0.96234   0.25260   0.00000  Uiso   1.00
H459   H     0.60774   0.77663   0.17248   0.00000  Uiso   1.00
H460   H     0.36215   0.83940   0.38709   0.00000  Uiso   1.00
H461   H     0.57499   0.70358   0.25249   0.00000  Uiso   1.00
H462   H     0.42509   0.70433   0.24757   0.00000  Uiso   1.00
H463   H     0.42493   0.96308   0.24777   0.00000  Uiso   1.00
H464   H     0.60753   0.88434   0.30248   0.00000  Uiso   1.00
H465   H     0.36065   0.88389   0.30314   0.00000  Uiso   1.00
H466   H     0.39451   0.78353   0.19696   0.00000  Uiso   1.00
H467   H     0.59977   0.89238   0.41884   0.00000  Uiso   1.00
H468   H     0.62997   0.88178   0.49298   0.00000  Uiso   1.00
N469   N     0.38265   0.83332   0.24999   0.00000  Uiso   1.00
N470   N     0.61735   0.83335   0.24999   0.00000  Uiso   1.00
O471   O     0.46042   0.89345   0.25000   0.00000  Uiso   1.00
O472   O     0.33637   0.79021   0.42932   0.00000  Uiso   1.00
O473   O     0.53961   0.89346   0.25000   0.00000  Uiso   1.00
O474   O     0.44108   0.83332   0.32549   0.00000  Uiso   1.00
O475   O     0.52027   0.83333   0.32549   0.00000  Uiso   1.00
O476   O     0.46039   0.77321   0.25000   0.00000  Uiso   1.00
O477   O     0.53958   0.77322   0.24999   0.00000  Uiso   1.00
O478   O     0.47973   0.83334   0.17451   0.00000  Uiso   1.00
O479   O     0.55892   0.83335   0.17451   0.00000  Uiso   1.00
O480   O     0.66538   0.74318   0.17066   0.00000  Uiso   1.00
C481   C     0.83324   0.91263   0.25010   0.00000  Uiso   1.00
C482   C     0.78891   0.83577   0.40914   0.00000  Uiso   1.00
C483   C     0.87533   0.97851   0.25146   0.00000  Uiso   1.00
C484   C     0.80640   0.83512   0.35061   0.00000  Uiso   1.00
C485   C     0.87544   0.68775   0.25138   0.00000  Uiso   1.00
C486   C     0.83343   0.70942   0.24998   0.00000  Uiso   1.00
C487   C     0.79129   0.68816   0.24870   0.00000  Uiso   1.00
C488   C     0.79118   0.97892   0.24881   0.00000  Uiso   1.00
C489   C     0.83321   0.95725   0.25015   0.00000  Uiso   1.00
C490   C     0.96636   0.86149   0.27933   0.00000  Uiso   1.00
C491   C     0.68250   0.86137   0.27949   0.00000  Uiso   1.00
C492   C     0.81235   0.83330   0.48977   0.00000  Uiso   1.00
C493   C     0.70098   0.80536   0.22061   0.00000  Uiso   1.00
C494   C     0.98493   0.80499   0.22006   0.00000  Uiso   1.00
C495   C     0.83341   0.75404   0.24996   0.00000  Uiso   1.00
C496   C     0.85993   0.83344   0.14982   0.00000  Uiso   1.00
C497   C     0.92917   0.86648   0.01325   0.00000  Uiso   1.00
C498   C     0.87552   0.83727   0.09275   0.00000  Uiso   1.00
C499   C     0.74107   0.82139   0.43770   0.00000  Uiso   1.00
C500   C     0.73073   0.81161   0.49039   0.00000  Uiso   1.00
C501   C     0.76586   0.81615   0.01554   0.00000  Uiso   1.00
C502   C     0.97255   0.77362   0.18571   0.00000  Uiso   1.00
C503   C     0.82235   0.84583   0.43707   0.00000  Uiso   1.00
C504   C     0.70012   0.81740   0.41511   0.00000  Uiso   1.00
C505   C     0.84872   0.83953   0.01515   0.00000  Uiso   1.00
C506   C     0.89323   0.85983   0.48855   0.00000  Uiso   1.00
C507   C     0.90039   0.87504   0.43859   0.00000  Uiso   1.00
C508   C     0.86489   0.86929   0.41402   0.00000  Uiso   1.00
C509   C     0.84170   0.82726   0.06684   0.00000  Uiso   1.00
C510   C     0.92020   0.85553   0.06533   0.00000  Uiso   1.00
Cu511  Cu    0.78645   0.83333   0.25000   0.00000  Uiso   1.00
Cu512  Cu    0.88022   0.83334   0.25000   0.00000  Uiso   1.00
H513   H     0.94696   0.86321   0.08479   0.00000  Uiso   1.00
H514   H     0.80937   0.81098   0.08894   0.00000  Uiso   1.00
H515   H     0.75419   0.80741   0.05601   0.00000  Uiso   1.00
H516   H     0.69471   0.80035   0.01270   0.00000  Uiso   1.00
H517   H     0.87041   0.88488   0.37747   0.00000  Uiso   1.00
H518   H     0.90819   0.96234   0.25260   0.00000  Uiso   1.00
H519   H     0.94107   0.77663   0.17248   0.00000  Uiso   1.00
H520   H     0.69548   0.83940   0.38709   0.00000  Uiso   1.00
H521   H     0.90832   0.70358   0.25249   0.00000  Uiso   1.00
H522   H     0.75843   0.70433   0.24757   0.00000  Uiso   1.00
H523   H     0.75827   0.96308   0.24777   0.00000  Uiso   1.00
H524   H     0.94086   0.88434   0.30248   0.00000  Uiso   1.00
H525   H     0.69398   0.88389   0.30314   0.00000  Uiso   1.00
H526   H     0.72784   0.78353   0.19696   0.00000  Uiso   1.00
H527   H     0.93310   0.89238   0.41884   0.00000  Uiso   1.00
H528   H     0.96331   0.88178   0.49298   0.00000  Uiso   1.00
N529   N     0.71598   0.83332   0.24999   0.00000  Uiso   1.00
N530   N     0.95069   0.83335   0.24999   0.00000  Uiso   1.00
O531   O     0.79375   0.89345   0.25000   0.00000  Uiso   1.00
O532   O     0.66970   0.79021   0.42932   0.00000  Uiso   1.00
O533   O     0.87294   0.89346   0.25000   0.00000  Uiso   1.00
O534   O     0.77441   0.83332   0.32549   0.00000  Uiso   1.00
O535   O     0.85360   0.83333   0.32549   0.00000  Uiso   1.00
O536   O     0.79373   0.77321   0.25000   0.00000  Uiso   1.00
O537   O     0.87292   0.77322   0.24999   0.00000  Uiso   1.00
O538   O     0.81306   0.83334   0.17451   0.00000  Uiso   1.00
O539   O     0.89225   0.83335   0.17451   0.00000  Uiso   1.00
O540   O     0.99871   0.74318   0.17066   0.00000  Uiso   1.00
C541   C     0.16657   0.24596   0.75010   0.00000  Uiso   1.00
C542   C     0.12225   0.16911   0.90914   0.00000  Uiso   1.00
C543   C     0.20867   0.31184   0.75146   0.00000  Uiso   1.00
C544   C     0.13973   0.16845   0.85061   0.00000  Uiso   1.00
C545   C     0.20877   0.02108   0.75138   0.00000  Uiso   1.00
C546   C     0.16676   0.04275   0.74998   0.00000  Uiso   1.00
C547   C     0.12462   0.02149   0.74870   0.00000  Uiso   1.00
C548   C     0.12451   0.31226   0.74881   0.00000  Uiso   1.00
C549   C     0.16654   0.29059   0.75015   0.00000  Uiso   1.00
C550   C     0.29969   0.19483   0.77933   0.00000  Uiso   1.00
C551   C     0.01584   0.19470   0.77949   0.00000  Uiso   1.00
C552   C     0.14568   0.16664   0.98977   0.00000  Uiso   1.00
C553   C     0.03432   0.13869   0.72061   0.00000  Uiso   1.00
C554   C     0.31826   0.13833   0.72006   0.00000  Uiso   1.00
C555   C     0.16674   0.08737   0.74996   0.00000  Uiso   1.00
C556   C     0.19326   0.16677   0.64982   0.00000  Uiso   1.00
C557   C     0.26250   0.19982   0.51325   0.00000  Uiso   1.00
C558   C     0.20885   0.17060   0.59275   0.00000  Uiso   1.00
C559   C     0.07441   0.15473   0.93770   0.00000  Uiso   1.00
C560   C     0.06406   0.14495   0.99039   0.00000  Uiso   1.00
C561   C     0.09920   0.14948   0.51554   0.00000  Uiso   1.00
C562   C     0.30589   0.10695   0.68571   0.00000  Uiso   1.00
C563   C     0.15568   0.17916   0.93707   0.00000  Uiso   1.00
C564   C     0.03346   0.15073   0.91511   0.00000  Uiso   1.00
C565   C     0.18205   0.17286   0.51515   0.00000  Uiso   1.00
C566   C     0.22656   0.19316   0.98855   0.00000  Uiso   1.00
C567   C     0.23373   0.20837   0.93859   0.00000  Uiso   1.00
C568   C     0.19822   0.20262   0.91402   0.00000  Uiso   1.00
C569   C     0.17503   0.16060   0.56684   0.00000  Uiso   1.00
C570   C     0.25353   0.18886   0.56533   0.00000  Uiso   1.00
Cu571  Cu    0.11978   0.16666   0.75000   0.00000  Uiso   1.00
Cu572  Cu    0.21355   0.16667   0.75000   0.00000  Uiso   1.00
H573   H     0.28030   0.19654   0.58479   0.00000  Uiso   1.00
H574   H     0.14270   0.14431   0.58894   0.00000  Uiso   1.00
H575   H     0.08752   0.14075   0.55601   0.00000  Uiso   1.00
H576   H     0.02804   0.13369   0.51270   0.00000  Uiso   1.00
H577   H     0.20374   0.21821   0.87747   0.00000  Uiso   1.00
H578   H     0.24153   0.29567   0.75260   0.00000  Uiso   1.00
H579   H     0.27441   0.10997   0.67248   0.00000  Uiso   1.00
H580   H     0.02881   0.17274   0.88709   0.00000  Uiso   1.00
H581   H     0.24165   0.03692   0.75249   0.00000  Uiso   1.00
H582   H     0.09176   0.03766   0.74757   0.00000  Uiso   1.00
H583   H     0.09160   0.29641   0.74777   0.00000  Uiso   1.00
H584   H     0.27419   0.21767   0.80248   0.00000  Uiso   1.00
H585   H     0.02732   0.21723   0.80314   0.00000  Uiso   1.00
H586   H     0.06117   0.11686   0.69696   0.00000  Uiso   1.00
H587   H     0.26643   0.22571   0.91884   0.00000  Uiso   1.00
H588   H     0.29664   0.21511   0.99298   0.00000  Uiso   1.00
N589   N     0.04931   0.16666   0.74999   0.00000  Uiso   1.00
N590   N     0.28402   0.16669   0.74999   0.00000  Uiso   1.00
O591   O     0.12708   0.22678   0.75000   0.00000  Uiso   1.00
O592   O     0.00304   0.12354   0.92932   0.00000  Uiso   1.00
O593   O     0.20627   0.22679   0.75000   0.00000  Uiso   1.00
O594   O     0.10775   0.16665   0.82549   0.00000  Uiso   1.00
O595   O     0.18694   0.16666   0.82549   0.00000  Uiso   1.00
O596   O     0.12706   0.10654   0.75000   0.00000  Uiso   1.00
O597   O     0.20625   0.10655   0.74999   0.00000  Uiso   1.00
O598   O     0.14640   0.16667   0.67451   0.00000  Uiso   1.00
O599   O     0.22559   0.16668   0.67451   0.00000  Uiso   1.00
O600   O     0.33205   0.07651   0.67066   0.00000  Uiso   1.00
C601   C     0.49991   0.24596   0.75010   0.00000  Uiso   1.00
C602   C     0.45558   0.16911   0.90914   0.00000  Uiso   1.00
C603   C     0.54200   0.31184   0.75146   0.00000  Uiso   1.00
C604   C     0.47307   0.16845   0.85061   0.00000  Uiso   1.00
C605   C     0.54211   0.02108   0.75138   0.00000  Uiso   1.00
C606   C     0.50009   0.04275   0.74998   0.00000  Uiso   1.00
C607   C     0.45796   0.02149   0.74870   0.00000  Uiso   1.00
C608   C     0.45784   0.31226   0.74881   0.00000  Uiso   1.00
C609   C     0.49987   0.29059   0.75015   0.00000  Uiso   1.00
C610   C     0.63303   0.19483   0.77933   0.00000  Uiso   1.00
C611   C     0.34917   0.19470   0.77949   0.00000  Uiso   1.00
C612   C     0.47902   0.16664   0.98977   0.00000  Uiso   1.00
C613   C     0.36765   0.13869   0.72061   0.00000  Uiso   1.00
C614   C     0.65160   0.13833   0.72006   0.00000  Uiso   1.00
C615   C     0.50008   0.08737   0.74996   0.00000  Uiso   1.00
C616   C     0.52659   0.16677   0.64982   0.00000  Uiso   1.00
C617   C     0.59584   0.19982   0.51325   0.00000  Uiso   1.00
C618   C     0.54219   0.17060   0.59275   0.00000  Uiso   1.00
C619   C     0.40774   0.15473   0.93770   0.00000  Uiso   1.00
C620   C     0.39740   0.14495   0.99039   0.00000  Uiso   1.00
C621   C     0.43253   0.14948   0.51554   0.00000  Uiso   1.00
C622   C     0.63922   0.10695   0.68571   0.00000  Uiso   1.00
C623   C     0.48901   0.17916   0.93707   0.00000  Uiso   1.00
C624   C     0.36679   0.15073   0.91511   0.00000  Uiso   1.00
C625   C     0.51539   0.17286   0.51515   0.00000  Uiso   1.00
C626   C     0.55989   0.19316   0.98855   0.00000  Uiso   1.00
C627   C     0.56706   0.20837   0.93859   0.00000  Uiso   1.00
C628   C     0.53156   0.20262   0.91402   0.00000  Uiso   1.00
C629   C     0.50837   0.16060   0.56684   0.00000  Uiso   1.00
C630   C     0.58687   0.18886   0.56533   0.00000  Uiso   1.00
Cu631  Cu    0.45311   0.16666   0.75000   0.00000  Uiso   1.00
Cu632  Cu    0.54689   0.16667   0.75000   0.00000  Uiso   1.00
H633   H     0.61363   0.19654   0.58479   0.00000  Uiso   1.00
H634   H     0.47603   0.14431   0.58894   0.00000  Uiso   1.00
H635   H     0.42086   0.14075   0.55601   0.00000  Uiso   1.00
H636   H     0.36138   0.13369   0.51270   0.00000  Uiso   1.00
H637   H     0.53708   0.21821   0.87747   0.00000  Uiso   1.00
H638   H     0.57486   0.29567   0.75260   0.00000  Uiso   1.00
H639   H     0.60774   0.10997   0.67248   0.00000  Uiso   1.00
H640   H     0.36215   0.17274   0.88709   0.00000  Uiso   1.00
H641   H     0.57499   0.03692   0.75249   0.00000  Uiso   1.00
H642   H     0.42509   0.03766   0.74757   0.00000  Uiso   1.00
H643   H     0.42493   0.29641   0.74777   0.00000  Uiso   1.00
H644   H     0.60753   0.21767   0.80248   0.00000  Uiso   1.00
H645   H     0.36065   0.21723   0.80314   0.00000  Uiso   1.00
H646   H     0.39451   0.11686   0.69696   0.00000  Uiso   1.00
H647   H     0.59977   0.22571   0.91884   0.00000  Uiso   1.00
H648   H     0.62997   0.21511   0.99298   0.00000  Uiso   1.00
N649   N     0.38265   0.16666   0.74999   0.00000  Uiso   1.00
N650   N     0.61735   0.16669   0.74999   0.00000  Uiso   1.00
O651   O     0.46042   0.22678   0.75000   0.00000  Uiso   1.00
O652   O     0.33637   0.12354   0.92932   0.00000  Uiso   1.00
O653   O     0.53961   0.22679   0.75000   0.00000  Uiso   1.00
O654   O     0.44108   0.16665   0.82549   0.00000  Uiso   1.00
O655   O     0.52027   0.16666   0.82549   0.00000  Uiso   1.00
O656   O     0.46039   0.10654   0.75000   0.00000  Uiso   1.00
O657   O     0.53958   0.10655   0.74999   0.00000  Uiso   1.00
O658   O     0.47973   0.16667   0.67451   0.00000  Uiso   1.00
O659   O     0.55892   0.16668   0.67451   0.00000  Uiso   1.00
O660   O     0.66538   0.07651   0.67066   0.00000  Uiso   1.00
C661   C     0.83324   0.24596   0.75010   0.00000  Uiso   1.00
C662   C     0.78891   0.16911   0.90914   0.00000  Uiso   1.00
C663   C     0.87533   0.31184   0.75146   0.00000  Uiso   1.00
C664   C     0.80640   0.16845   0.85061   0.00000  Uiso   1.00
C665   C     0.87544   0.02108   0.75138   0.00000  Uiso   1.00
C666   C     0.83343   0.04275   0.74998   0.00000  Uiso   1.00
C667   C     0.79129   0.02149   0.74870   0.00000  Uiso   1.00
C668   C     0.79118   0.31226   0.74881   0.00000  Uiso   1.00
C669   C     0.83321   0.29059   0.75015   0.00000  Uiso   1.00
C670   C     0.96636   0.19483   0.77933   0.00000  Uiso   1.00
C671   C     0.68250   0.19470   0.77949   0.00000  Uiso   1.00
C672   C     0.81235   0.16664   0.98977   0.00000  Uiso   1.00
C673   C     0.70098   0.13869   0.72061   0.00000  Uiso   1.00
C674   C     0.98493   0.13833   0.72006   0.00000  Uiso   1.00
C675   C     0.83341   0.08737   0.74996   0.00000  Uiso   1.00
C676   C     0.85993   0.16677   0.64982   0.00000  Uiso   1.00
C677   C     0.92917   0.19982   0.51325   0.00000  Uiso   1.00
C678   C     0.87552   0.17060   0.59275   0.00000  Uiso   1.00
C679   C     0.74107   0.15473   0.93770   0.00000  Uiso   1.00
C680   C     0.73073   0.14495   0.99039   0.00000  Uiso   1.00
C681   C     0.76586   0.14948   0.51554   0.00000  Uiso   1.00
C682   C     0.97255   0.10695   0.68571   0.00000  Uiso   1.00
C683   C     0.82235   0.17916   0.93707   0.00000  Uiso   1.00
C684   C     0.70012   0.15073   0.91511   0.00000  Uiso   1.00
C685   C     0.84872   0.17286   0.51515   0.00000  Uiso   1.00
C686   C     0.89323   0.19316   0.98855   0.00000  Uiso   1.00
C687   C     0.90039   0.20837   0.93859   0.00000  Uiso   1.00
C688   C     0.86489   0.20262   0.91402   0.00000  Uiso   1.00
C689   C     0.84170   0.16060   0.56684   0.00000  Uiso   1.00
C690   C     0.92020   0.18886   0.56533   0.00000  Uiso   1.00
Cu691  Cu    0.78645   0.16666   0.75000   0.00000  Uiso   1.00
Cu692  Cu    0.88022   0.16667   0.75000   0.00000  Uiso   1.00
H693   H     0.94696   0.19654   0.58479   0.00000  Uiso   1.00
H694   H     0.80937   0.14431   0.58894   0.00000  Uiso   1.00
H695   H     0.75419   0.14075   0.55601   0.00000  Uiso   1.00
H696   H     0.69471   0.13369   0.51270   0.00000  Uiso   1.00
H697   H     0.87041   0.21821   0.87747   0.00000  Uiso   1.00
H698   H     0.90819   0.29567   0.75260   0.00000  Uiso   1.00
H699   H     0.94107   0.10997   0.67248   0.00000  Uiso   1.00
H700   H     0.69548   0.17274   0.88709   0.00000  Uiso   1.00
H701   H     0.90832   0.03692   0.75249   0.00000  Uiso   1.00
H702   H     0.75843   0.03766   0.74757   0.00000  Uiso   1.00
H703   H     0.75827   0.29641   0.74777   0.00000  Uiso   1.00
H704   H     0.94086   0.21767   0.80248   0.00000  Uiso   1.00
H705   H     0.69398   0.21723   0.80314   0.00000  Uiso   1.00
H706   H     0.72784   0.11686   0.69696   0.00000  Uiso   1.00
H707   H     0.93310   0.22571   0.91884   0.00000  Uiso   1.00
H708   H     0.96331   0.21511   0.99298   0.00000  Uiso   1.00
N709   N     0.71598   0.16666   0.74999   0.00000  Uiso   1.00
N710   N     0.95069   0.16669   0.74999   0.00000  Uiso   1.00
O711   O     0.79375   0.22678   0.75000   0.00000  Uiso   1.00
O712   O     0.66970   0.12354   0.92932   0.00000  Uiso   1.00
O713   O     0.87294   0.22679   0.75000   0.00000  Uiso   1.00
O714   O     0.77441   0.16665   0.82549   0.00000  Uiso   1.00
O715   O     0.85360   0.16666   0.82549   0.00000  Uiso   1.00
O716   O     0.79373   0.10654   0.75000   0.00000  Uiso   1.00
O717   O     0.87292   0.10655   0.74999   0.00000  Uiso   1.00
O718   O     0.81306   0.16667   0.67451   0.00000  Uiso   1.00
O719   O     0.89225   0.16668   0.67451   0.00000  Uiso   1.00
O720   O     0.99871   0.07651   0.67066   0.00000  Uiso   1.00
C721   C     0.16657   0.57930   0.75010   0.00000  Uiso   1.00
C722   C     0.12225   0.50244   0.90914   0.00000  Uiso   1.00
C723   C     0.20867   0.64518   0.75146   0.00000  Uiso   1.00
C724   C     0.13973   0.50179   0.85061   0.00000  Uiso   1.00
C725   C     0.20877   0.35441   0.75138   0.00000  Uiso   1.00
C726   C     0.16676   0.37608   0.74998   0.00000  Uiso   1.00
C727   C     0.12462   0.35483   0.74870   0.00000  Uiso   1.00
C728   C     0.12451   0.64559   0.74881   0.00000  Uiso   1.00
C729   C     0.16654   0.62392   0.75015   0.00000  Uiso   1.00
C730   C     0.29969   0.52816   0.77933   0.00000  Uiso   1.00
C731   C     0.01584   0.52803   0.77949   0.00000  Uiso   1.00
C732   C     0.14568   0.49997   0.98977   0.00000  Uiso   1.00
C733   C     0.03432   0.47203   0.72061   0.00000  Uiso   1.00
C734   C     0.31826   0.47166   0.72006   0.00000  Uiso   1.00
C735   C     0.16674   0.42071   0.74996   0.00000  Uiso   1.00
C736   C     0.19326   0.50010   0.64982   0.00000  Uiso   1.00
C737   C     0.26250   0.53315   0.51325   0.00000  Uiso   1.00
C738   C     0.20885   0.50393   0.59275   0.00000  Uiso   1.00
C739   C     0.07441   0.48806   0.93770   0.00000  Uiso   1.00
C740   C     0.06406   0.47828   0.99039   0.00000  Uiso   1.00
C741   C     0.09920   0.48282   0.51554   0.00000  Uiso   1.00
C742   C     0.30589   0.44029   0.68571   0.00000  Uiso   1.00
C743   C     0.15568   0.51250   0.93707   0.00000  Uiso   1.00
C744   C     0.03346   0.48407   0.91511   0.00000  Uiso   1.00
C745   C     0.18205   0.50620   0.51515   0.00000  Uiso   1.00
C746   C     0.22656   0.52650   0.98855   0.00000  Uiso   1.00
C747   C     0.23373   0.54170   0.93859   0.00000  Uiso   1.00
C748   C     0.19822   0.53595   0.91402   0.00000  Uiso   1.00
C749   C     0.17503   0.49393   0.56684   0.00000  Uiso   1.00
C750   C     0.25353   0.52220   0.56533   0.00000  Uiso   1.00
Cu751  Cu    0.11978   0.49999   0.75000   0.00000  Uiso   1.00
Cu752  Cu    0.21355   0.50001   0.75000   0.00000  Uiso   1.00
H753   H     0.28030   0.52987   0.58479   0.00000  Uiso   1.00
H754   H     0.14270   0.47765   0.58894   0.00000  Uiso   1.00
H755   H     0.08752   0.47408   0.55601   0.00000  Uiso   1.00
H756   H     0.02804   0.46702   0.51270   0.00000  Uiso   1.00
H757   H     0.20374   0.55155   0.87747   0.00000  Uiso   1.00
H758   H     0.24153   0.62901   0.75260   0.00000  Uiso   1.00
H759   H     0.27441   0.44330   0.67248   0.00000  Uiso   1.00
H760   H     0.02881   0.50607   0.88709   0.00000  Uiso   1.00
H761   H     0.24165   0.37025   0.75249   0.00000  Uiso   1.00
H762   H     0.09176   0.37100   0.74757   0.00000  Uiso   1.00
H763   H     0.09160   0.62974   0.74777   0.00000  Uiso   1.00
H764   H     0.27419   0.55100   0.80248   0.00000  Uiso   1.00
H765   H     0.02732   0.55056   0.80314   0.00000  Uiso   1.00
H766   H     0.06117   0.45020   0.69696   0.00000  Uiso   1.00
H767   H     0.26643   0.55904   0.91884   0.00000  Uiso   1.00
H768   H     0.29664   0.54845   0.99298   0.00000  Uiso   1.00
N769   N     0.04931   0.49999   0.74999   0.00000  Uiso   1.00
N770   N     0.28402   0.50002   0.74999   0.00000  Uiso   1.00
O771   O     0.12708   0.56011   0.75000   0.00000  Uiso   1.00
O772   O     0.00304   0.45688   0.92932   0.00000  Uiso   1.00
O773   O     0.20627   0.56012   0.75000   0.00000  Uiso   1.00
O774   O     0.10775   0.49998   0.82549   0.00000  Uiso   1.00
O775   O     0.18694   0.49999   0.82549   0.00000  Uiso   1.00
O776   O     0.12706   0.43988   0.75000   0.00000  Uiso   1.00
O777   O     0.20625   0.43989   0.74999   0.00000  Uiso   1.00
O778   O     0.14640   0.50001   0.67451   0.00000  Uiso   1.00
O779   O     0.22559   0.50002   0.67451   0.00000  Uiso   1.00
O780   O     0.33205   0.40984   0.67066   0.00000  Uiso   1.00
C781   C     0.49991   0.57930   0.75010   0.00000  Uiso   1.00
C782   C     0.45558   0.50244   0.90914   0.00000  Uiso   1.00
C783   C     0.54200   0.64518   0.75146   0.00000  Uiso   1.00
C784   C     0.47307   0.50179   0.85061   0.00000  Uiso   1.00
C785   C     0.54211   0.35441   0.75138   0.00000  Uiso   1.00
C786   C     0.50009   0.37608   0.74998   0.00000  Uiso   1.00
C787   C     0.45796   0.35483   0.74870   0.00000  Uiso   1.00
C788   C     0.45784   0.64559   0.74881   0.00000  Uiso   1.00
C789   C     0.49987   0.62392   0.75015   0.00000  Uiso   1.00
C790   C     0.63303   0.52816   0.77933   0.00000  Uiso   1.00
C791   C     0.34917   0.52803   0.77949   0.00000  Uiso   1.00
C792   C     0.47902   0.49997   0.98977   0.00000  Uiso   1.00
C793   C     0.36765   0.47203   0.72061   0.00000  Uiso   1.00
C794   C     0.65160   0.47166   0.72006   0.00000  Uiso   1.00
C795   C     0.50008   0.42071   0.74996   0.00000  Uiso   1.00
C796   C     0.52659   0.50010   0.64982   0.00000  Uiso   1.00
C797   C     0.59584   0.53315   0.51325   0.00000  Uiso   1.00
C798   C     0.54219   0.50393   0.59275   0.00000  Uiso   1.00
C799   C     0.40774   0.48806   0.93770   0.00000  Uiso   1.00
C800   C     0.39740   0.47828   0.99039   0.00000  Uiso   1.00
C801   C     0.43253   0.48282   0.51554   0.00000  Uiso   1.00
C802   C     0.63922   0.44029   0.68571   0.00000  Uiso   1.00
C803   C     0.48901   0.51250   0.93707   0.00000  Uiso   1.00
C804   C     0.36679   0.48407   0.91511   0.00000  Uiso   1.00
C805   C     0.51539   0.50620   0.51515   0.00000  Uiso   1.00
C806   C     0.55989   0.52650   0.98855   0.00000  Uiso   1.00
C807   C     0.56706   0.54170   0.93859   0.00000  Uiso   1.00
C808   C     0.53156   0.53595   0.91402   0.00000  Uiso   1.00
C809   C     0.50837   0.49393   0.56684   0.00000  Uiso   1.00
C810   C     0.58687   0.52220   0.56533   0.00000  Uiso   1.00
Cu811  Cu    0.45311   0.49999   0.75000   0.00000  Uiso   1.00
Cu812  Cu    0.54689   0.50001   0.75000   0.00000  Uiso   1.00
H813   H     0.61363   0.52987   0.58479   0.00000  Uiso   1.00
H814   H     0.47603   0.47765   0.58894   0.00000  Uiso   1.00
H815   H     0.42086   0.47408   0.55601   0.00000  Uiso   1.00
H816   H     0.36138   0.46702   0.51270   0.00000  Uiso   1.00
H817   H     0.53708   0.55155   0.87747   0.00000  Uiso   1.00
H818   H     0.57486   0.62901   0.75260   0.00000  Uiso   1.00
H819   H     0.60774   0.44330   0.67248   0.00000  Uiso   1.00
H820   H     0.36215   0.50607   0.88709   0.00000  Uiso   1.00
H821   H     0.57499   0.37025   0.75249   0.00000  Uiso   1.00
H822   H     0.42509   0.37100   0.74757   0.00000  Uiso   1.00
H823   H     0.42493   0.62974   0.74777   0.00000  Uiso   1.00
H824   H     0.60753   0.55100   0.80248   0.00000  Uiso   1.00
H825   H     0.36065   0.55056   0.80314   0.00000  Uiso   1.00
H826   H     0.39451   0.45020   0.69696   0.00000  Uiso   1.00
H827   H     0.59977   0.55904   0.91884   0.00000  Uiso   1.00
H828   H     0.62997   0.54845   0.99298   0.00000  Uiso   1.00
N829   N     0.38265   0.49999   0.74999   0.00000  Uiso   1.00
N830   N     0.61735   0.50002   0.74999   0.00000  Uiso   1.00
O831   O     0.46042   0.56011   0.75000   0.00000  Uiso   1.00
O832   O     0.33637   0.45688   0.92932   0.00000  Uiso   1.00
O833   O     0.53961   0.56012   0.75000   0.00000  Uiso   1.00
O834   O     0.44108   0.49998   0.82549   0.00000  Uiso   1.00
O835   O     0.52027   0.49999   0.82549   0.00000  Uiso   1.00
O836   O     0.46039   0.43988   0.75000   0.00000  Uiso   1.00
O837   O     0.53958   0.43989   0.74999   0.00000  Uiso   1.00
O838   O     0.47973   0.50001   0.67451   0.00000  Uiso   1.00
O839   O     0.55892   0.50002   0.67451   0.00000  Uiso   1.00
O840   O     0.66538   0.40984   0.67066   0.00000  Uiso   1.00
C841   C     0.83324   0.57930   0.75010   0.00000  Uiso   1.00
C842   C     0.78891   0.50244   0.90914   0.00000  Uiso   1.00
C843   C     0.87533   0.64518   0.75146   0.00000  Uiso   1.00
C844   C     0.80640   0.50179   0.85061   0.00000  Uiso   1.00
C845   C     0.87544   0.35441   0.75138   0.00000  Uiso   1.00
C846   C     0.83343   0.37608   0.74998   0.00000  Uiso   1.00
C847   C     0.79129   0.35483   0.74870   0.00000  Uiso   1.00
C848   C     0.79118   0.64559   0.74881   0.00000  Uiso   1.00
C849   C     0.83321   0.62392   0.75015   0.00000  Uiso   1.00
C850   C     0.96636   0.52816   0.77933   0.00000  Uiso   1.00
C851   C     0.68250   0.52803   0.77949   0.00000  Uiso   1.00
C852   C     0.81235   0.49997   0.98977   0.00000  Uiso   1.00
C853   C     0.70098   0.47203   0.72061   0.00000  Uiso   1.00
C854   C     0.98493   0.47166   0.72006   0.00000  Uiso   1.00
C855   C     0.83341   0.42071   0.74996   0.00000  Uiso   1.00
C856   C     0.85993   0.50010   0.64982   0.00000  Uiso   1.00
C857   C     0.92917   0.53315   0.51325   0.00000  Uiso   1.00
C858   C     0.87552   0.50393   0.59275   0.00000  Uiso   1.00
C859   C     0.74107   0.48806   0.93770   0.00000  Uiso   1.00
C860   C     0.73073   0.47828   0.99039   0.00000  Uiso   1.00
C861   C     0.76586   0.48282   0.51554   0.00000  Uiso   1.00
C862   C     0.97255   0.44029   0.68571   0.00000  Uiso   1.00
C863   C     0.82235   0.51250   0.93707   0.00000  Uiso   1.00
C864   C     0.70012   0.48407   0.91511   0.00000  Uiso   1.00
C865   C     0.84872   0.50620   0.51515   0.00000  Uiso   1.00
C866   C     0.89323   0.52650   0.98855   0.00000  Uiso   1.00
C867   C     0.90039   0.54170   0.93859   0.00000  Uiso   1.00
C868   C     0.86489   0.53595   0.91402   0.00000  Uiso   1.00
C869   C     0.84170   0.49393   0.56684   0.00000  Uiso   1.00
C870   C     0.92020   0.52220   0.56533   0.00000  Uiso   1.00
Cu871  Cu    0.78645   0.49999   0.75000   0.00000  Uiso   1.00
Cu872  Cu    0.88022   0.50001   0.75000   0.00000  Uiso   1.00
H873   H     0.94696   0.52987   0.58479   0.00000  Uiso   1.00
H874   H     0.80937   0.47765   0.58894   0.00000  Uiso   1.00
H875   H     0.75419   0.47408   0.55601   0.00000  Uiso   1.00
H876   H     0.69471   0.46702   0.51270   0.00000  Uiso   1.00
H877   H     0.87041   0.55155   0.87747   0.00000  Uiso   1.00
H878   H     0.90819   0.62901   0.75260   0.00000  Uiso   1.00
H879   H     0.94107   0.44330   0.67248   0.00000  Uiso   1.00
H880   H     0.69548   0.50607   0.88709   0.00000  Uiso   1.00
H881   H     0.90832   0.37025   0.75249   0.00000  Uiso   1.00
H882   H     0.75843   0.37100   0.74757   0.00000  Uiso   1.00
H883   H     0.75827   0.62974   0.74777   0.00000  Uiso   1.00
H884   H     0.94086   0.55100   0.80248   0.00000  Uiso   1.00
H885   H     0.69398   0.55056   0.80314   0.00000  Uiso   1.00
H886   H     0.72784   0.45020   0.69696   0.00000  Uiso   1.00
H887   H     0.93310   0.55904   0.91884   0.00000  Uiso   1.00
H888   H     0.96331   0.54845   0.99298   0.00000  Uiso   1.00
N889   N     0.71598   0.49999   0.74999   0.00000  Uiso   1.00
N890   N     0.95069   0.50002   0.74999   0.00000  Uiso   1.00
O891   O     0.79375   0.56011   0.75000   0.00000  Uiso   1.00
O892   O     0.66970   0.45688   0.92932   0.00000  Uiso   1.00
O893   O     0.87294   0.56012   0.75000   0.00000  Uiso   1.00
O894   O     0.77441   0.49998   0.82549   0.00000  Uiso   1.00
O895   O     0.85360   0.49999   0.82549   0.00000  Uiso   1.00
O896   O     0.79373   0.43988   0.75000   0.00000  Uiso   1.00
O897   O     0.87292   0.43989   0.74999   0.00000  Uiso   1.00
O898   O     0.81306   0.50001   0.67451   0.00000  Uiso   1.00
O899   O     0.89225   0.50002   0.67451   0.00000  Uiso   1.00
O900   O     0.99871   0.40984   0.67066   0.00000  Uiso   1.00
C901   C     0.16657   0.91263   0.75010   0.00000  Uiso   1.00
C902   C     0.12225   0.83577   0.90914   0.00000  Uiso   1.00
C903   C     0.20867   0.97851   0.75146   0.00000  Uiso   1.00
C904   C     0.13973   0.83512   0.85061   0.00000  Uiso   1.00
C905   C     0.20877   0.68775   0.75138   0.00000  Uiso   1.00
C906   C     0.16676   0.70942   0.74998   0.00000  Uiso   1.00
C907   C     0.12462   0.68816   0.74870   0.00000  Uiso   1.00
C908   C     0.12451   0.97892   0.74881   0.00000  Uiso   1.00
C909   C     0.16654   0.95725   0.75015   0.00000  Uiso   1.00
C910   C     0.29969   0.86149   0.77933   0.00000  Uiso   1.00
C911   C     0.01584   0.86137   0.77949   0.00000  Uiso   1.00
C912   C     0.14568   0.83330   0.98977   0.00000  Uiso   1.00
C913   C     0.03432   0.80536   0.72061   0.00000  Uiso   1.00
C914   C     0.31826   0.80499   0.72006   0.00000  Uiso   1.00
C915   C     0.16674   0.75404   0.74996   0.00000  Uiso   1.00
C916   C     0.19326   0.83344   0.64982   0.00000  Uiso   1.00
C917   C     0.26250   0.86648   0.51325   0.00000  Uiso   1.00
C918   C     0.20885   0.83727   0.59275   0.00000  Uiso   1.00
C919   C     0.07441   0.82139   0.93770   0.00000  Uiso   1.00
C920   C     0.06406   0.81161   0.99039   0.00000  Uiso   1.00
C921   C     0.09920   0.81615   0.51554   0.00000  Uiso   1.00
C922   C     0.30589   0.77362   0.68571   0.00000  Uiso   1.00
C923   C     0.15568   0.84583   0.93707   0.00000  Uiso   1.00
C924   C     0.03346   0.81740   0.91511   0.00000  Uiso   1.00
C925   C     0.18205   0.83953   0.51515   0.00000  Uiso   1.00
C926   C     0.22656   0.85983   0.98855   0.00000  Uiso   1.00
C927   C     0.23373   0.87504   0.93859   0.00000  Uiso   1.00
C928   C     0.19822   0.86929   0.91402   0.00000  Uiso   1.00
C929   C     0.17503   0.82726   0.56684   0.00000  Uiso   1.00
C930   C     0.25353   0.85553   0.56533   0.00000  Uiso   1.00
Cu931  Cu    0.11978   0.83333   0.75000   0.00000  Uiso   1.00
Cu932  Cu    0.21355   0.83334   0.75000   0.00000  Uiso   1.00
H933   H     0.28030   0.86321   0.58479   0.00000  Uiso   1.00
H934   H     0.14270   0.81098   0.58894   0.00000  Uiso   1.00
H935   H     0.08752   0.80741   0.55601   0.00000  Uiso   1.00
H936   H     0.02804   0.80035   0.51270   0.00000  Uiso   1.00
H937   H     0.20374   0.88488   0.87747   0.00000  Uiso   1.00
H938   H     0.24153   0.96234   0.75260   0.00000  Uiso   1.00
H939   H     0.27441   0.77663   0.67248   0.00000  Uiso   1.00
H940   H     0.02881   0.83940   0.88709   0.00000  Uiso   1.00
H941   H     0.24165   0.70358   0.75249   0.00000  Uiso   1.00
H942   H     0.09176   0.70433   0.74757   0.00000  Uiso   1.00
H943   H     0.09160   0.96308   0.74777   0.00000  Uiso   1.00
H944   H     0.27419   0.88434   0.80248   0.00000  Uiso   1.00
H945   H     0.02732   0.88389   0.80314   0.00000  Uiso   1.00
H946   H     0.06117   0.78353   0.69696   0.00000  Uiso   1.00
H947   H     0.26643   0.89238   0.91884   0.00000  Uiso   1.00
H948   H     0.29664   0.88178   0.99298   0.00000  Uiso   1.00
N949   N     0.04931   0.83332   0.74999   0.00000  Uiso   1.00
N950   N     0.28402   0.83335   0.74999   0.00000  Uiso   1.00
O951   O     0.12708   0.89345   0.75000   0.00000  Uiso   1.00
O952   O     0.00304   0.79021   0.92932   0.00000  Uiso   1.00
O953   O     0.20627   0.89346   0.75000   0.00000  Uiso   1.00
O954   O     0.10775   0.83332   0.82549   0.00000  Uiso   1.00
O955   O     0.18694   0.83333   0.82549   0.00000  Uiso   1.00
O956   O     0.12706   0.77321   0.75000   0.00000  Uiso   1.00
O957   O     0.20625   0.77322   0.74999   0.00000  Uiso   1.00
O958   O     0.14640   0.83334   0.67451   0.00000  Uiso   1.00
O959   O     0.22559   0.83335   0.67451   0.00000  Uiso   1.00
O960   O     0.33205   0.74318   0.67066   0.00000  Uiso   1.00
C961   C     0.49991   0.91263   0.75010   0.00000  Uiso   1.00
C962   C     0.45558   0.83577   0.90914   0.00000  Uiso   1.00
C963   C     0.54200   0.97851   0.75146   0.00000  Uiso   1.00
C964   C     0.47307   0.83512   0.85061   0.00000  Uiso   1.00
C965   C     0.54211   0.68775   0.75138   0.00000  Uiso   1.00
C966   C     0.50009   0.70942   0.74998   0.00000  Uiso   1.00
C967   C     0.45796   0.68816   0.74870   0.00000  Uiso   1.00
C968   C     0.45784   0.97892   0.74881   0.00000  Uiso   1.00
C969   C     0.49987   0.95725   0.75015   0.00000  Uiso   1.00
C970   C     0.63303   0.86149   0.77933   0.00000  Uiso   1.00
C971   C     0.34917   0.86137   0.77949   0.00000  Uiso   1.00
C972   C     0.47902   0.83330   0.98977   0.00000  Uiso   1.00
C973   C     0.36765   0.80536   0.72061   0.00000  Uiso   1.00
C974   C     0.65160   0.80499   0.72006   0.00000  Uiso   1.00
C975   C     0.50008   0.75404   0.74996   0.00000  Uiso   1.00
C976   C     0.52659   0.83344   0.64982   0.00000  Uiso   1.00
C977   C     0.59584   0.86648   0.51325   0.00000  Uiso   1.00
C978   C     0.54219   0.83727   0.59275   0.00000  Uiso   1.00
C979   C     0.40774   0.82139   0.93770   0.00000  Uiso   1.00
C980   C     0.39740   0.81161   0.99039   0.00000  Uiso   1.00
C981   C     0.43253   0.81615   0.51554   0.00000  Uiso   1.00
C982   C     0.63922   0.77362   0.68571   0.00000  Uiso   1.00
C983   C     0.48901   0.84583   0.93707   0.00000  Uiso   1.00
C984   C     0.36679   0.81740   0.91511   0.00000  Uiso   1.00
C985   C     0.51539   0.83953   0.51515   0.00000  Uiso   1.00
C986   C     0.55989   0.85983   0.98855   0.00000  Uiso   1.00
C987   C     0.56706   0.87504   0.93859   0.00000  Uiso   1.00
C988   C     0.53156   0.86929   0.91402   0.00000  Uiso   1.00
C989   C     0.50837   0.82726   0.56684   0.00000  Uiso   1.00
C990   C     0.58687   0.85553   0.56533   0.00000  Uiso   1.00
Cu991  Cu    0.45311   0.83333   0.75000   0.00000  Uiso   1.00
Cu992  Cu    0.54689   0.83334   0.75000   0.00000  Uiso   1.00
H993   H     0.61363   0.86321   0.58479   0.00000  Uiso   1.00
H994   H     0.47603   0.81098   0.58894   0.00000  Uiso   1.00
H995   H     0.42086   0.80741   0.55601   0.00000  Uiso   1.00
H996   H     0.36138   0.80035   0.51270   0.00000  Uiso   1.00
H997   H     0.53708   0.88488   0.87747   0.00000  Uiso   1.00
H998   H     0.57486   0.96234   0.75260   0.00000  Uiso   1.00
H999   H     0.60774   0.77663   0.67248   0.00000  Uiso   1.00
H1000  H     0.36215   0.83940   0.88709   0.00000  Uiso   1.00
H1001  H     0.57499   0.70358   0.75249   0.00000  Uiso   1.00
H1002  H     0.42509   0.70433   0.74757   0.00000  Uiso   1.00
H1003  H     0.42493   0.96308   0.74777   0.00000  Uiso   1.00
H1004  H     0.60753   0.88434   0.80248   0.00000  Uiso   1.00
H1005  H     0.36065   0.88389   0.80314   0.00000  Uiso   1.00
H1006  H     0.39451   0.78353   0.69696   0.00000  Uiso   1.00
H1007  H     0.59977   0.89238   0.91884   0.00000  Uiso   1.00
H1008  H     0.62997   0.88178   0.99298   0.00000  Uiso   1.00
N1009  N     0.38265   0.83332   0.74999   0.00000  Uiso   1.00
N1010  N     0.61735   0.83335   0.74999   0.00000  Uiso   1.00
O1011  O     0.46042   0.89345   0.75000   0.00000  Uiso   1.00
O1012  O     0.33637   0.79021   0.92932   0.00000  Uiso   1.00
O1013  O     0.53961   0.89346   0.75000   0.00000  Uiso   1.00
O1014  O     0.44108   0.83332   0.82549   0.00000  Uiso   1.00
O1015  O     0.52027   0.83333   0.82549   0.00000  Uiso   1.00
O1016  O     0.46039   0.77321   0.75000   0.00000  Uiso   1.00
O1017  O     0.53958   0.77322   0.74999   0.00000  Uiso   1.00
O1018  O     0.47973   0.83334   0.67451   0.00000  Uiso   1.00
O1019  O     0.55892   0.83335   0.67451   0.00000  Uiso   1.00
O1020  O     0.66538   0.74318   0.67066   0.00000  Uiso   1.00
C1021  C     0.83324   0.91263   0.75010   0.00000  Uiso   1.00
C1022  C     0.78891   0.83577   0.90914   0.00000  Uiso   1.00
C1023  C     0.87533   0.97851   0.75146   0.00000  Uiso   1.00
C1024  C     0.80640   0.83512   0.85061   0.00000  Uiso   1.00
C1025  C     0.87544   0.68775   0.75138   0.00000  Uiso   1.00
C1026  C     0.83343   0.70942   0.74998   0.00000  Uiso   1.00
C1027  C     0.79129   0.68816   0.74870   0.00000  Uiso   1.00
C1028  C     0.79118   0.97892   0.74881   0.00000  Uiso   1.00
C1029  C     0.83321   0.95725   0.75015   0.00000  Uiso   1.00
C1030  C     0.96636   0.86149   0.77933   0.00000  Uiso   1.00
C1031  C     0.68250   0.86137   0.77949   0.00000  Uiso   1.00
C1032  C     0.81235   0.83330   0.98977   0.00000  Uiso   1.00
C1033  C     0.70098   0.80536   0.72061   0.00000  Uiso   1.00
C1034  C     0.98493   0.80499   0.72006   0.00000  Uiso   1.00
C1035  C     0.83341   0.75404   0.74996   0.00000  Uiso   1.00
C1036  C     0.85993   0.83344   0.64982   0.00000  Uiso   1.00
C1037  C     0.92917   0.86648   0.51325   0.00000  Uiso   1.00
C1038  C     0.87552   0.83727   0.59275   0.00000  Uiso   1.00
C1039  C     0.74107   0.82139   0.93770   0.00000  Uiso   1.00
C1040  C     0.73073   0.81161   0.99039   0.00000  Uiso   1.00
C1041  C     0.76586   0.81615   0.51554   0.00000  Uiso   1.00
C1042  C     0.97255   0.77362   0.68571   0.00000  Uiso   1.00
C1043  C     0.82235   0.84583   0.93707   0.00000  Uiso   1.00
C1044  C     0.70012   0.81740   0.91511   0.00000  Uiso   1.00
C1045  C     0.84872   0.83953   0.51515   0.00000  Uiso   1.00
C1046  C     0.89323   0.85983   0.98855   0.00000  Uiso   1.00
C1047  C     0.90039   0.87504   0.93859   0.00000  Uiso   1.00
C1048  C     0.86489   0.86929   0.91402   0.00000  Uiso   1.00
C1049  C     0.84170   0.82726   0.56684   0.00000  Uiso   1.00
C1050  C     0.92020   0.85553   0.56533   0.00000  Uiso   1.00
Cu1051 Cu    0.78645   0.83333   0.75000   0.00000  Uiso   1.00
Cu1052 Cu    0.88022   0.83334   0.75000   0.00000  Uiso   1.00
H1053  H     0.94696   0.86321   0.58479   0.00000  Uiso   1.00
H1054  H     0.80937   0.81098   0.58894   0.00000  Uiso   1.00
H1055  H     0.75419   0.80741   0.55601   0.00000  Uiso   1.00
H1056  H     0.69471   0.80035   0.51270   0.00000  Uiso   1.00
H1057  H     0.87041   0.88488   0.87747   0.00000  Uiso   1.00
H1058  H     0.90819   0.96234   0.75260   0.00000  Uiso   1.00
H1059  H     0.94107   0.77663   0.67248   0.00000  Uiso   1.00
H1060  H     0.69548   0.83940   0.88709   0.00000  Uiso   1.00
H1061  H     0.90832   0.70358   0.75249   0.00000  Uiso   1.00
H1062  H     0.75843   0.70433   0.74757   0.00000  Uiso   1.00
H1063  H     0.75827   0.96308   0.74777   0.00000  Uiso   1.00
H1064  H     0.94086   0.88434   0.80248   0.00000  Uiso   1.00
H1065  H     0.69398   0.88389   0.80314   0.00000  Uiso   1.00
H1066  H     0.72784   0.78353   0.69696   0.00000  Uiso   1.00
H1067  H     0.93310   0.89238   0.91884   0.00000  Uiso   1.00
H1068  H     0.96331   0.88178   0.99298   0.00000  Uiso   1.00
N1069  N     0.71598   0.83332   0.74999   0.00000  Uiso   1.00
N1070  N     0.95069   0.83335   0.74999   0.00000  Uiso   1.00
O1071  O     0.79375   0.89345   0.75000   0.00000  Uiso   1.00
O1072  O     0.66970   0.79021   0.92932   0.00000  Uiso   1.00
O1073  O     0.87294   0.89346   0.75000   0.00000  Uiso   1.00
O1074  O     0.77441   0.83332   0.82549   0.00000  Uiso   1.00
O1075  O     0.85360   0.83333   0.82549   0.00000  Uiso   1.00
O1076  O     0.79373   0.77321   0.75000   0.00000  Uiso   1.00
O1077  O     0.87292   0.77322   0.74999   0.00000  Uiso   1.00
O1078  O     0.81306   0.83334   0.67451   0.00000  Uiso   1.00
O1079  O     0.89225   0.83335   0.67451   0.00000  Uiso   1.00
O1080  O     0.99871   0.74318   0.67066   0.00000  Uiso   1.00
loop_
_geom_bond_atom_site_label_1
_geom_bond_atom_site_label_2
_geom_bond_distance
_geom_bond_site_symmetry_2
_ccdc_geom_bond_type
C1     O51     1.294   .     A
C1     C9      1.450   .     S
C1     O53     1.291   .     A
C2     C4      1.494   .     S
C2     C19     1.427   .     A
C2     C23     1.427   .     A
C3     C9      1.402   .     A
C3     H38     1.083   .     S
C3     C185    1.383   .     S
C4     O55     1.306   .     A
C4     O54     1.298   .     A
C5     C6      1.400   .     A
C5     H41     1.083   .     S
C5     C363    1.383   1_545 S
C6     C7      1.402   .     A
C6     C15     1.450   .     S
C7     H42     1.083   .     S
C7     C368    1.384   1_545 S
C8     H43     1.083   .     S
C8     C9      1.400   .     A
C8     C187    1.384   .     S
C10    H44     1.080   .     S
C10    N50     1.367   .     A
C10    C71     1.416   .     S
C11    N49     1.367   .     A
C11    H45     1.082   .     S
C11    C130    1.416   1_455 S
C12    C23     1.420   .     A
C12    C561    1.413   .     S
C12    C565    1.427   .     S
C13    N49     1.354   .     A
C13    H46     1.082   .     S
C13    C134    1.418   1_455 S
C14    C22     1.484   .     S
C14    N50     1.389   .     A
C14    C73     1.418   .     S
C15    O57     1.294   .     A
C15    O56     1.291   .     A
C16    O58     1.295   .     A
C16    C18     1.464   .     S
C16    O59     1.297   .     A
C17    C30     1.394   .     A
C17    C566    1.405   1_554 S
C17    H588    1.084   1_554 S
C18    C29     1.396   .     A
C18    C30     1.398   .     A
C19    C20     1.394   .     A
C19    C24     1.485   .     S
C20    C561    1.384   .     S
C20    H576    1.084   .     S
C21    H35     1.076   .     S
C21    C560    1.384   1_554 S
C21    C552    1.413   1_554 S
C22    O60     1.222   .     D
C22    H39     1.072   .     S
C23    C28     1.412   .     A
C24    O52     1.221   .     D
C24    H40     1.083   .     S
C25    C29     1.404   .     A
C25    C552    1.427   1_554 S
C25    C566    1.420   1_554 S
C26    C27     1.392   .     A
C26    C557    1.405   .     S
C26    C565    1.420   .     S
C27    H47     1.084   .     S
C27    C28     1.387   .     A
C28    H37     1.079   .     S
C29    H34     1.075   .     S
C30    H33     1.083   .     S
Cu31   O56     1.964   .     S
Cu31   N49     2.016   .     S
Cu31   O58     1.931   .     S
Cu31   O54     1.949   .     S
Cu31   Cu32    2.682   .     S
Cu31   O51     1.966   .     S
Cu32   O55     1.931   .     S
Cu32   O59     1.949   .     S
Cu32   N50     2.015   .     S
Cu32   O57     1.966   .     S
Cu32   O53     1.964   .     S
H36    C560    1.084   1_554 S
H48    C557    1.084   .     S
C61    O111    1.294   .     A
C61    C69     1.450   .     S
C61    O113    1.291   .     A
C62    C64     1.494   .     S
C62    C79     1.427   .     A
C62    C83     1.427   .     A
C63    C69     1.402   .     A
C63    H98     1.083   .     S
C63    C245    1.383   .     S
C64    O115    1.306   .     A
C64    O114    1.298   .     A
C65    C66     1.400   .     A
C65    H101    1.083   .     S
C65    C423    1.383   1_545 S
C66    C67     1.402   .     A
C66    C75     1.450   .     S
C67    H102    1.083   .     S
C67    C428    1.384   1_545 S
C68    H103    1.083   .     S
C68    C69     1.400   .     A
C68    C247    1.384   .     S
C70    H104    1.080   .     S
C70    N110    1.367   .     A
C70    C131    1.416   .     S
C71    N109    1.367   .     A
C71    H105    1.082   .     S
C72    C83     1.420   .     A
C72    C621    1.413   .     S
C72    C625    1.427   .     S
C73    N109    1.354   .     A
C73    H106    1.082   .     S
C74    C82     1.484   .     S
C74    N110    1.389   .     A
C74    C133    1.418   .     S
C75    O117    1.294   .     A
C75    O116    1.291   .     A
C76    O118    1.295   .     A
C76    C78     1.464   .     S
C76    O119    1.297   .     A
C77    C90     1.394   .     A
C77    C626    1.405   1_554 S
C77    H648    1.084   1_554 S
C78    C89     1.396   .     A
C78    C90     1.398   .     A
C79    C80     1.394   .     A
C79    C84     1.485   .     S
C80    C621    1.384   .     S
C80    H636    1.084   .     S
C81    H95     1.076   .     S
C81    C620    1.384   1_554 S
C81    C612    1.413   1_554 S
C82    O120    1.222   .     D
C82    H99     1.072   .     S
C83    C88     1.412   .     A
C84    O112    1.221   .     D
C84    H100    1.083   .     S
C85    C89     1.404   .     A
C85    C612    1.427   1_554 S
C85    C626    1.420   1_554 S
C86    C87     1.392   .     A
C86    C617    1.405   .     S
C86    C625    1.420   .     S
C87    H107    1.084   .     S
C87    C88     1.387   .     A
C88    H97     1.079   .     S
C89    H94     1.075   .     S
C90    H93     1.083   .     S
Cu91   O116    1.964   .     S
Cu91   N109    2.016   .     S
Cu91   O118    1.931   .     S
Cu91   O114    1.949   .     S
Cu91   Cu92    2.682   .     S
Cu91   O111    1.966   .     S
Cu92   O115    1.931   .     S
Cu92   O119    1.949   .     S
Cu92   N110    2.015   .     S
Cu92   O117    1.966   .     S
Cu92   O113    1.964   .     S
H96    C620    1.084   1_554 S
H108   C617    1.084   .     S
C121   O171    1.294   .     A
C121   C129    1.450   .     S
C121   O173    1.291   .     A
C122   C124    1.494   .     S
C122   C139    1.427   .     A
C122   C143    1.427   .     A
C123   C129    1.402   .     A
C123   H158    1.083   .     S
C123   C305    1.383   .     S
C124   O175    1.306   .     A
C124   O174    1.298   .     A
C125   C126    1.400   .     A
C125   H161    1.083   .     S
C125   C483    1.383   1_545 S
C126   C127    1.402   .     A
C126   C135    1.450   .     S
C127   H162    1.083   .     S
C127   C488    1.384   1_545 S
C128   H163    1.083   .     S
C128   C129    1.400   .     A
C128   C307    1.384   .     S
C130   H164    1.080   .     S
C130   N170    1.367   .     A
C130   C11     1.416   1_655 S
C131   N169    1.367   .     A
C131   H165    1.082   .     S
C132   C143    1.420   .     A
C132   C681    1.413   .     S
C132   C685    1.427   .     S
C133   N169    1.354   .     A
C133   H166    1.082   .     S
C134   C142    1.484   .     S
C134   N170    1.389   .     A
C134   C13     1.418   1_655 S
C135   O177    1.294   .     A
C135   O176    1.291   .     A
C136   O178    1.295   .     A
C136   C138    1.464   .     S
C136   O179    1.297   .     A
C137   C150    1.394   .     A
C137   C686    1.405   1_554 S
C137   H708    1.084   1_554 S
C138   C149    1.396   .     A
C138   C150    1.398   .     A
C139   C140    1.394   .     A
C139   C144    1.485   .     S
C140   C681    1.384   .     S
C140   H696    1.084   .     S
C141   H155    1.076   .     S
C141   C680    1.384   1_554 S
C141   C672    1.413   1_554 S
C142   O180    1.222   .     D
C142   H159    1.072   .     S
C143   C148    1.412   .     A
C144   O172    1.221   .     D
C144   H160    1.083   .     S
C145   C149    1.404   .     A
C145   C672    1.427   1_554 S
C145   C686    1.420   1_554 S
C146   C147    1.392   .     A
C146   C677    1.405   .     S
C146   C685    1.420   .     S
C147   H167    1.084   .     S
C147   C148    1.387   .     A
C148   H157    1.079   .     S
C149   H154    1.075   .     S
C150   H153    1.083   .     S
Cu151  O176    1.964   .     S
Cu151  N169    2.016   .     S
Cu151  O178    1.931   .     S
Cu151  O174    1.949   .     S
Cu151  Cu152   2.682   .     S
Cu151  O171    1.966   .     S
Cu152  O175    1.931   .     S
Cu152  O179    1.949   .     S
Cu152  N170    2.015   .     S
Cu152  O177    1.966   .     S
Cu152  O173    1.964   .     S
H156   C680    1.084   1_554 S
H168   C677    1.084   .     S
C181   O231    1.294   .     A
C181   C189    1.450   .     S
C181   O233    1.291   .     A
C182   C184    1.494   .     S
C182   C199    1.427   .     A
C182   C203    1.427   .     A
C183   C189    1.402   .     A
C183   H218    1.083   .     S
C183   C365    1.383   .     S
C184   O235    1.306   .     A
C184   O234    1.298   .     A
C185   C186    1.400   .     A
C185   H221    1.083   .     S
C186   C187    1.402   .     A
C186   C195    1.450   .     S
C187   H222    1.083   .     S
C188   H223    1.083   .     S
C188   C189    1.400   .     A
C188   C367    1.384   .     S
C190   H224    1.080   .     S
C190   N230    1.367   .     A
C190   C251    1.416   .     S
C191   N229    1.367   .     A
C191   H225    1.082   .     S
C191   C310    1.416   1_455 S
C192   C203    1.420   .     A
C192   C741    1.413   .     S
C192   C745    1.427   .     S
C193   N229    1.354   .     A
C193   H226    1.082   .     S
C193   C314    1.418   1_455 S
C194   C202    1.484   .     S
C194   N230    1.389   .     A
C194   C253    1.418   .     S
C195   O237    1.294   .     A
C195   O236    1.291   .     A
C196   O238    1.295   .     A
C196   C198    1.464   .     S
C196   O239    1.297   .     A
C197   C210    1.394   .     A
C197   C746    1.405   1_554 S
C197   H768    1.084   1_554 S
C198   C209    1.396   .     A
C198   C210    1.398   .     A
C199   C200    1.394   .     A
C199   C204    1.485   .     S
C200   C741    1.384   .     S
C200   H756    1.084   .     S
C201   H215    1.076   .     S
C201   C740    1.384   1_554 S
C201   C732    1.413   1_554 S
C202   O240    1.222   .     D
C202   H219    1.072   .     S
C203   C208    1.412   .     A
C204   O232    1.221   .     D
C204   H220    1.083   .     S
C205   C209    1.404   .     A
C205   C732    1.427   1_554 S
C205   C746    1.420   1_554 S
C206   C207    1.392   .     A
C206   C737    1.405   .     S
C206   C745    1.420   .     S
C207   H227    1.084   .     S
C207   C208    1.387   .     A
C208   H217    1.079   .     S
C209   H214    1.075   .     S
C210   H213    1.083   .     S
Cu211  O236    1.964   .     S
Cu211  N229    2.016   .     S
Cu211  O238    1.931   .     S
Cu211  O234    1.949   .     S
Cu211  Cu212   2.682   .     S
Cu211  O231    1.966   .     S
Cu212  O235    1.931   .     S
Cu212  O239    1.949   .     S
Cu212  N230    2.015   .     S
Cu212  O237    1.966   .     S
Cu212  O233    1.964   .     S
H216   C740    1.084   1_554 S
H228   C737    1.084   .     S
C241   O291    1.294   .     A
C241   C249    1.450   .     S
C241   O293    1.291   .     A
C242   C244    1.494   .     S
C242   C259    1.427   .     A
C242   C263    1.427   .     A
C243   C249    1.402   .     A
C243   H278    1.083   .     S
C243   C425    1.383   .     S
C244   O295    1.306   .     A
C244   O294    1.298   .     A
C245   C246    1.400   .     A
C245   H281    1.083   .     S
C246   C247    1.402   .     A
C246   C255    1.450   .     S
C247   H282    1.083   .     S
C248   H283    1.083   .     S
C248   C249    1.400   .     A
C248   C427    1.384   .     S
C250   H284    1.080   .     S
C250   N290    1.367   .     A
C250   C311    1.416   .     S
C251   N289    1.367   .     A
C251   H285    1.082   .     S
C252   C263    1.420   .     A
C252   C801    1.413   .     S
C252   C805    1.427   .     S
C253   N289    1.354   .     A
C253   H286    1.082   .     S
C254   C262    1.484   .     S
C254   N290    1.389   .     A
C254   C313    1.418   .     S
C255   O297    1.294   .     A
C255   O296    1.291   .     A
C256   O298    1.295   .     A
C256   C258    1.464   .     S
C256   O299    1.297   .     A
C257   C270    1.394   .     A
C257   C806    1.405   1_554 S
C257   H828    1.084   1_554 S
C258   C269    1.396   .     A
C258   C270    1.398   .     A
C259   C260    1.394   .     A
C259   C264    1.485   .     S
C260   C801    1.384   .     S
C260   H816    1.084   .     S
C261   H275    1.076   .     S
C261   C800    1.384   1_554 S
C261   C792    1.413   1_554 S
C262   O300    1.222   .     D
C262   H279    1.072   .     S
C263   C268    1.412   .     A
C264   O292    1.221   .     D
C264   H280    1.083   .     S
C265   C269    1.404   .     A
C265   C792    1.427   1_554 S
C265   C806    1.420   1_554 S
C266   C267    1.392   .     A
C266   C797    1.405   .     S
C266   C805    1.420   .     S
C267   H287    1.084   .     S
C267   C268    1.387   .     A
C268   H277    1.079   .     S
C269   H274    1.075   .     S
C270   H273    1.083   .     S
Cu271  O296    1.964   .     S
Cu271  N289    2.016   .     S
Cu271  O298    1.931   .     S
Cu271  O294    1.949   .     S
Cu271  Cu272   2.682   .     S
Cu271  O291    1.966   .     S
Cu272  O295    1.931   .     S
Cu272  O299    1.949   .     S
Cu272  N290    2.015   .     S
Cu272  O297    1.966   .     S
Cu272  O293    1.964   .     S
H276   C800    1.084   1_554 S
H288   C797    1.084   .     S
C301   O351    1.294   .     A
C301   C309    1.450   .     S
C301   O353    1.291   .     A
C302   C304    1.494   .     S
C302   C319    1.427   .     A
C302   C323    1.427   .     A
C303   C309    1.402   .     A
C303   H338    1.083   .     S
C303   C485    1.383   .     S
C304   O355    1.306   .     A
C304   O354    1.298   .     A
C305   C306    1.400   .     A
C305   H341    1.083   .     S
C306   C307    1.402   .     A
C306   C315    1.450   .     S
C307   H342    1.083   .     S
C308   H343    1.083   .     S
C308   C309    1.400   .     A
C308   C487    1.384   .     S
C310   H344    1.080   .     S
C310   N350    1.367   .     A
C310   C191    1.416   1_655 S
C311   N349    1.367   .     A
C311   H345    1.082   .     S
C312   C323    1.420   .     A
C312   C861    1.413   .     S
C312   C865    1.427   .     S
C313   N349    1.354   .     A
C313   H346    1.082   .     S
C314   C322    1.484   .     S
C314   N350    1.389   .     A
C314   C193    1.418   1_655 S
C315   O357    1.294   .     A
C315   O356    1.291   .     A
C316   O358    1.295   .     A
C316   C318    1.464   .     S
C316   O359    1.297   .     A
C317   C330    1.394   .     A
C317   C866    1.405   1_554 S
C317   H888    1.084   1_554 S
C318   C329    1.396   .     A
C318   C330    1.398   .     A
C319   C320    1.394   .     A
C319   C324    1.485   .     S
C320   C861    1.384   .     S
C320   H876    1.084   .     S
C321   H335    1.076   .     S
C321   C860    1.384   1_554 S
C321   C852    1.413   1_554 S
C322   O360    1.222   .     D
C322   H339    1.072   .     S
C323   C328    1.412   .     A
C324   O352    1.221   .     D
C324   H340    1.083   .     S
C325   C329    1.404   .     A
C325   C852    1.427   1_554 S
C325   C866    1.420   1_554 S
C326   C327    1.392   .     A
C326   C857    1.405   .     S
C326   C865    1.420   .     S
C327   H347    1.084   .     S
C327   C328    1.387   .     A
C328   H337    1.079   .     S
C329   H334    1.075   .     S
C330   H333    1.083   .     S
Cu331  O356    1.964   .     S
Cu331  N349    2.016   .     S
Cu331  O358    1.931   .     S
Cu331  O354    1.949   .     S
Cu331  Cu332   2.682   .     S
Cu331  O351    1.966   .     S
Cu332  O355    1.931   .     S
Cu332  O359    1.949   .     S
Cu332  N350    2.015   .     S
Cu332  O357    1.966   .     S
Cu332  O353    1.964   .     S
H336   C860    1.084   1_554 S
H348   C857    1.084   .     S
C361   O411    1.294   .     A
C361   C369    1.450   .     S
C361   O413    1.291   .     A
C362   C364    1.494   .     S
C362   C379    1.427   .     A
C362   C383    1.427   .     A
C363   C369    1.402   .     A
C363   H398    1.083   .     S
C363   C5      1.383   1_565 S
C364   O415    1.306   .     A
C364   O414    1.298   .     A
C365   C366    1.400   .     A
C365   H401    1.083   .     S
C366   C367    1.402   .     A
C366   C375    1.450   .     S
C367   H402    1.083   .     S
C368   H403    1.083   .     S
C368   C369    1.400   .     A
C368   C7      1.384   1_565 S
C370   H404    1.080   .     S
C370   N410    1.367   .     A
C370   C431    1.416   .     S
C371   N409    1.367   .     A
C371   H405    1.082   .     S
C371   C490    1.416   1_455 S
C372   C383    1.420   .     A
C372   C921    1.413   .     S
C372   C925    1.427   .     S
C373   N409    1.354   .     A
C373   H406    1.082   .     S
C373   C494    1.418   1_455 S
C374   C382    1.484   .     S
C374   N410    1.389   .     A
C374   C433    1.418   .     S
C375   O417    1.294   .     A
C375   O416    1.291   .     A
C376   O418    1.295   .     A
C376   C378    1.464   .     S
C376   O419    1.297   .     A
C377   C390    1.394   .     A
C377   C926    1.405   1_554 S
C377   H948    1.084   1_554 S
C378   C389    1.396   .     A
C378   C390    1.398   .     A
C379   C380    1.394   .     A
C379   C384    1.485   .     S
C380   C921    1.384   .     S
C380   H936    1.084   .     S
C381   H395    1.076   .     S
C381   C920    1.384   1_554 S
C381   C912    1.413   1_554 S
C382   O420    1.222   .     D
C382   H399    1.072   .     S
C383   C388    1.412   .     A
C384   O412    1.221   .     D
C384   H400    1.083   .     S
C385   C389    1.404   .     A
C385   C912    1.427   1_554 S
C385   C926    1.420   1_554 S
C386   C387    1.392   .     A
C386   C917    1.405   .     S
C386   C925    1.420   .     S
C387   H407    1.084   .     S
C387   C388    1.387   .     A
C388   H397    1.079   .     S
C389   H394    1.075   .     S
C390   H393    1.083   .     S
Cu391  O416    1.964   .     S
Cu391  N409    2.016   .     S
Cu391  O418    1.931   .     S
Cu391  O414    1.949   .     S
Cu391  Cu392   2.682   .     S
Cu391  O411    1.966   .     S
Cu392  O415    1.931   .     S
Cu392  O419    1.949   .     S
Cu392  N410    2.015   .     S
Cu392  O417    1.966   .     S
Cu392  O413    1.964   .     S
H396   C920    1.084   1_554 S
H408   C917    1.084   .     S
C421   O471    1.294   .     A
C421   C429    1.450   .     S
C421   O473    1.291   .     A
C422   C424    1.494   .     S
C422   C439    1.427   .     A
C422   C443    1.427   .     A
C423   C429    1.402   .     A
C423   H458    1.083   .     S
C423   C65     1.383   1_565 S
C424   O475    1.306   .     A
C424   O474    1.298   .     A
C425   C426    1.400   .     A
C425   H461    1.083   .     S
C426   C427    1.402   .     A
C426   C435    1.450   .     S
C427   H462    1.083   .     S
C428   H463    1.083   .     S
C428   C429    1.400   .     A
C428   C67     1.384   1_565 S
C430   H464    1.080   .     S
C430   N470    1.367   .     A
C430   C491    1.416   .     S
C431   N469    1.367   .     A
C431   H465    1.082   .     S
C432   C443    1.420   .     A
C432   C981    1.413   .     S
C432   C985    1.427   .     S
C433   N469    1.354   .     A
C433   H466    1.082   .     S
C434   C442    1.484   .     S
C434   N470    1.389   .     A
C434   C493    1.418   .     S
C435   O477    1.294   .     A
C435   O476    1.291   .     A
C436   O478    1.295   .     A
C436   C438    1.464   .     S
C436   O479    1.297   .     A
C437   C450    1.394   .     A
C437   C986    1.405   1_554 S
C437   H1008   1.084   1_554 S
C438   C449    1.396   .     A
C438   C450    1.398   .     A
C439   C440    1.394   .     A
C439   C444    1.485   .     S
C440   C981    1.384   .     S
C440   H996    1.084   .     S
C441   H455    1.076   .     S
C441   C980    1.384   1_554 S
C441   C972    1.413   1_554 S
C442   O480    1.222   .     D
C442   H459    1.072   .     S
C443   C448    1.412   .     A
C444   O472    1.221   .     D
C444   H460    1.083   .     S
C445   C449    1.404   .     A
C445   C972    1.427   1_554 S
C445   C986    1.420   1_554 S
C446   C447    1.392   .     A
C446   C977    1.405   .     S
C446   C985    1.420   .     S
C447   H467    1.084   .     S
C447   C448    1.387   .     A
C448   H457    1.079   .     S
C449   H454    1.075   .     S
C450   H453    1.083   .     S
Cu451  O476    1.964   .     S
Cu451  N469    2.016   .     S
Cu451  O478    1.931   .     S
Cu451  O474    1.949   .     S
Cu451  Cu452   2.682   .     S
Cu451  O471    1.966   .     S
Cu452  O475    1.931   .     S
Cu452  O479    1.949   .     S
Cu452  N470    2.015   .     S
Cu452  O477    1.966   .     S
Cu452  O473    1.964   .     S
H456   C980    1.084   1_554 S
H468   C977    1.084   .     S
C481   O531    1.294   .     A
C481   C489    1.450   .     S
C481   O533    1.291   .     A
C482   C484    1.494   .     S
C482   C499    1.427   .     A
C482   C503    1.427   .     A
C483   C489    1.402   .     A
C483   H518    1.083   .     S
C483   C125    1.383   1_565 S
C484   O535    1.306   .     A
C484   O534    1.298   .     A
C485   C486    1.400   .     A
C485   H521    1.083   .     S
C486   C487    1.402   .     A
C486   C495    1.450   .     S
C487   H522    1.083   .     S
C488   H523    1.083   .     S
C488   C489    1.400   .     A
C488   C127    1.384   1_565 S
C490   H524    1.080   .     S
C490   N530    1.367   .     A
C490   C371    1.416   1_655 S
C491   N529    1.367   .     A
C491   H525    1.082   .     S
C492   C503    1.420   .     A
C492   C1041   1.413   .     S
C492   C1045   1.427   .     S
C493   N529    1.354   .     A
C493   H526    1.082   .     S
C494   C502    1.484   .     S
C494   N530    1.389   .     A
C494   C373    1.418   1_655 S
C495   O537    1.294   .     A
C495   O536    1.291   .     A
C496   O538    1.295   .     A
C496   C498    1.464   .     S
C496   O539    1.297   .     A
C497   C510    1.394   .     A
C497   C1046   1.405   1_554 S
C497   H1068   1.084   1_554 S
C498   C509    1.396   .     A
C498   C510    1.398   .     A
C499   C500    1.394   .     A
C499   C504    1.485   .     S
C500   C1041   1.384   .     S
C500   H1056   1.084   .     S
C501   H515    1.076   .     S
C501   C1040   1.384   1_554 S
C501   C1032   1.413   1_554 S
C502   O540    1.222   .     D
C502   H519    1.072   .     S
C503   C508    1.412   .     A
C504   O532    1.221   .     D
C504   H520    1.083   .     S
C505   C509    1.404   .     A
C505   C1032   1.427   1_554 S
C505   C1046   1.420   1_554 S
C506   C507    1.392   .     A
C506   C1037   1.405   .     S
C506   C1045   1.420   .     S
C507   H527    1.084   .     S
C507   C508    1.387   .     A
C508   H517    1.079   .     S
C509   H514    1.075   .     S
C510   H513    1.083   .     S
Cu511  O536    1.964   .     S
Cu511  N529    2.016   .     S
Cu511  O538    1.931   .     S
Cu511  O534    1.949   .     S
Cu511  Cu512   2.682   .     S
Cu511  O531    1.966   .     S
Cu512  O535    1.931   .     S
Cu512  O539    1.949   .     S
Cu512  N530    2.015   .     S
Cu512  O537    1.966   .     S
Cu512  O533    1.964   .     S
H516   C1040   1.084   1_554 S
H528   C1037   1.084   .     S
C541   O591    1.294   .     A
C541   C549    1.450   .     S
C541   O593    1.291   .     A
C542   C544    1.494   .     S
C542   C559    1.427   .     A
C542   C563    1.427   .     A
C543   C549    1.402   .     A
C543   H578    1.083   .     S
C543   C725    1.383   .     S
C544   O595    1.306   .     A
C544   O594    1.298   .     A
C545   C546    1.400   .     A
C545   H581    1.083   .     S
C545   C903    1.383   1_545 S
C546   C547    1.402   .     A
C546   C555    1.450   .     S
C547   H582    1.083   .     S
C547   C908    1.384   1_545 S
C548   H583    1.083   .     S
C548   C549    1.400   .     A
C548   C727    1.384   .     S
C550   H584    1.080   .     S
C550   N590    1.367   .     A
C550   C611    1.416   .     S
C551   N589    1.367   .     A
C551   H585    1.082   .     S
C551   C670    1.416   1_455 S
C552   C563    1.420   .     A
C552   C21     1.413   1_556 S
C552   C25     1.427   1_556 S
C553   N589    1.354   .     A
C553   H586    1.082   .     S
C553   C674    1.418   1_455 S
C554   C562    1.484   .     S
C554   N590    1.389   .     A
C554   C613    1.418   .     S
C555   O597    1.294   .     A
C555   O596    1.291   .     A
C556   O598    1.295   .     A
C556   C558    1.464   .     S
C556   O599    1.297   .     A
C557   C570    1.394   .     A
C558   C569    1.396   .     A
C558   C570    1.398   .     A
C559   C560    1.394   .     A
C559   C564    1.485   .     S
C560   C21     1.384   1_556 S
C560   H36     1.084   1_556 S
C561   H575    1.076   .     S
C562   O600    1.222   .     D
C562   H579    1.072   .     S
C563   C568    1.412   .     A
C564   O592    1.221   .     D
C564   H580    1.083   .     S
C565   C569    1.404   .     A
C566   C567    1.392   .     A
C566   C17     1.405   1_556 S
C566   C25     1.420   1_556 S
C567   H587    1.084   .     S
C567   C568    1.387   .     A
C568   H577    1.079   .     S
C569   H574    1.075   .     S
C570   H573    1.083   .     S
Cu571  O596    1.964   .     S
Cu571  N589    2.016   .     S
Cu571  O598    1.931   .     S
Cu571  O594    1.949   .     S
Cu571  Cu572   2.682   .     S
Cu571  O591    1.966   .     S
Cu572  O595    1.931   .     S
Cu572  O599    1.949   .     S
Cu572  N590    2.015   .     S
Cu572  O597    1.966   .     S
Cu572  O593    1.964   .     S
H588   C17     1.084   1_556 S
C601   O651    1.294   .     A
C601   C609    1.450   .     S
C601   O653    1.291   .     A
C602   C604    1.494   .     S
C602   C619    1.427   .     A
C602   C623    1.427   .     A
C603   C609    1.402   .     A
C603   H638    1.083   .     S
C603   C785    1.383   .     S
C604   O655    1.306   .     A
C604   O654    1.298   .     A
C605   C606    1.400   .     A
C605   H641    1.083   .     S
C605   C963    1.383   1_545 S
C606   C607    1.402   .     A
C606   C615    1.450   .     S
C607   H642    1.083   .     S
C607   C968    1.384   1_545 S
C608   H643    1.083   .     S
C608   C609    1.400   .     A
C608   C787    1.384   .     S
C610   H644    1.080   .     S
C610   N650    1.367   .     A
C610   C671    1.416   .     S
C611   N649    1.367   .     A
C611   H645    1.082   .     S
C612   C623    1.420   .     A
C612   C81     1.413   1_556 S
C612   C85     1.427   1_556 S
C613   N649    1.354   .     A
C613   H646    1.082   .     S
C614   C622    1.484   .     S
C614   N650    1.389   .     A
C614   C673    1.418   .     S
C615   O657    1.294   .     A
C615   O656    1.291   .     A
C616   O658    1.295   .     A
C616   C618    1.464   .     S
C616   O659    1.297   .     A
C617   C630    1.394   .     A
C618   C629    1.396   .     A
C618   C630    1.398   .     A
C619   C620    1.394   .     A
C619   C624    1.485   .     S
C620   C81     1.384   1_556 S
C620   H96     1.084   1_556 S
C621   H635    1.076   .     S
C622   O660    1.222   .     D
C622   H639    1.072   .     S
C623   C628    1.412   .     A
C624   O652    1.221   .     D
C624   H640    1.083   .     S
C625   C629    1.404   .     A
C626   C627    1.392   .     A
C626   C77     1.405   1_556 S
C626   C85     1.420   1_556 S
C627   H647    1.084   .     S
C627   C628    1.387   .     A
C628   H637    1.079   .     S
C629   H634    1.075   .     S
C630   H633    1.083   .     S
Cu631  O656    1.964   .     S
Cu631  N649    2.016   .     S
Cu631  O658    1.931   .     S
Cu631  O654    1.949   .     S
Cu631  Cu632   2.682   .     S
Cu631  O651    1.966   .     S
Cu632  O655    1.931   .     S
Cu632  O659    1.949   .     S
Cu632  N650    2.015   .     S
Cu632  O657    1.966   .     S
Cu632  O653    1.964   .     S
H648   C77     1.084   1_556 S
C661   O711    1.294   .     A
C661   C669    1.450   .     S
C661   O713    1.291   .     A
C662   C664    1.494   .     S
C662   C679    1.427   .     A
C662   C683    1.427   .     A
C663   C669    1.402   .     A
C663   H698    1.083   .     S
C663   C845    1.383   .     S
C664   O715    1.306   .     A
C664   O714    1.298   .     A
C665   C666    1.400   .     A
C665   H701    1.083   .     S
C665   C1023   1.383   1_545 S
C666   C667    1.402   .     A
C666   C675    1.450   .     S
C667   H702    1.083   .     S
C667   C1028   1.384   1_545 S
C668   H703    1.083   .     S
C668   C669    1.400   .     A
C668   C847    1.384   .     S
C670   H704    1.080   .     S
C670   N710    1.367   .     A
C670   C551    1.416   1_655 S
C671   N709    1.367   .     A
C671   H705    1.082   .     S
C672   C683    1.420   .     A
C672   C141    1.413   1_556 S
C672   C145    1.427   1_556 S
C673   N709    1.354   .     A
C673   H706    1.082   .     S
C674   C682    1.484   .     S
C674   N710    1.389   .     A
C674   C553    1.418   1_655 S
C675   O717    1.294   .     A
C675   O716    1.291   .     A
C676   O718    1.295   .     A
C676   C678    1.464   .     S
C676   O719    1.297   .     A
C677   C690    1.394   .     A
C678   C689    1.396   .     A
C678   C690    1.398   .     A
C679   C680    1.394   .     A
C679   C684    1.485   .     S
C680   C141    1.384   1_556 S
C680   H156    1.084   1_556 S
C681   H695    1.076   .     S
C682   O720    1.222   .     D
C682   H699    1.072   .     S
C683   C688    1.412   .     A
C684   O712    1.221   .     D
C684   H700    1.083   .     S
C685   C689    1.404   .     A
C686   C687    1.392   .     A
C686   C137    1.405   1_556 S
C686   C145    1.420   1_556 S
C687   H707    1.084   .     S
C687   C688    1.387   .     A
C688   H697    1.079   .     S
C689   H694    1.075   .     S
C690   H693    1.083   .     S
Cu691  O716    1.964   .     S
Cu691  N709    2.016   .     S
Cu691  O718    1.931   .     S
Cu691  O714    1.949   .     S
Cu691  Cu692   2.682   .     S
Cu691  O711    1.966   .     S
Cu692  O715    1.931   .     S
Cu692  O719    1.949   .     S
Cu692  N710    2.015   .     S
Cu692  O717    1.966   .     S
Cu692  O713    1.964   .     S
H708   C137    1.084   1_556 S
C721   O771    1.294   .     A
C721   C729    1.450   .     S
C721   O773    1.291   .     A
C722   C724    1.494   .     S
C722   C739    1.427   .     A
C722   C743    1.427   .     A
C723   C729    1.402   .     A
C723   H758    1.083   .     S
C723   C905    1.383   .     S
C724   O775    1.306   .     A
C724   O774    1.298   .     A
C725   C726    1.400   .     A
C725   H761    1.083   .     S
C726   C727    1.402   .     A
C726   C735    1.450   .     S
C727   H762    1.083   .     S
C728   H763    1.083   .     S
C728   C729    1.400   .     A
C728   C907    1.384   .     S
C730   H764    1.080   .     S
C730   N770    1.367   .     A
C730   C791    1.416   .     S
C731   N769    1.367   .     A
C731   H765    1.082   .     S
C731   C850    1.416   1_455 S
C732   C743    1.420   .     A
C732   C201    1.413   1_556 S
C732   C205    1.427   1_556 S
C733   N769    1.354   .     A
C733   H766    1.082   .     S
C733   C854    1.418   1_455 S
C734   C742    1.484   .     S
C734   N770    1.389   .     A
C734   C793    1.418   .     S
C735   O777    1.294   .     A
C735   O776    1.291   .     A
C736   O778    1.295   .     A
C736   C738    1.464   .     S
C736   O779    1.297   .     A
C737   C750    1.394   .     A
C738   C749    1.396   .     A
C738   C750    1.398   .     A
C739   C740    1.394   .     A
C739   C744    1.485   .     S
C740   C201    1.384   1_556 S
C740   H216    1.084   1_556 S
C741   H755    1.076   .     S
C742   O780    1.222   .     D
C742   H759    1.072   .     S
C743   C748    1.412   .     A
C744   O772    1.221   .     D
C744   H760    1.083   .     S
C745   C749    1.404   .     A
C746   C747    1.392   .     A
C746   C197    1.405   1_556 S
C746   C205    1.420   1_556 S
C747   H767    1.084   .     S
C747   C748    1.387   .     A
C748   H757    1.079   .     S
C749   H754    1.075   .     S
C750   H753    1.083   .     S
Cu751  O776    1.964   .     S
Cu751  N769    2.016   .     S
Cu751  O778    1.931   .     S
Cu751  O774    1.949   .     S
Cu751  Cu752   2.682   .     S
Cu751  O771    1.966   .     S
Cu752  O775    1.931   .     S
Cu752  O779    1.949   .     S
Cu752  N770    2.015   .     S
Cu752  O777    1.966   .     S
Cu752  O773    1.964   .     S
H768   C197    1.084   1_556 S
C781   O831    1.294   .     A
C781   C789    1.450   .     S
C781   O833    1.291   .     A
C782   C784    1.494   .     S
C782   C799    1.427   .     A
C782   C803    1.427   .     A
C783   C789    1.402   .     A
C783   H818    1.083   .     S
C783   C965    1.383   .     S
C784   O835    1.306   .     A
C784   O834    1.298   .     A
C785   C786    1.400   .     A
C785   H821    1.083   .     S
C786   C787    1.402   .     A
C786   C795    1.450   .     S
C787   H822    1.083   .     S
C788   H823    1.083   .     S
C788   C789    1.400   .     A
C788   C967    1.384   .     S
C790   H824    1.080   .     S
C790   N830    1.367   .     A
C790   C851    1.416   .     S
C791   N829    1.367   .     A
C791   H825    1.082   .     S
C792   C803    1.420   .     A
C792   C261    1.413   1_556 S
C792   C265    1.427   1_556 S
C793   N829    1.354   .     A
C793   H826    1.082   .     S
C794   C802    1.484   .     S
C794   N830    1.389   .     A
C794   C853    1.418   .     S
C795   O837    1.294   .     A
C795   O836    1.291   .     A
C796   O838    1.295   .     A
C796   C798    1.464   .     S
C796   O839    1.297   .     A
C797   C810    1.394   .     A
C798   C809    1.396   .     A
C798   C810    1.398   .     A
C799   C800    1.394   .     A
C799   C804    1.485   .     S
C800   C261    1.384   1_556 S
C800   H276    1.084   1_556 S
C801   H815    1.076   .     S
C802   O840    1.222   .     D
C802   H819    1.072   .     S
C803   C808    1.412   .     A
C804   O832    1.221   .     D
C804   H820    1.083   .     S
C805   C809    1.404   .     A
C806   C807    1.392   .     A
C806   C257    1.405   1_556 S
C806   C265    1.420   1_556 S
C807   H827    1.084   .     S
C807   C808    1.387   .     A
C808   H817    1.079   .     S
C809   H814    1.075   .     S
C810   H813    1.083   .     S
Cu811  O836    1.964   .     S
Cu811  N829    2.016   .     S
Cu811  O838    1.931   .     S
Cu811  O834    1.949   .     S
Cu811  Cu812   2.682   .     S
Cu811  O831    1.966   .     S
Cu812  O835    1.931   .     S
Cu812  O839    1.949   .     S
Cu812  N830    2.015   .     S
Cu812  O837    1.966   .     S
Cu812  O833    1.964   .     S
H828   C257    1.084   1_556 S
C841   O891    1.294   .     A
C841   C849    1.450   .     S
C841   O893    1.291   .     A
C842   C844    1.494   .     S
C842   C859    1.427   .     A
C842   C863    1.427   .     A
C843   C849    1.402   .     A
C843   H878    1.083   .     S
C843   C1025   1.383   .     S
C844   O895    1.306   .     A
C844   O894    1.298   .     A
C845   C846    1.400   .     A
C845   H881    1.083   .     S
C846   C847    1.402   .     A
C846   C855    1.450   .     S
C847   H882    1.083   .     S
C848   H883    1.083   .     S
C848   C849    1.400   .     A
C848   C1027   1.384   .     S
C850   H884    1.080   .     S
C850   N890    1.367   .     A
C850   C731    1.416   1_655 S
C851   N889    1.367   .     A
C851   H885    1.082   .     S
C852   C863    1.420   .     A
C852   C321    1.413   1_556 S
C852   C325    1.427   1_556 S
C853   N889    1.354   .     A
C853   H886    1.082   .     S
C854   C862    1.484   .     S
C854   N890    1.389   .     A
C854   C733    1.418   1_655 S
C855   O897    1.294   .     A
C855   O896    1.291   .     A
C856   O898    1.295   .     A
C856   C858    1.464   .     S
C856   O899    1.297   .     A
C857   C870    1.394   .     A
C858   C869    1.396   .     A
C858   C870    1.398   .     A
C859   C860    1.394   .     A
C859   C864    1.485   .     S
C860   C321    1.384   1_556 S
C860   H336    1.084   1_556 S
C861   H875    1.076   .     S
C862   O900    1.222   .     D
C862   H879    1.072   .     S
C863   C868    1.412   .     A
C864   O892    1.221   .     D
C864   H880    1.083   .     S
C865   C869    1.404   .     A
C866   C867    1.392   .     A
C866   C317    1.405   1_556 S
C866   C325    1.420   1_556 S
C867   H887    1.084   .     S
C867   C868    1.387   .     A
C868   H877    1.079   .     S
C869   H874    1.075   .     S
C870   H873    1.083   .     S
Cu871  O896    1.964   .     S
Cu871  N889    2.016   .     S
Cu871  O898    1.931   .     S
Cu871  O894    1.949   .     S
Cu871  Cu872   2.682   .     S
Cu871  O891    1.966   .     S
Cu872  O895    1.931   .     S
Cu872  O899    1.949   .     S
Cu872  N890    2.015   .     S
Cu872  O897    1.966   .     S
Cu872  O893    1.964   .     S
H888   C317    1.084   1_556 S
C901   O951    1.294   .     A
C901   C909    1.450   .     S
C901   O953    1.291   .     A
C902   C904    1.494   .     S
C902   C919    1.427   .     A
C902   C923    1.427   .     A
C903   C909    1.402   .     A
C903   H938    1.083   .     S
C903   C545    1.383   1_565 S
C904   O955    1.306   .     A
C904   O954    1.298   .     A
C905   C906    1.400   .     A
C905   H941    1.083   .     S
C906   C907    1.402   .     A
C906   C915    1.450   .     S
C907   H942    1.083   .     S
C908   H943    1.083   .     S
C908   C909    1.400   .     A
C908   C547    1.384   1_565 S
C910   H944    1.080   .     S
C910   N950    1.367   .     A
C910   C971    1.416   .     S
C911   N949    1.367   .     A
C911   H945    1.082   .     S
C911   C1030   1.416   1_455 S
C912   C923    1.420   .     A
C912   C381    1.413   1_556 S
C912   C385    1.427   1_556 S
C913   N949    1.354   .     A
C913   H946    1.082   .     S
C913   C1034   1.418   1_455 S
C914   C922    1.484   .     S
C914   N950    1.389   .     A
C914   C973    1.418   .     S
C915   O957    1.294   .     A
C915   O956    1.291   .     A
C916   O958    1.295   .     A
C916   C918    1.464   .     S
C916   O959    1.297   .     A
C917   C930    1.394   .     A
C918   C929    1.396   .     A
C918   C930    1.398   .     A
C919   C920    1.394   .     A
C919   C924    1.485   .     S
C920   C381    1.384   1_556 S
C920   H396    1.084   1_556 S
C921   H935    1.076   .     S
C922   O960    1.222   .     D
C922   H939    1.072   .     S
C923   C928    1.412   .     A
C924   O952    1.221   .     D
C924   H940    1.083   .     S
C925   C929    1.404   .     A
C926   C927    1.392   .     A
C926   C377    1.405   1_556 S
C926   C385    1.420   1_556 S
C927   H947    1.084   .     S
C927   C928    1.387   .     A
C928   H937    1.079   .     S
C929   H934    1.075   .     S
C930   H933    1.083   .     S
Cu931  O956    1.964   .     S
Cu931  N949    2.016   .     S
Cu931  O958    1.931   .     S
Cu931  O954    1.949   .     S
Cu931  Cu932   2.682   .     S
Cu931  O951    1.966   .     S
Cu932  O955    1.931   .     S
Cu932  O959    1.949   .     S
Cu932  N950    2.015   .     S
Cu932  O957    1.966   .     S
Cu932  O953    1.964   .     S
H948   C377    1.084   1_556 S
C961   O1011   1.294   .     A
C961   C969    1.450   .     S
C961   O1013   1.291   .     A
C962   C964    1.494   .     S
C962   C979    1.427   .     A
C962   C983    1.427   .     A
C963   C969    1.402   .     A
C963   H998    1.083   .     S
C963   C605    1.383   1_565 S
C964   O1015   1.306   .     A
C964   O1014   1.298   .     A
C965   C966    1.400   .     A
C965   H1001   1.083   .     S
C966   C967    1.402   .     A
C966   C975    1.450   .     S
C967   H1002   1.083   .     S
C968   H1003   1.083   .     S
C968   C969    1.400   .     A
C968   C607    1.384   1_565 S
C970   H1004   1.080   .     S
C970   N1010   1.367   .     A
C970   C1031   1.416   .     S
C971   N1009   1.367   .     A
C971   H1005   1.082   .     S
C972   C983    1.420   .     A
C972   C441    1.413   1_556 S
C972   C445    1.427   1_556 S
C973   N1009   1.354   .     A
C973   H1006   1.082   .     S
C974   C982    1.484   .     S
C974   N1010   1.389   .     A
C974   C1033   1.418   .     S
C975   O1017   1.294   .     A
C975   O1016   1.291   .     A
C976   O1018   1.295   .     A
C976   C978    1.464   .     S
C976   O1019   1.297   .     A
C977   C990    1.394   .     A
C978   C989    1.396   .     A
C978   C990    1.398   .     A
C979   C980    1.394   .     A
C979   C984    1.485   .     S
C980   C441    1.384   1_556 S
C980   H456    1.084   1_556 S
C981   H995    1.076   .     S
C982   O1020   1.222   .     D
C982   H999    1.072   .     S
C983   C988    1.412   .     A
C984   O1012   1.221   .     D
C984   H1000   1.083   .     S
C985   C989    1.404   .     A
C986   C987    1.392   .     A
C986   C437    1.405   1_556 S
C986   C445    1.420   1_556 S
C987   H1007   1.084   .     S
C987   C988    1.387   .     A
C988   H997    1.079   .     S
C989   H994    1.075   .     S
C990   H993    1.083   .     S
Cu991  O1016   1.964   .     S
Cu991  N1009   2.016   .     S
Cu991  O1018   1.931   .     S
Cu991  O1014   1.949   .     S
Cu991  Cu992   2.682   .     S
Cu991  O1011   1.966   .     S
Cu992  O1015   1.931   .     S
Cu992  O1019   1.949   .     S
Cu992  N1010   2.015   .     S
Cu992  O1017   1.966   .     S
Cu992  O1013   1.964   .     S
H1008  C437    1.084   1_556 S
C1021  O1071   1.294   .     A
C1021  C1029   1.450   .     S
C1021  O1073   1.291   .     A
C1022  C1024   1.494   .     S
C1022  C1039   1.427   .     A
C1022  C1043   1.427   .     A
C1023  C1029   1.402   .     A
C1023  H1058   1.083   .     S
C1023  C665    1.383   1_565 S
C1024  O1075   1.306   .     A
C1024  O1074   1.298   .     A
C1025  C1026   1.400   .     A
C1025  H1061   1.083   .     S
C1026  C1027   1.402   .     A
C1026  C1035   1.450   .     S
C1027  H1062   1.083   .     S
C1028  H1063   1.083   .     S
C1028  C1029   1.400   .     A
C1028  C667    1.384   1_565 S
C1030  H1064   1.080   .     S
C1030  N1070   1.367   .     A
C1030  C911    1.416   1_655 S
C1031  N1069   1.367   .     A
C1031  H1065   1.082   .     S
C1032  C1043   1.420   .     A
C1032  C501    1.413   1_556 S
C1032  C505    1.427   1_556 S
C1033  N1069   1.354   .     A
C1033  H1066   1.082   .     S
C1034  C1042   1.484   .     S
C1034  N1070   1.389   .     A
C1034  C913    1.418   1_655 S
C1035  O1077   1.294   .     A
C1035  O1076   1.291   .     A
C1036  O1078   1.295   .     A
C1036  C1038   1.464   .     S
C1036  O1079   1.297   .     A
C1037  C1050   1.394   .     A
C1038  C1049   1.396   .     A
C1038  C1050   1.398   .     A
C1039  C1040   1.394   .     A
C1039  C1044   1.485   .     S
C1040  C501    1.384   1_556 S
C1040  H516    1.084   1_556 S
C1041  H1055   1.076   .     S
C1042  O1080   1.222   .     D
C1042  H1059   1.072   .     S
C1043  C1048   1.412   .     A
C1044  O1072   1.221   .     D
C1044  H1060   1.083   .     S
C1045  C1049   1.404   .     A
C1046  C1047   1.392   .     A
C1046  C497    1.405   1_556 S
C1046  C505    1.420   1_556 S
C1047  H1067   1.084   .     S
C1047  C1048   1.387   .     A
C1048  H1057   1.079   .     S
C1049  H1054   1.075   .     S
C1050  H1053   1.083   .     S
Cu1051 O1076   1.964   .     S
Cu1051 N1069   2.016   .     S
Cu1051 O1078   1.931   .     S
Cu1051 O1074   1.949   .     S
Cu1051 Cu1052  2.682   .     S
Cu1051 O1071   1.966   .     S
Cu1052 O1075   1.931   .     S
Cu1052 O1079   1.949   .     S
Cu1052 N1070   2.015   .     S
Cu1052 O1077   1.966   .     S
Cu1052 O1073   1.964   .     S
H1068  C497    1.084   1_556 S
