data_str_m2_o1_o10_pcu_sym.188
_audit_creation_date              2020-01-03
_audit_creation_method            'Materials Studio'
_symmetry_space_group_name_H-M    'P1'
_symmetry_Int_Tables_number       1
_symmetry_cell_setting            triclinic
loop_
_symmetry_equiv_pos_as_xyz
  x,y,z
_cell_length_a                    26.3135
_cell_length_b                    32.3506
_cell_length_c                    28.8173
_cell_angle_alpha                 88.9410
_cell_angle_beta                  97.3335
_cell_angle_gamma                 91.9052
loop_
_atom_site_label
_atom_site_type_symbol
_atom_site_fract_x
_atom_site_fract_y
_atom_site_fract_z
_atom_site_U_iso_or_equiv
_atom_site_adp_type
_atom_site_occupancy
C1     C     0.16661   0.08761   0.16699   0.00000  Uiso   1.00
C2     C     0.16672   0.24572   0.16634   0.00000  Uiso   1.00
C3     C     0.06818   0.16647   0.15484   0.00000  Uiso   1.00
C4     C     0.26515   0.16687   0.17850   0.00000  Uiso   1.00
C5     C     0.01319   0.16559   0.14827   0.00000  Uiso   1.00
C6     C     0.32014   0.16774   0.18506   0.00000  Uiso   1.00
C7     C     0.12414   0.02081   0.14337   0.00000  Uiso   1.00
C8     C     0.20919   0.31253   0.18996   0.00000  Uiso   1.00
C9     C     0.12445   0.31122   0.14241   0.00000  Uiso   1.00
C10    C     0.20888   0.02212   0.19092   0.00000  Uiso   1.00
C11    C     0.16698   0.29035   0.16577   0.00000  Uiso   1.00
C12    C     0.16636   0.04298   0.16756   0.00000  Uiso   1.00
C13    C     0.13095   0.14397   0.02158   0.00000  Uiso   1.00
C14    C     0.20239   0.18936   0.31175   0.00000  Uiso   1.00
C15    C     0.13069   0.14360   0.30580   0.00000  Uiso   1.00
C16    C     0.20264   0.18973   0.02753   0.00000  Uiso   1.00
Cu17   Cu    0.16667   0.16667   0.21355   0.00000  Uiso   1.00
Cu18   Cu    0.16667   0.16666   0.11978   0.00000  Uiso   1.00
N19    N     0.16668   0.16668   0.28403   0.00000  Uiso   1.00
N20    N     0.16665   0.16666   0.04931   0.00000  Uiso   1.00
O21    O     0.16666   0.10655   0.20625   0.00000  Uiso   1.00
O22    O     0.16667   0.22678   0.12709   0.00000  Uiso   1.00
O23    O     0.16666   0.10654   0.12706   0.00000  Uiso   1.00
O24    O     0.16667   0.22679   0.20628   0.00000  Uiso   1.00
O25    O     0.09161   0.16667   0.19712   0.00000  Uiso   1.00
O26    O     0.24172   0.16666   0.13621   0.00000  Uiso   1.00
O27    O     0.09161   0.16666   0.11793   0.00000  Uiso   1.00
O28    O     0.24172   0.16667   0.21540   0.00000  Uiso   1.00
F29    F     0.32294   0.16196   0.10354   0.00000  Uiso   1.00
F30    F     0.01039   0.17137   0.22979   0.00000  Uiso   1.00
O31    O     0.08102   0.03963   0.12099   0.00000  Uiso   1.00
H32    H     0.07975   0.06845   0.13151   0.00000  Uiso   1.00
O33    O     0.25231   0.29370   0.21234   0.00000  Uiso   1.00
H34    H     0.25358   0.26488   0.20182   0.00000  Uiso   1.00
O35    O     0.08148   0.29110   0.11933   0.00000  Uiso   1.00
H36    H     0.08137   0.26126   0.12726   0.00000  Uiso   1.00
O37    O     0.25185   0.04223   0.21400   0.00000  Uiso   1.00
H38    H     0.25196   0.07207   0.20608   0.00000  Uiso   1.00
F39    F     0.09558   0.12050   0.04134   0.00000  Uiso   1.00
F40    F     0.23775   0.21283   0.29200   0.00000  Uiso   1.00
O41    O     0.09272   0.11938   0.28155   0.00000  Uiso   1.00
H42    H     0.10292   0.11290   0.25114   0.00000  Uiso   1.00
O43    O     0.24061   0.21395   0.05178   0.00000  Uiso   1.00
H44    H     0.23041   0.22044   0.08220   0.00000  Uiso   1.00
C45    C     0.49995   0.08761   0.16699   0.00000  Uiso   1.00
C46    C     0.50005   0.24572   0.16634   0.00000  Uiso   1.00
C47    C     0.40151   0.16647   0.15484   0.00000  Uiso   1.00
C48    C     0.59849   0.16687   0.17850   0.00000  Uiso   1.00
C49    C     0.34653   0.16559   0.14827   0.00000  Uiso   1.00
C50    C     0.65347   0.16774   0.18506   0.00000  Uiso   1.00
C51    C     0.45748   0.02081   0.14337   0.00000  Uiso   1.00
C52    C     0.54252   0.31253   0.18996   0.00000  Uiso   1.00
C53    C     0.45779   0.31122   0.14241   0.00000  Uiso   1.00
C54    C     0.54221   0.02212   0.19092   0.00000  Uiso   1.00
C55    C     0.50031   0.29035   0.16577   0.00000  Uiso   1.00
C56    C     0.49969   0.04298   0.16756   0.00000  Uiso   1.00
C57    C     0.46428   0.14397   0.02158   0.00000  Uiso   1.00
C58    C     0.53572   0.18936   0.31175   0.00000  Uiso   1.00
C59    C     0.46402   0.14360   0.30580   0.00000  Uiso   1.00
C60    C     0.53598   0.18973   0.02753   0.00000  Uiso   1.00
Cu61   Cu    0.50000   0.16667   0.21355   0.00000  Uiso   1.00
Cu62   Cu    0.50000   0.16666   0.11978   0.00000  Uiso   1.00
N63    N     0.50001   0.16668   0.28403   0.00000  Uiso   1.00
N64    N     0.49999   0.16666   0.04931   0.00000  Uiso   1.00
O65    O     0.50000   0.10655   0.20625   0.00000  Uiso   1.00
O66    O     0.50000   0.22678   0.12709   0.00000  Uiso   1.00
O67    O     0.50000   0.10654   0.12706   0.00000  Uiso   1.00
O68    O     0.50000   0.22679   0.20628   0.00000  Uiso   1.00
O69    O     0.42495   0.16667   0.19712   0.00000  Uiso   1.00
O70    O     0.57505   0.16666   0.13621   0.00000  Uiso   1.00
O71    O     0.42494   0.16666   0.11793   0.00000  Uiso   1.00
O72    O     0.57506   0.16667   0.21540   0.00000  Uiso   1.00
F73    F     0.65628   0.16196   0.10354   0.00000  Uiso   1.00
F74    F     0.34372   0.17137   0.22979   0.00000  Uiso   1.00
O75    O     0.41435   0.03963   0.12099   0.00000  Uiso   1.00
H76    H     0.41309   0.06845   0.13151   0.00000  Uiso   1.00
O77    O     0.58565   0.29370   0.21234   0.00000  Uiso   1.00
H78    H     0.58691   0.26488   0.20182   0.00000  Uiso   1.00
O79    O     0.41481   0.29110   0.11933   0.00000  Uiso   1.00
H80    H     0.41470   0.26126   0.12726   0.00000  Uiso   1.00
O81    O     0.58519   0.04223   0.21400   0.00000  Uiso   1.00
H82    H     0.58529   0.07207   0.20608   0.00000  Uiso   1.00
F83    F     0.42891   0.12050   0.04134   0.00000  Uiso   1.00
F84    F     0.57109   0.21283   0.29200   0.00000  Uiso   1.00
O85    O     0.42606   0.11938   0.28155   0.00000  Uiso   1.00
H86    H     0.43625   0.11290   0.25114   0.00000  Uiso   1.00
O87    O     0.57394   0.21395   0.05178   0.00000  Uiso   1.00
H88    H     0.56375   0.22044   0.08220   0.00000  Uiso   1.00
C89    C     0.83328   0.08761   0.16699   0.00000  Uiso   1.00
C90    C     0.83339   0.24572   0.16634   0.00000  Uiso   1.00
C91    C     0.73485   0.16647   0.15484   0.00000  Uiso   1.00
C92    C     0.93182   0.16687   0.17850   0.00000  Uiso   1.00
C93    C     0.67986   0.16559   0.14827   0.00000  Uiso   1.00
C94    C     0.98680   0.16774   0.18506   0.00000  Uiso   1.00
C95    C     0.79081   0.02081   0.14337   0.00000  Uiso   1.00
C96    C     0.87586   0.31253   0.18996   0.00000  Uiso   1.00
C97    C     0.79112   0.31122   0.14241   0.00000  Uiso   1.00
C98    C     0.87555   0.02212   0.19092   0.00000  Uiso   1.00
C99    C     0.83364   0.29035   0.16577   0.00000  Uiso   1.00
C100   C     0.83302   0.04298   0.16756   0.00000  Uiso   1.00
C101   C     0.79761   0.14397   0.02158   0.00000  Uiso   1.00
C102   C     0.86905   0.18936   0.31175   0.00000  Uiso   1.00
C103   C     0.79735   0.14360   0.30580   0.00000  Uiso   1.00
C104   C     0.86931   0.18973   0.02753   0.00000  Uiso   1.00
Cu105  Cu    0.83333   0.16667   0.21355   0.00000  Uiso   1.00
Cu106  Cu    0.83333   0.16666   0.11978   0.00000  Uiso   1.00
N107   N     0.83335   0.16668   0.28403   0.00000  Uiso   1.00
N108   N     0.83332   0.16666   0.04931   0.00000  Uiso   1.00
O109   O     0.83333   0.10655   0.20625   0.00000  Uiso   1.00
O110   O     0.83334   0.22678   0.12709   0.00000  Uiso   1.00
O111   O     0.83333   0.10654   0.12706   0.00000  Uiso   1.00
O112   O     0.83334   0.22679   0.20628   0.00000  Uiso   1.00
O113   O     0.75828   0.16667   0.19712   0.00000  Uiso   1.00
O114   O     0.90839   0.16666   0.13621   0.00000  Uiso   1.00
O115   O     0.75828   0.16666   0.11793   0.00000  Uiso   1.00
O116   O     0.90839   0.16667   0.21540   0.00000  Uiso   1.00
F117   F     0.98961   0.16196   0.10354   0.00000  Uiso   1.00
F118   F     0.67706   0.17137   0.22979   0.00000  Uiso   1.00
O119   O     0.74769   0.03963   0.12099   0.00000  Uiso   1.00
H120   H     0.74642   0.06845   0.13151   0.00000  Uiso   1.00
O121   O     0.91898   0.29370   0.21234   0.00000  Uiso   1.00
H122   H     0.92025   0.26488   0.20182   0.00000  Uiso   1.00
O123   O     0.74815   0.29110   0.11933   0.00000  Uiso   1.00
H124   H     0.74804   0.26126   0.12726   0.00000  Uiso   1.00
O125   O     0.91852   0.04223   0.21400   0.00000  Uiso   1.00
H126   H     0.91863   0.07207   0.20608   0.00000  Uiso   1.00
F127   F     0.76225   0.12050   0.04134   0.00000  Uiso   1.00
F128   F     0.90442   0.21283   0.29200   0.00000  Uiso   1.00
O129   O     0.75939   0.11938   0.28155   0.00000  Uiso   1.00
H130   H     0.76959   0.11290   0.25114   0.00000  Uiso   1.00
O131   O     0.90728   0.21395   0.05178   0.00000  Uiso   1.00
H132   H     0.89708   0.22044   0.08220   0.00000  Uiso   1.00
C133   C     0.16661   0.42095   0.16699   0.00000  Uiso   1.00
C134   C     0.16672   0.57905   0.16634   0.00000  Uiso   1.00
C135   C     0.06818   0.49980   0.15484   0.00000  Uiso   1.00
C136   C     0.26515   0.50020   0.17850   0.00000  Uiso   1.00
C137   C     0.01319   0.49892   0.14827   0.00000  Uiso   1.00
C138   C     0.32014   0.50108   0.18506   0.00000  Uiso   1.00
C139   C     0.12414   0.35414   0.14337   0.00000  Uiso   1.00
C140   C     0.20919   0.64586   0.18996   0.00000  Uiso   1.00
C141   C     0.12445   0.64455   0.14241   0.00000  Uiso   1.00
C142   C     0.20888   0.35545   0.19092   0.00000  Uiso   1.00
C143   C     0.16698   0.62369   0.16577   0.00000  Uiso   1.00
C144   C     0.16636   0.37631   0.16756   0.00000  Uiso   1.00
C145   C     0.13095   0.47730   0.02158   0.00000  Uiso   1.00
C146   C     0.20239   0.52270   0.31175   0.00000  Uiso   1.00
C147   C     0.13069   0.47693   0.30580   0.00000  Uiso   1.00
C148   C     0.20264   0.52307   0.02753   0.00000  Uiso   1.00
Cu149  Cu    0.16667   0.50001   0.21355   0.00000  Uiso   1.00
Cu150  Cu    0.16667   0.49999   0.11978   0.00000  Uiso   1.00
N151   N     0.16668   0.50001   0.28403   0.00000  Uiso   1.00
N152   N     0.16665   0.49999   0.04931   0.00000  Uiso   1.00
O153   O     0.16666   0.43989   0.20625   0.00000  Uiso   1.00
O154   O     0.16667   0.56011   0.12709   0.00000  Uiso   1.00
O155   O     0.16666   0.43988   0.12706   0.00000  Uiso   1.00
O156   O     0.16667   0.56012   0.20628   0.00000  Uiso   1.00
O157   O     0.09161   0.50000   0.19712   0.00000  Uiso   1.00
O158   O     0.24172   0.50000   0.13621   0.00000  Uiso   1.00
O159   O     0.09161   0.49999   0.11793   0.00000  Uiso   1.00
O160   O     0.24172   0.50001   0.21540   0.00000  Uiso   1.00
F161   F     0.32294   0.49529   0.10354   0.00000  Uiso   1.00
F162   F     0.01039   0.50471   0.22979   0.00000  Uiso   1.00
O163   O     0.08102   0.37297   0.12099   0.00000  Uiso   1.00
H164   H     0.07975   0.40178   0.13151   0.00000  Uiso   1.00
O165   O     0.25231   0.62703   0.21234   0.00000  Uiso   1.00
H166   H     0.25358   0.59822   0.20182   0.00000  Uiso   1.00
O167   O     0.08148   0.62443   0.11933   0.00000  Uiso   1.00
H168   H     0.08137   0.59460   0.12726   0.00000  Uiso   1.00
O169   O     0.25185   0.37557   0.21400   0.00000  Uiso   1.00
H170   H     0.25196   0.40540   0.20608   0.00000  Uiso   1.00
F171   F     0.09558   0.45384   0.04134   0.00000  Uiso   1.00
F172   F     0.23775   0.54617   0.29200   0.00000  Uiso   1.00
O173   O     0.09272   0.45271   0.28155   0.00000  Uiso   1.00
H174   H     0.10292   0.44623   0.25114   0.00000  Uiso   1.00
O175   O     0.24061   0.54729   0.05178   0.00000  Uiso   1.00
H176   H     0.23041   0.55377   0.08220   0.00000  Uiso   1.00
C177   C     0.49995   0.42095   0.16699   0.00000  Uiso   1.00
C178   C     0.50005   0.57905   0.16634   0.00000  Uiso   1.00
C179   C     0.40151   0.49980   0.15484   0.00000  Uiso   1.00
C180   C     0.59849   0.50020   0.17850   0.00000  Uiso   1.00
C181   C     0.34653   0.49892   0.14827   0.00000  Uiso   1.00
C182   C     0.65347   0.50108   0.18506   0.00000  Uiso   1.00
C183   C     0.45748   0.35414   0.14337   0.00000  Uiso   1.00
C184   C     0.54252   0.64586   0.18996   0.00000  Uiso   1.00
C185   C     0.45779   0.64455   0.14241   0.00000  Uiso   1.00
C186   C     0.54221   0.35545   0.19092   0.00000  Uiso   1.00
C187   C     0.50031   0.62369   0.16577   0.00000  Uiso   1.00
C188   C     0.49969   0.37631   0.16756   0.00000  Uiso   1.00
C189   C     0.46428   0.47730   0.02158   0.00000  Uiso   1.00
C190   C     0.53572   0.52270   0.31175   0.00000  Uiso   1.00
C191   C     0.46402   0.47693   0.30580   0.00000  Uiso   1.00
C192   C     0.53598   0.52307   0.02753   0.00000  Uiso   1.00
Cu193  Cu    0.50000   0.50001   0.21355   0.00000  Uiso   1.00
Cu194  Cu    0.50000   0.49999   0.11978   0.00000  Uiso   1.00
N195   N     0.50001   0.50001   0.28403   0.00000  Uiso   1.00
N196   N     0.49999   0.49999   0.04931   0.00000  Uiso   1.00
O197   O     0.50000   0.43989   0.20625   0.00000  Uiso   1.00
O198   O     0.50000   0.56011   0.12709   0.00000  Uiso   1.00
O199   O     0.50000   0.43988   0.12706   0.00000  Uiso   1.00
O200   O     0.50000   0.56012   0.20628   0.00000  Uiso   1.00
O201   O     0.42495   0.50000   0.19712   0.00000  Uiso   1.00
O202   O     0.57505   0.50000   0.13621   0.00000  Uiso   1.00
O203   O     0.42494   0.49999   0.11793   0.00000  Uiso   1.00
O204   O     0.57506   0.50001   0.21540   0.00000  Uiso   1.00
F205   F     0.65628   0.49529   0.10354   0.00000  Uiso   1.00
F206   F     0.34372   0.50471   0.22979   0.00000  Uiso   1.00
O207   O     0.41435   0.37297   0.12099   0.00000  Uiso   1.00
H208   H     0.41309   0.40178   0.13151   0.00000  Uiso   1.00
O209   O     0.58565   0.62703   0.21234   0.00000  Uiso   1.00
H210   H     0.58691   0.59822   0.20182   0.00000  Uiso   1.00
O211   O     0.41481   0.62443   0.11933   0.00000  Uiso   1.00
H212   H     0.41470   0.59460   0.12726   0.00000  Uiso   1.00
O213   O     0.58519   0.37557   0.21400   0.00000  Uiso   1.00
H214   H     0.58529   0.40540   0.20608   0.00000  Uiso   1.00
F215   F     0.42891   0.45384   0.04134   0.00000  Uiso   1.00
F216   F     0.57109   0.54617   0.29200   0.00000  Uiso   1.00
O217   O     0.42606   0.45271   0.28155   0.00000  Uiso   1.00
H218   H     0.43625   0.44623   0.25114   0.00000  Uiso   1.00
O219   O     0.57394   0.54729   0.05178   0.00000  Uiso   1.00
H220   H     0.56375   0.55377   0.08220   0.00000  Uiso   1.00
C221   C     0.83328   0.42095   0.16699   0.00000  Uiso   1.00
C222   C     0.83339   0.57905   0.16634   0.00000  Uiso   1.00
C223   C     0.73485   0.49980   0.15484   0.00000  Uiso   1.00
C224   C     0.93182   0.50020   0.17850   0.00000  Uiso   1.00
C225   C     0.67986   0.49892   0.14827   0.00000  Uiso   1.00
C226   C     0.98680   0.50108   0.18506   0.00000  Uiso   1.00
C227   C     0.79081   0.35414   0.14337   0.00000  Uiso   1.00
C228   C     0.87586   0.64586   0.18996   0.00000  Uiso   1.00
C229   C     0.79112   0.64455   0.14241   0.00000  Uiso   1.00
C230   C     0.87555   0.35545   0.19092   0.00000  Uiso   1.00
C231   C     0.83364   0.62369   0.16577   0.00000  Uiso   1.00
C232   C     0.83302   0.37631   0.16756   0.00000  Uiso   1.00
C233   C     0.79761   0.47730   0.02158   0.00000  Uiso   1.00
C234   C     0.86905   0.52270   0.31175   0.00000  Uiso   1.00
C235   C     0.79735   0.47693   0.30580   0.00000  Uiso   1.00
C236   C     0.86931   0.52307   0.02753   0.00000  Uiso   1.00
Cu237  Cu    0.83333   0.50001   0.21355   0.00000  Uiso   1.00
Cu238  Cu    0.83333   0.49999   0.11978   0.00000  Uiso   1.00
N239   N     0.83335   0.50001   0.28403   0.00000  Uiso   1.00
N240   N     0.83332   0.49999   0.04931   0.00000  Uiso   1.00
O241   O     0.83333   0.43989   0.20625   0.00000  Uiso   1.00
O242   O     0.83334   0.56011   0.12709   0.00000  Uiso   1.00
O243   O     0.83333   0.43988   0.12706   0.00000  Uiso   1.00
O244   O     0.83334   0.56012   0.20628   0.00000  Uiso   1.00
O245   O     0.75828   0.50000   0.19712   0.00000  Uiso   1.00
O246   O     0.90839   0.50000   0.13621   0.00000  Uiso   1.00
O247   O     0.75828   0.49999   0.11793   0.00000  Uiso   1.00
O248   O     0.90839   0.50001   0.21540   0.00000  Uiso   1.00
F249   F     0.98961   0.49529   0.10354   0.00000  Uiso   1.00
F250   F     0.67706   0.50471   0.22979   0.00000  Uiso   1.00
O251   O     0.74769   0.37297   0.12099   0.00000  Uiso   1.00
H252   H     0.74642   0.40178   0.13151   0.00000  Uiso   1.00
O253   O     0.91898   0.62703   0.21234   0.00000  Uiso   1.00
H254   H     0.92025   0.59822   0.20182   0.00000  Uiso   1.00
O255   O     0.74815   0.62443   0.11933   0.00000  Uiso   1.00
H256   H     0.74804   0.59460   0.12726   0.00000  Uiso   1.00
O257   O     0.91852   0.37557   0.21400   0.00000  Uiso   1.00
H258   H     0.91863   0.40540   0.20608   0.00000  Uiso   1.00
F259   F     0.76225   0.45384   0.04134   0.00000  Uiso   1.00
F260   F     0.90442   0.54617   0.29200   0.00000  Uiso   1.00
O261   O     0.75939   0.45271   0.28155   0.00000  Uiso   1.00
H262   H     0.76959   0.44623   0.25114   0.00000  Uiso   1.00
O263   O     0.90728   0.54729   0.05178   0.00000  Uiso   1.00
H264   H     0.89708   0.55377   0.08220   0.00000  Uiso   1.00
C265   C     0.16661   0.75428   0.16699   0.00000  Uiso   1.00
C266   C     0.16672   0.91239   0.16634   0.00000  Uiso   1.00
C267   C     0.06818   0.83313   0.15484   0.00000  Uiso   1.00
C268   C     0.26515   0.83353   0.17850   0.00000  Uiso   1.00
C269   C     0.01319   0.83226   0.14827   0.00000  Uiso   1.00
C270   C     0.32014   0.83441   0.18506   0.00000  Uiso   1.00
C271   C     0.12414   0.68747   0.14337   0.00000  Uiso   1.00
C272   C     0.20919   0.97919   0.18996   0.00000  Uiso   1.00
C273   C     0.12445   0.97788   0.14241   0.00000  Uiso   1.00
C274   C     0.20888   0.68878   0.19092   0.00000  Uiso   1.00
C275   C     0.16698   0.95702   0.16577   0.00000  Uiso   1.00
C276   C     0.16636   0.70965   0.16756   0.00000  Uiso   1.00
C277   C     0.13095   0.81064   0.02158   0.00000  Uiso   1.00
C278   C     0.20239   0.85603   0.31175   0.00000  Uiso   1.00
C279   C     0.13069   0.81027   0.30580   0.00000  Uiso   1.00
C280   C     0.20264   0.85640   0.02753   0.00000  Uiso   1.00
Cu281  Cu    0.16667   0.83334   0.21355   0.00000  Uiso   1.00
Cu282  Cu    0.16667   0.83333   0.11978   0.00000  Uiso   1.00
N283   N     0.16668   0.83334   0.28403   0.00000  Uiso   1.00
N284   N     0.16665   0.83332   0.04931   0.00000  Uiso   1.00
O285   O     0.16666   0.77322   0.20625   0.00000  Uiso   1.00
O286   O     0.16667   0.89345   0.12709   0.00000  Uiso   1.00
O287   O     0.16666   0.77321   0.12706   0.00000  Uiso   1.00
O288   O     0.16667   0.89346   0.20628   0.00000  Uiso   1.00
O289   O     0.09161   0.83334   0.19712   0.00000  Uiso   1.00
O290   O     0.24172   0.83333   0.13621   0.00000  Uiso   1.00
O291   O     0.09161   0.83333   0.11793   0.00000  Uiso   1.00
O292   O     0.24172   0.83334   0.21540   0.00000  Uiso   1.00
F293   F     0.32294   0.82863   0.10354   0.00000  Uiso   1.00
F294   F     0.01039   0.83804   0.22979   0.00000  Uiso   1.00
O295   O     0.08102   0.70630   0.12099   0.00000  Uiso   1.00
H296   H     0.07975   0.73512   0.13151   0.00000  Uiso   1.00
O297   O     0.25231   0.96037   0.21234   0.00000  Uiso   1.00
H298   H     0.25358   0.93155   0.20182   0.00000  Uiso   1.00
O299   O     0.08148   0.95777   0.11933   0.00000  Uiso   1.00
H300   H     0.08137   0.92793   0.12726   0.00000  Uiso   1.00
O301   O     0.25185   0.70890   0.21400   0.00000  Uiso   1.00
H302   H     0.25196   0.73874   0.20608   0.00000  Uiso   1.00
F303   F     0.09558   0.78717   0.04134   0.00000  Uiso   1.00
F304   F     0.23775   0.87950   0.29200   0.00000  Uiso   1.00
O305   O     0.09272   0.78605   0.28155   0.00000  Uiso   1.00
H306   H     0.10292   0.77957   0.25114   0.00000  Uiso   1.00
O307   O     0.24061   0.88062   0.05178   0.00000  Uiso   1.00
H308   H     0.23041   0.88710   0.08220   0.00000  Uiso   1.00
C309   C     0.49995   0.75428   0.16699   0.00000  Uiso   1.00
C310   C     0.50005   0.91239   0.16634   0.00000  Uiso   1.00
C311   C     0.40151   0.83313   0.15484   0.00000  Uiso   1.00
C312   C     0.59849   0.83353   0.17850   0.00000  Uiso   1.00
C313   C     0.34653   0.83226   0.14827   0.00000  Uiso   1.00
C314   C     0.65347   0.83441   0.18506   0.00000  Uiso   1.00
C315   C     0.45748   0.68747   0.14337   0.00000  Uiso   1.00
C316   C     0.54252   0.97919   0.18996   0.00000  Uiso   1.00
C317   C     0.45779   0.97788   0.14241   0.00000  Uiso   1.00
C318   C     0.54221   0.68878   0.19092   0.00000  Uiso   1.00
C319   C     0.50031   0.95702   0.16577   0.00000  Uiso   1.00
C320   C     0.49969   0.70965   0.16756   0.00000  Uiso   1.00
C321   C     0.46428   0.81064   0.02158   0.00000  Uiso   1.00
C322   C     0.53572   0.85603   0.31175   0.00000  Uiso   1.00
C323   C     0.46402   0.81027   0.30580   0.00000  Uiso   1.00
C324   C     0.53598   0.85640   0.02753   0.00000  Uiso   1.00
Cu325  Cu    0.50000   0.83334   0.21355   0.00000  Uiso   1.00
Cu326  Cu    0.50000   0.83333   0.11978   0.00000  Uiso   1.00
N327   N     0.50001   0.83334   0.28403   0.00000  Uiso   1.00
N328   N     0.49999   0.83332   0.04931   0.00000  Uiso   1.00
O329   O     0.50000   0.77322   0.20625   0.00000  Uiso   1.00
O330   O     0.50000   0.89345   0.12709   0.00000  Uiso   1.00
O331   O     0.50000   0.77321   0.12706   0.00000  Uiso   1.00
O332   O     0.50000   0.89346   0.20628   0.00000  Uiso   1.00
O333   O     0.42495   0.83334   0.19712   0.00000  Uiso   1.00
O334   O     0.57505   0.83333   0.13621   0.00000  Uiso   1.00
O335   O     0.42494   0.83333   0.11793   0.00000  Uiso   1.00
O336   O     0.57506   0.83334   0.21540   0.00000  Uiso   1.00
F337   F     0.65628   0.82863   0.10354   0.00000  Uiso   1.00
F338   F     0.34372   0.83804   0.22979   0.00000  Uiso   1.00
O339   O     0.41435   0.70630   0.12099   0.00000  Uiso   1.00
H340   H     0.41309   0.73512   0.13151   0.00000  Uiso   1.00
O341   O     0.58565   0.96037   0.21234   0.00000  Uiso   1.00
H342   H     0.58691   0.93155   0.20182   0.00000  Uiso   1.00
O343   O     0.41481   0.95777   0.11933   0.00000  Uiso   1.00
H344   H     0.41470   0.92793   0.12726   0.00000  Uiso   1.00
O345   O     0.58519   0.70890   0.21400   0.00000  Uiso   1.00
H346   H     0.58529   0.73874   0.20608   0.00000  Uiso   1.00
F347   F     0.42891   0.78717   0.04134   0.00000  Uiso   1.00
F348   F     0.57109   0.87950   0.29200   0.00000  Uiso   1.00
O349   O     0.42606   0.78605   0.28155   0.00000  Uiso   1.00
H350   H     0.43625   0.77957   0.25114   0.00000  Uiso   1.00
O351   O     0.57394   0.88062   0.05178   0.00000  Uiso   1.00
H352   H     0.56375   0.88710   0.08220   0.00000  Uiso   1.00
C353   C     0.83328   0.75428   0.16699   0.00000  Uiso   1.00
C354   C     0.83339   0.91239   0.16634   0.00000  Uiso   1.00
C355   C     0.73485   0.83313   0.15484   0.00000  Uiso   1.00
C356   C     0.93182   0.83353   0.17850   0.00000  Uiso   1.00
C357   C     0.67986   0.83226   0.14827   0.00000  Uiso   1.00
C358   C     0.98680   0.83441   0.18506   0.00000  Uiso   1.00
C359   C     0.79081   0.68747   0.14337   0.00000  Uiso   1.00
C360   C     0.87586   0.97919   0.18996   0.00000  Uiso   1.00
C361   C     0.79112   0.97788   0.14241   0.00000  Uiso   1.00
C362   C     0.87555   0.68878   0.19092   0.00000  Uiso   1.00
C363   C     0.83364   0.95702   0.16577   0.00000  Uiso   1.00
C364   C     0.83302   0.70965   0.16756   0.00000  Uiso   1.00
C365   C     0.79761   0.81064   0.02158   0.00000  Uiso   1.00
C366   C     0.86905   0.85603   0.31175   0.00000  Uiso   1.00
C367   C     0.79735   0.81027   0.30580   0.00000  Uiso   1.00
C368   C     0.86931   0.85640   0.02753   0.00000  Uiso   1.00
Cu369  Cu    0.83333   0.83334   0.21355   0.00000  Uiso   1.00
Cu370  Cu    0.83333   0.83333   0.11978   0.00000  Uiso   1.00
N371   N     0.83335   0.83334   0.28403   0.00000  Uiso   1.00
N372   N     0.83332   0.83332   0.04931   0.00000  Uiso   1.00
O373   O     0.83333   0.77322   0.20625   0.00000  Uiso   1.00
O374   O     0.83334   0.89345   0.12709   0.00000  Uiso   1.00
O375   O     0.83333   0.77321   0.12706   0.00000  Uiso   1.00
O376   O     0.83334   0.89346   0.20628   0.00000  Uiso   1.00
O377   O     0.75828   0.83334   0.19712   0.00000  Uiso   1.00
O378   O     0.90839   0.83333   0.13621   0.00000  Uiso   1.00
O379   O     0.75828   0.83333   0.11793   0.00000  Uiso   1.00
O380   O     0.90839   0.83334   0.21540   0.00000  Uiso   1.00
F381   F     0.98961   0.82863   0.10354   0.00000  Uiso   1.00
F382   F     0.67706   0.83804   0.22979   0.00000  Uiso   1.00
O383   O     0.74769   0.70630   0.12099   0.00000  Uiso   1.00
H384   H     0.74642   0.73512   0.13151   0.00000  Uiso   1.00
O385   O     0.91898   0.96037   0.21234   0.00000  Uiso   1.00
H386   H     0.92025   0.93155   0.20182   0.00000  Uiso   1.00
O387   O     0.74815   0.95777   0.11933   0.00000  Uiso   1.00
H388   H     0.74804   0.92793   0.12726   0.00000  Uiso   1.00
O389   O     0.91852   0.70890   0.21400   0.00000  Uiso   1.00
H390   H     0.91863   0.73874   0.20608   0.00000  Uiso   1.00
F391   F     0.76225   0.78717   0.04134   0.00000  Uiso   1.00
F392   F     0.90442   0.87950   0.29200   0.00000  Uiso   1.00
O393   O     0.75939   0.78605   0.28155   0.00000  Uiso   1.00
H394   H     0.76959   0.77957   0.25114   0.00000  Uiso   1.00
O395   O     0.90728   0.88062   0.05178   0.00000  Uiso   1.00
H396   H     0.89708   0.88710   0.08220   0.00000  Uiso   1.00
C397   C     0.16661   0.08761   0.50032   0.00000  Uiso   1.00
C398   C     0.16672   0.24572   0.49968   0.00000  Uiso   1.00
C399   C     0.06818   0.16647   0.48817   0.00000  Uiso   1.00
C400   C     0.26515   0.16687   0.51183   0.00000  Uiso   1.00
C401   C     0.01319   0.16559   0.48161   0.00000  Uiso   1.00
C402   C     0.32014   0.16774   0.51839   0.00000  Uiso   1.00
C403   C     0.12414   0.02081   0.47670   0.00000  Uiso   1.00
C404   C     0.20919   0.31253   0.52330   0.00000  Uiso   1.00
C405   C     0.12445   0.31122   0.47575   0.00000  Uiso   1.00
C406   C     0.20888   0.02212   0.52425   0.00000  Uiso   1.00
C407   C     0.16698   0.29035   0.49911   0.00000  Uiso   1.00
C408   C     0.16636   0.04298   0.50089   0.00000  Uiso   1.00
C409   C     0.13095   0.14397   0.35492   0.00000  Uiso   1.00
C410   C     0.20239   0.18936   0.64508   0.00000  Uiso   1.00
C411   C     0.13069   0.14360   0.63913   0.00000  Uiso   1.00
C412   C     0.20264   0.18973   0.36086   0.00000  Uiso   1.00
Cu413  Cu    0.16667   0.16667   0.54689   0.00000  Uiso   1.00
Cu414  Cu    0.16667   0.16666   0.45311   0.00000  Uiso   1.00
N415   N     0.16668   0.16668   0.61736   0.00000  Uiso   1.00
N416   N     0.16665   0.16666   0.38264   0.00000  Uiso   1.00
O417   O     0.16666   0.10655   0.53958   0.00000  Uiso   1.00
O418   O     0.16667   0.22678   0.46042   0.00000  Uiso   1.00
O419   O     0.16666   0.10654   0.46039   0.00000  Uiso   1.00
O420   O     0.16667   0.22679   0.53961   0.00000  Uiso   1.00
O421   O     0.09161   0.16667   0.53046   0.00000  Uiso   1.00
O422   O     0.24172   0.16666   0.46954   0.00000  Uiso   1.00
O423   O     0.09161   0.16666   0.45127   0.00000  Uiso   1.00
O424   O     0.24172   0.16667   0.54873   0.00000  Uiso   1.00
F425   F     0.32294   0.16196   0.43687   0.00000  Uiso   1.00
F426   F     0.01039   0.17137   0.56313   0.00000  Uiso   1.00
O427   O     0.08102   0.03963   0.45432   0.00000  Uiso   1.00
H428   H     0.07975   0.06845   0.46484   0.00000  Uiso   1.00
O429   O     0.25231   0.29370   0.54568   0.00000  Uiso   1.00
H430   H     0.25358   0.26488   0.53516   0.00000  Uiso   1.00
O431   O     0.08148   0.29110   0.45266   0.00000  Uiso   1.00
H432   H     0.08137   0.26126   0.46059   0.00000  Uiso   1.00
O433   O     0.25185   0.04223   0.54734   0.00000  Uiso   1.00
H434   H     0.25196   0.07207   0.53941   0.00000  Uiso   1.00
F435   F     0.09558   0.12050   0.37467   0.00000  Uiso   1.00
F436   F     0.23775   0.21283   0.62533   0.00000  Uiso   1.00
O437   O     0.09272   0.11938   0.61489   0.00000  Uiso   1.00
H438   H     0.10292   0.11290   0.58447   0.00000  Uiso   1.00
O439   O     0.24061   0.21395   0.38511   0.00000  Uiso   1.00
H440   H     0.23041   0.22044   0.41553   0.00000  Uiso   1.00
C441   C     0.49995   0.08761   0.50032   0.00000  Uiso   1.00
C442   C     0.50005   0.24572   0.49968   0.00000  Uiso   1.00
C443   C     0.40151   0.16647   0.48817   0.00000  Uiso   1.00
C444   C     0.59849   0.16687   0.51183   0.00000  Uiso   1.00
C445   C     0.34653   0.16559   0.48161   0.00000  Uiso   1.00
C446   C     0.65347   0.16774   0.51839   0.00000  Uiso   1.00
C447   C     0.45748   0.02081   0.47670   0.00000  Uiso   1.00
C448   C     0.54252   0.31253   0.52330   0.00000  Uiso   1.00
C449   C     0.45779   0.31122   0.47575   0.00000  Uiso   1.00
C450   C     0.54221   0.02212   0.52425   0.00000  Uiso   1.00
C451   C     0.50031   0.29035   0.49911   0.00000  Uiso   1.00
C452   C     0.49969   0.04298   0.50089   0.00000  Uiso   1.00
C453   C     0.46428   0.14397   0.35492   0.00000  Uiso   1.00
C454   C     0.53572   0.18936   0.64508   0.00000  Uiso   1.00
C455   C     0.46402   0.14360   0.63913   0.00000  Uiso   1.00
C456   C     0.53598   0.18973   0.36086   0.00000  Uiso   1.00
Cu457  Cu    0.50000   0.16667   0.54689   0.00000  Uiso   1.00
Cu458  Cu    0.50000   0.16666   0.45311   0.00000  Uiso   1.00
N459   N     0.50001   0.16668   0.61736   0.00000  Uiso   1.00
N460   N     0.49999   0.16666   0.38264   0.00000  Uiso   1.00
O461   O     0.50000   0.10655   0.53958   0.00000  Uiso   1.00
O462   O     0.50000   0.22678   0.46042   0.00000  Uiso   1.00
O463   O     0.50000   0.10654   0.46039   0.00000  Uiso   1.00
O464   O     0.50000   0.22679   0.53961   0.00000  Uiso   1.00
O465   O     0.42495   0.16667   0.53046   0.00000  Uiso   1.00
O466   O     0.57505   0.16666   0.46954   0.00000  Uiso   1.00
O467   O     0.42494   0.16666   0.45127   0.00000  Uiso   1.00
O468   O     0.57506   0.16667   0.54873   0.00000  Uiso   1.00
F469   F     0.65628   0.16196   0.43687   0.00000  Uiso   1.00
F470   F     0.34372   0.17137   0.56313   0.00000  Uiso   1.00
O471   O     0.41435   0.03963   0.45432   0.00000  Uiso   1.00
H472   H     0.41309   0.06845   0.46484   0.00000  Uiso   1.00
O473   O     0.58565   0.29370   0.54568   0.00000  Uiso   1.00
H474   H     0.58691   0.26488   0.53516   0.00000  Uiso   1.00
O475   O     0.41481   0.29110   0.45266   0.00000  Uiso   1.00
H476   H     0.41470   0.26126   0.46059   0.00000  Uiso   1.00
O477   O     0.58519   0.04223   0.54734   0.00000  Uiso   1.00
H478   H     0.58529   0.07207   0.53941   0.00000  Uiso   1.00
F479   F     0.42891   0.12050   0.37467   0.00000  Uiso   1.00
F480   F     0.57109   0.21283   0.62533   0.00000  Uiso   1.00
O481   O     0.42606   0.11938   0.61489   0.00000  Uiso   1.00
H482   H     0.43625   0.11290   0.58447   0.00000  Uiso   1.00
O483   O     0.57394   0.21395   0.38511   0.00000  Uiso   1.00
H484   H     0.56375   0.22044   0.41553   0.00000  Uiso   1.00
C485   C     0.83328   0.08761   0.50032   0.00000  Uiso   1.00
C486   C     0.83339   0.24572   0.49968   0.00000  Uiso   1.00
C487   C     0.73485   0.16647   0.48817   0.00000  Uiso   1.00
C488   C     0.93182   0.16687   0.51183   0.00000  Uiso   1.00
C489   C     0.67986   0.16559   0.48161   0.00000  Uiso   1.00
C490   C     0.98680   0.16774   0.51839   0.00000  Uiso   1.00
C491   C     0.79081   0.02081   0.47670   0.00000  Uiso   1.00
C492   C     0.87586   0.31253   0.52330   0.00000  Uiso   1.00
C493   C     0.79112   0.31122   0.47575   0.00000  Uiso   1.00
C494   C     0.87555   0.02212   0.52425   0.00000  Uiso   1.00
C495   C     0.83364   0.29035   0.49911   0.00000  Uiso   1.00
C496   C     0.83302   0.04298   0.50089   0.00000  Uiso   1.00
C497   C     0.79761   0.14397   0.35492   0.00000  Uiso   1.00
C498   C     0.86905   0.18936   0.64508   0.00000  Uiso   1.00
C499   C     0.79735   0.14360   0.63913   0.00000  Uiso   1.00
C500   C     0.86931   0.18973   0.36086   0.00000  Uiso   1.00
Cu501  Cu    0.83333   0.16667   0.54689   0.00000  Uiso   1.00
Cu502  Cu    0.83333   0.16666   0.45311   0.00000  Uiso   1.00
N503   N     0.83335   0.16668   0.61736   0.00000  Uiso   1.00
N504   N     0.83332   0.16666   0.38264   0.00000  Uiso   1.00
O505   O     0.83333   0.10655   0.53958   0.00000  Uiso   1.00
O506   O     0.83334   0.22678   0.46042   0.00000  Uiso   1.00
O507   O     0.83333   0.10654   0.46039   0.00000  Uiso   1.00
O508   O     0.83334   0.22679   0.53961   0.00000  Uiso   1.00
O509   O     0.75828   0.16667   0.53046   0.00000  Uiso   1.00
O510   O     0.90839   0.16666   0.46954   0.00000  Uiso   1.00
O511   O     0.75828   0.16666   0.45127   0.00000  Uiso   1.00
O512   O     0.90839   0.16667   0.54873   0.00000  Uiso   1.00
F513   F     0.98961   0.16196   0.43687   0.00000  Uiso   1.00
F514   F     0.67706   0.17137   0.56313   0.00000  Uiso   1.00
O515   O     0.74769   0.03963   0.45432   0.00000  Uiso   1.00
H516   H     0.74642   0.06845   0.46484   0.00000  Uiso   1.00
O517   O     0.91898   0.29370   0.54568   0.00000  Uiso   1.00
H518   H     0.92025   0.26488   0.53516   0.00000  Uiso   1.00
O519   O     0.74815   0.29110   0.45266   0.00000  Uiso   1.00
H520   H     0.74804   0.26126   0.46059   0.00000  Uiso   1.00
O521   O     0.91852   0.04223   0.54734   0.00000  Uiso   1.00
H522   H     0.91863   0.07207   0.53941   0.00000  Uiso   1.00
F523   F     0.76225   0.12050   0.37467   0.00000  Uiso   1.00
F524   F     0.90442   0.21283   0.62533   0.00000  Uiso   1.00
O525   O     0.75939   0.11938   0.61489   0.00000  Uiso   1.00
H526   H     0.76959   0.11290   0.58447   0.00000  Uiso   1.00
O527   O     0.90728   0.21395   0.38511   0.00000  Uiso   1.00
H528   H     0.89708   0.22044   0.41553   0.00000  Uiso   1.00
C529   C     0.16661   0.42095   0.50032   0.00000  Uiso   1.00
C530   C     0.16672   0.57905   0.49968   0.00000  Uiso   1.00
C531   C     0.06818   0.49980   0.48817   0.00000  Uiso   1.00
C532   C     0.26515   0.50020   0.51183   0.00000  Uiso   1.00
C533   C     0.01319   0.49892   0.48161   0.00000  Uiso   1.00
C534   C     0.32014   0.50108   0.51839   0.00000  Uiso   1.00
C535   C     0.12414   0.35414   0.47670   0.00000  Uiso   1.00
C536   C     0.20919   0.64586   0.52330   0.00000  Uiso   1.00
C537   C     0.12445   0.64455   0.47575   0.00000  Uiso   1.00
C538   C     0.20888   0.35545   0.52425   0.00000  Uiso   1.00
C539   C     0.16698   0.62369   0.49911   0.00000  Uiso   1.00
C540   C     0.16636   0.37631   0.50089   0.00000  Uiso   1.00
C541   C     0.13095   0.47730   0.35492   0.00000  Uiso   1.00
C542   C     0.20239   0.52270   0.64508   0.00000  Uiso   1.00
C543   C     0.13069   0.47693   0.63913   0.00000  Uiso   1.00
C544   C     0.20264   0.52307   0.36086   0.00000  Uiso   1.00
Cu545  Cu    0.16667   0.50001   0.54689   0.00000  Uiso   1.00
Cu546  Cu    0.16667   0.49999   0.45311   0.00000  Uiso   1.00
N547   N     0.16668   0.50001   0.61736   0.00000  Uiso   1.00
N548   N     0.16665   0.49999   0.38264   0.00000  Uiso   1.00
O549   O     0.16666   0.43989   0.53958   0.00000  Uiso   1.00
O550   O     0.16667   0.56011   0.46042   0.00000  Uiso   1.00
O551   O     0.16666   0.43988   0.46039   0.00000  Uiso   1.00
O552   O     0.16667   0.56012   0.53961   0.00000  Uiso   1.00
O553   O     0.09161   0.50000   0.53046   0.00000  Uiso   1.00
O554   O     0.24172   0.50000   0.46954   0.00000  Uiso   1.00
O555   O     0.09161   0.49999   0.45127   0.00000  Uiso   1.00
O556   O     0.24172   0.50001   0.54873   0.00000  Uiso   1.00
F557   F     0.32294   0.49529   0.43687   0.00000  Uiso   1.00
F558   F     0.01039   0.50471   0.56313   0.00000  Uiso   1.00
O559   O     0.08102   0.37297   0.45432   0.00000  Uiso   1.00
H560   H     0.07975   0.40178   0.46484   0.00000  Uiso   1.00
O561   O     0.25231   0.62703   0.54568   0.00000  Uiso   1.00
H562   H     0.25358   0.59822   0.53516   0.00000  Uiso   1.00
O563   O     0.08148   0.62443   0.45266   0.00000  Uiso   1.00
H564   H     0.08137   0.59460   0.46059   0.00000  Uiso   1.00
O565   O     0.25185   0.37557   0.54734   0.00000  Uiso   1.00
H566   H     0.25196   0.40540   0.53941   0.00000  Uiso   1.00
F567   F     0.09558   0.45384   0.37467   0.00000  Uiso   1.00
F568   F     0.23775   0.54617   0.62533   0.00000  Uiso   1.00
O569   O     0.09272   0.45271   0.61489   0.00000  Uiso   1.00
H570   H     0.10292   0.44623   0.58447   0.00000  Uiso   1.00
O571   O     0.24061   0.54729   0.38511   0.00000  Uiso   1.00
H572   H     0.23041   0.55377   0.41553   0.00000  Uiso   1.00
C573   C     0.49995   0.42095   0.50032   0.00000  Uiso   1.00
C574   C     0.50005   0.57905   0.49968   0.00000  Uiso   1.00
C575   C     0.40151   0.49980   0.48817   0.00000  Uiso   1.00
C576   C     0.59849   0.50020   0.51183   0.00000  Uiso   1.00
C577   C     0.34653   0.49892   0.48161   0.00000  Uiso   1.00
C578   C     0.65347   0.50108   0.51839   0.00000  Uiso   1.00
C579   C     0.45748   0.35414   0.47670   0.00000  Uiso   1.00
C580   C     0.54252   0.64586   0.52330   0.00000  Uiso   1.00
C581   C     0.45779   0.64455   0.47575   0.00000  Uiso   1.00
C582   C     0.54221   0.35545   0.52425   0.00000  Uiso   1.00
C583   C     0.50031   0.62369   0.49911   0.00000  Uiso   1.00
C584   C     0.49969   0.37631   0.50089   0.00000  Uiso   1.00
C585   C     0.46428   0.47730   0.35492   0.00000  Uiso   1.00
C586   C     0.53572   0.52270   0.64508   0.00000  Uiso   1.00
C587   C     0.46402   0.47693   0.63913   0.00000  Uiso   1.00
C588   C     0.53598   0.52307   0.36086   0.00000  Uiso   1.00
Cu589  Cu    0.50000   0.50001   0.54689   0.00000  Uiso   1.00
Cu590  Cu    0.50000   0.49999   0.45311   0.00000  Uiso   1.00
N591   N     0.50001   0.50001   0.61736   0.00000  Uiso   1.00
N592   N     0.49999   0.49999   0.38264   0.00000  Uiso   1.00
O593   O     0.50000   0.43989   0.53958   0.00000  Uiso   1.00
O594   O     0.50000   0.56011   0.46042   0.00000  Uiso   1.00
O595   O     0.50000   0.43988   0.46039   0.00000  Uiso   1.00
O596   O     0.50000   0.56012   0.53961   0.00000  Uiso   1.00
O597   O     0.42495   0.50000   0.53046   0.00000  Uiso   1.00
O598   O     0.57505   0.50000   0.46954   0.00000  Uiso   1.00
O599   O     0.42494   0.49999   0.45127   0.00000  Uiso   1.00
O600   O     0.57506   0.50001   0.54873   0.00000  Uiso   1.00
F601   F     0.65628   0.49529   0.43687   0.00000  Uiso   1.00
F602   F     0.34372   0.50471   0.56313   0.00000  Uiso   1.00
O603   O     0.41435   0.37297   0.45432   0.00000  Uiso   1.00
H604   H     0.41309   0.40178   0.46484   0.00000  Uiso   1.00
O605   O     0.58565   0.62703   0.54568   0.00000  Uiso   1.00
H606   H     0.58691   0.59822   0.53516   0.00000  Uiso   1.00
O607   O     0.41481   0.62443   0.45266   0.00000  Uiso   1.00
H608   H     0.41470   0.59460   0.46059   0.00000  Uiso   1.00
O609   O     0.58519   0.37557   0.54734   0.00000  Uiso   1.00
H610   H     0.58529   0.40540   0.53941   0.00000  Uiso   1.00
F611   F     0.42891   0.45384   0.37467   0.00000  Uiso   1.00
F612   F     0.57109   0.54617   0.62533   0.00000  Uiso   1.00
O613   O     0.42606   0.45271   0.61489   0.00000  Uiso   1.00
H614   H     0.43625   0.44623   0.58447   0.00000  Uiso   1.00
O615   O     0.57394   0.54729   0.38511   0.00000  Uiso   1.00
H616   H     0.56375   0.55377   0.41553   0.00000  Uiso   1.00
C617   C     0.83328   0.42095   0.50032   0.00000  Uiso   1.00
C618   C     0.83339   0.57905   0.49968   0.00000  Uiso   1.00
C619   C     0.73485   0.49980   0.48817   0.00000  Uiso   1.00
C620   C     0.93182   0.50020   0.51183   0.00000  Uiso   1.00
C621   C     0.67986   0.49892   0.48161   0.00000  Uiso   1.00
C622   C     0.98680   0.50108   0.51839   0.00000  Uiso   1.00
C623   C     0.79081   0.35414   0.47670   0.00000  Uiso   1.00
C624   C     0.87586   0.64586   0.52330   0.00000  Uiso   1.00
C625   C     0.79112   0.64455   0.47575   0.00000  Uiso   1.00
C626   C     0.87555   0.35545   0.52425   0.00000  Uiso   1.00
C627   C     0.83364   0.62369   0.49911   0.00000  Uiso   1.00
C628   C     0.83302   0.37631   0.50089   0.00000  Uiso   1.00
C629   C     0.79761   0.47730   0.35492   0.00000  Uiso   1.00
C630   C     0.86905   0.52270   0.64508   0.00000  Uiso   1.00
C631   C     0.79735   0.47693   0.63913   0.00000  Uiso   1.00
C632   C     0.86931   0.52307   0.36086   0.00000  Uiso   1.00
Cu633  Cu    0.83333   0.50001   0.54689   0.00000  Uiso   1.00
Cu634  Cu    0.83333   0.49999   0.45311   0.00000  Uiso   1.00
N635   N     0.83335   0.50001   0.61736   0.00000  Uiso   1.00
N636   N     0.83332   0.49999   0.38264   0.00000  Uiso   1.00
O637   O     0.83333   0.43989   0.53958   0.00000  Uiso   1.00
O638   O     0.83334   0.56011   0.46042   0.00000  Uiso   1.00
O639   O     0.83333   0.43988   0.46039   0.00000  Uiso   1.00
O640   O     0.83334   0.56012   0.53961   0.00000  Uiso   1.00
O641   O     0.75828   0.50000   0.53046   0.00000  Uiso   1.00
O642   O     0.90839   0.50000   0.46954   0.00000  Uiso   1.00
O643   O     0.75828   0.49999   0.45127   0.00000  Uiso   1.00
O644   O     0.90839   0.50001   0.54873   0.00000  Uiso   1.00
F645   F     0.98961   0.49529   0.43687   0.00000  Uiso   1.00
F646   F     0.67706   0.50471   0.56313   0.00000  Uiso   1.00
O647   O     0.74769   0.37297   0.45432   0.00000  Uiso   1.00
H648   H     0.74642   0.40178   0.46484   0.00000  Uiso   1.00
O649   O     0.91898   0.62703   0.54568   0.00000  Uiso   1.00
H650   H     0.92025   0.59822   0.53516   0.00000  Uiso   1.00
O651   O     0.74815   0.62443   0.45266   0.00000  Uiso   1.00
H652   H     0.74804   0.59460   0.46059   0.00000  Uiso   1.00
O653   O     0.91852   0.37557   0.54734   0.00000  Uiso   1.00
H654   H     0.91863   0.40540   0.53941   0.00000  Uiso   1.00
F655   F     0.76225   0.45384   0.37467   0.00000  Uiso   1.00
F656   F     0.90442   0.54617   0.62533   0.00000  Uiso   1.00
O657   O     0.75939   0.45271   0.61489   0.00000  Uiso   1.00
H658   H     0.76959   0.44623   0.58447   0.00000  Uiso   1.00
O659   O     0.90728   0.54729   0.38511   0.00000  Uiso   1.00
H660   H     0.89708   0.55377   0.41553   0.00000  Uiso   1.00
C661   C     0.16661   0.75428   0.50032   0.00000  Uiso   1.00
C662   C     0.16672   0.91239   0.49968   0.00000  Uiso   1.00
C663   C     0.06818   0.83313   0.48817   0.00000  Uiso   1.00
C664   C     0.26515   0.83353   0.51183   0.00000  Uiso   1.00
C665   C     0.01319   0.83226   0.48161   0.00000  Uiso   1.00
C666   C     0.32014   0.83441   0.51839   0.00000  Uiso   1.00
C667   C     0.12414   0.68747   0.47670   0.00000  Uiso   1.00
C668   C     0.20919   0.97919   0.52330   0.00000  Uiso   1.00
C669   C     0.12445   0.97788   0.47575   0.00000  Uiso   1.00
C670   C     0.20888   0.68878   0.52425   0.00000  Uiso   1.00
C671   C     0.16698   0.95702   0.49911   0.00000  Uiso   1.00
C672   C     0.16636   0.70965   0.50089   0.00000  Uiso   1.00
C673   C     0.13095   0.81064   0.35492   0.00000  Uiso   1.00
C674   C     0.20239   0.85603   0.64508   0.00000  Uiso   1.00
C675   C     0.13069   0.81027   0.63913   0.00000  Uiso   1.00
C676   C     0.20264   0.85640   0.36086   0.00000  Uiso   1.00
Cu677  Cu    0.16667   0.83334   0.54689   0.00000  Uiso   1.00
Cu678  Cu    0.16667   0.83333   0.45311   0.00000  Uiso   1.00
N679   N     0.16668   0.83334   0.61736   0.00000  Uiso   1.00
N680   N     0.16665   0.83332   0.38264   0.00000  Uiso   1.00
O681   O     0.16666   0.77322   0.53958   0.00000  Uiso   1.00
O682   O     0.16667   0.89345   0.46042   0.00000  Uiso   1.00
O683   O     0.16666   0.77321   0.46039   0.00000  Uiso   1.00
O684   O     0.16667   0.89346   0.53961   0.00000  Uiso   1.00
O685   O     0.09161   0.83334   0.53046   0.00000  Uiso   1.00
O686   O     0.24172   0.83333   0.46954   0.00000  Uiso   1.00
O687   O     0.09161   0.83333   0.45127   0.00000  Uiso   1.00
O688   O     0.24172   0.83334   0.54873   0.00000  Uiso   1.00
F689   F     0.32294   0.82863   0.43687   0.00000  Uiso   1.00
F690   F     0.01039   0.83804   0.56313   0.00000  Uiso   1.00
O691   O     0.08102   0.70630   0.45432   0.00000  Uiso   1.00
H692   H     0.07975   0.73512   0.46484   0.00000  Uiso   1.00
O693   O     0.25231   0.96037   0.54568   0.00000  Uiso   1.00
H694   H     0.25358   0.93155   0.53516   0.00000  Uiso   1.00
O695   O     0.08148   0.95777   0.45266   0.00000  Uiso   1.00
H696   H     0.08137   0.92793   0.46059   0.00000  Uiso   1.00
O697   O     0.25185   0.70890   0.54734   0.00000  Uiso   1.00
H698   H     0.25196   0.73874   0.53941   0.00000  Uiso   1.00
F699   F     0.09558   0.78717   0.37467   0.00000  Uiso   1.00
F700   F     0.23775   0.87950   0.62533   0.00000  Uiso   1.00
O701   O     0.09272   0.78605   0.61489   0.00000  Uiso   1.00
H702   H     0.10292   0.77957   0.58447   0.00000  Uiso   1.00
O703   O     0.24061   0.88062   0.38511   0.00000  Uiso   1.00
H704   H     0.23041   0.88710   0.41553   0.00000  Uiso   1.00
C705   C     0.49995   0.75428   0.50032   0.00000  Uiso   1.00
C706   C     0.50005   0.91239   0.49968   0.00000  Uiso   1.00
C707   C     0.40151   0.83313   0.48817   0.00000  Uiso   1.00
C708   C     0.59849   0.83353   0.51183   0.00000  Uiso   1.00
C709   C     0.34653   0.83226   0.48161   0.00000  Uiso   1.00
C710   C     0.65347   0.83441   0.51839   0.00000  Uiso   1.00
C711   C     0.45748   0.68747   0.47670   0.00000  Uiso   1.00
C712   C     0.54252   0.97919   0.52330   0.00000  Uiso   1.00
C713   C     0.45779   0.97788   0.47575   0.00000  Uiso   1.00
C714   C     0.54221   0.68878   0.52425   0.00000  Uiso   1.00
C715   C     0.50031   0.95702   0.49911   0.00000  Uiso   1.00
C716   C     0.49969   0.70965   0.50089   0.00000  Uiso   1.00
C717   C     0.46428   0.81064   0.35492   0.00000  Uiso   1.00
C718   C     0.53572   0.85603   0.64508   0.00000  Uiso   1.00
C719   C     0.46402   0.81027   0.63913   0.00000  Uiso   1.00
C720   C     0.53598   0.85640   0.36086   0.00000  Uiso   1.00
Cu721  Cu    0.50000   0.83334   0.54689   0.00000  Uiso   1.00
Cu722  Cu    0.50000   0.83333   0.45311   0.00000  Uiso   1.00
N723   N     0.50001   0.83334   0.61736   0.00000  Uiso   1.00
N724   N     0.49999   0.83332   0.38264   0.00000  Uiso   1.00
O725   O     0.50000   0.77322   0.53958   0.00000  Uiso   1.00
O726   O     0.50000   0.89345   0.46042   0.00000  Uiso   1.00
O727   O     0.50000   0.77321   0.46039   0.00000  Uiso   1.00
O728   O     0.50000   0.89346   0.53961   0.00000  Uiso   1.00
O729   O     0.42495   0.83334   0.53046   0.00000  Uiso   1.00
O730   O     0.57505   0.83333   0.46954   0.00000  Uiso   1.00
O731   O     0.42494   0.83333   0.45127   0.00000  Uiso   1.00
O732   O     0.57506   0.83334   0.54873   0.00000  Uiso   1.00
F733   F     0.65628   0.82863   0.43687   0.00000  Uiso   1.00
F734   F     0.34372   0.83804   0.56313   0.00000  Uiso   1.00
O735   O     0.41435   0.70630   0.45432   0.00000  Uiso   1.00
H736   H     0.41309   0.73512   0.46484   0.00000  Uiso   1.00
O737   O     0.58565   0.96037   0.54568   0.00000  Uiso   1.00
H738   H     0.58691   0.93155   0.53516   0.00000  Uiso   1.00
O739   O     0.41481   0.95777   0.45266   0.00000  Uiso   1.00
H740   H     0.41470   0.92793   0.46059   0.00000  Uiso   1.00
O741   O     0.58519   0.70890   0.54734   0.00000  Uiso   1.00
H742   H     0.58529   0.73874   0.53941   0.00000  Uiso   1.00
F743   F     0.42891   0.78717   0.37467   0.00000  Uiso   1.00
F744   F     0.57109   0.87950   0.62533   0.00000  Uiso   1.00
O745   O     0.42606   0.78605   0.61489   0.00000  Uiso   1.00
H746   H     0.43625   0.77957   0.58447   0.00000  Uiso   1.00
O747   O     0.57394   0.88062   0.38511   0.00000  Uiso   1.00
H748   H     0.56375   0.88710   0.41553   0.00000  Uiso   1.00
C749   C     0.83328   0.75428   0.50032   0.00000  Uiso   1.00
C750   C     0.83339   0.91239   0.49968   0.00000  Uiso   1.00
C751   C     0.73485   0.83313   0.48817   0.00000  Uiso   1.00
C752   C     0.93182   0.83353   0.51183   0.00000  Uiso   1.00
C753   C     0.67986   0.83226   0.48161   0.00000  Uiso   1.00
C754   C     0.98680   0.83441   0.51839   0.00000  Uiso   1.00
C755   C     0.79081   0.68747   0.47670   0.00000  Uiso   1.00
C756   C     0.87586   0.97919   0.52330   0.00000  Uiso   1.00
C757   C     0.79112   0.97788   0.47575   0.00000  Uiso   1.00
C758   C     0.87555   0.68878   0.52425   0.00000  Uiso   1.00
C759   C     0.83364   0.95702   0.49911   0.00000  Uiso   1.00
C760   C     0.83302   0.70965   0.50089   0.00000  Uiso   1.00
C761   C     0.79761   0.81064   0.35492   0.00000  Uiso   1.00
C762   C     0.86905   0.85603   0.64508   0.00000  Uiso   1.00
C763   C     0.79735   0.81027   0.63913   0.00000  Uiso   1.00
C764   C     0.86931   0.85640   0.36086   0.00000  Uiso   1.00
Cu765  Cu    0.83333   0.83334   0.54689   0.00000  Uiso   1.00
Cu766  Cu    0.83333   0.83333   0.45311   0.00000  Uiso   1.00
N767   N     0.83335   0.83334   0.61736   0.00000  Uiso   1.00
N768   N     0.83332   0.83332   0.38264   0.00000  Uiso   1.00
O769   O     0.83333   0.77322   0.53958   0.00000  Uiso   1.00
O770   O     0.83334   0.89345   0.46042   0.00000  Uiso   1.00
O771   O     0.83333   0.77321   0.46039   0.00000  Uiso   1.00
O772   O     0.83334   0.89346   0.53961   0.00000  Uiso   1.00
O773   O     0.75828   0.83334   0.53046   0.00000  Uiso   1.00
O774   O     0.90839   0.83333   0.46954   0.00000  Uiso   1.00
O775   O     0.75828   0.83333   0.45127   0.00000  Uiso   1.00
O776   O     0.90839   0.83334   0.54873   0.00000  Uiso   1.00
F777   F     0.98961   0.82863   0.43687   0.00000  Uiso   1.00
F778   F     0.67706   0.83804   0.56313   0.00000  Uiso   1.00
O779   O     0.74769   0.70630   0.45432   0.00000  Uiso   1.00
H780   H     0.74642   0.73512   0.46484   0.00000  Uiso   1.00
O781   O     0.91898   0.96037   0.54568   0.00000  Uiso   1.00
H782   H     0.92025   0.93155   0.53516   0.00000  Uiso   1.00
O783   O     0.74815   0.95777   0.45266   0.00000  Uiso   1.00
H784   H     0.74804   0.92793   0.46059   0.00000  Uiso   1.00
O785   O     0.91852   0.70890   0.54734   0.00000  Uiso   1.00
H786   H     0.91863   0.73874   0.53941   0.00000  Uiso   1.00
F787   F     0.76225   0.78717   0.37467   0.00000  Uiso   1.00
F788   F     0.90442   0.87950   0.62533   0.00000  Uiso   1.00
O789   O     0.75939   0.78605   0.61489   0.00000  Uiso   1.00
H790   H     0.76959   0.77957   0.58447   0.00000  Uiso   1.00
O791   O     0.90728   0.88062   0.38511   0.00000  Uiso   1.00
H792   H     0.89708   0.88710   0.41553   0.00000  Uiso   1.00
C793   C     0.16661   0.08761   0.83366   0.00000  Uiso   1.00
C794   C     0.16672   0.24572   0.83301   0.00000  Uiso   1.00
C795   C     0.06818   0.16647   0.82150   0.00000  Uiso   1.00
C796   C     0.26515   0.16687   0.84516   0.00000  Uiso   1.00
C797   C     0.01319   0.16559   0.81494   0.00000  Uiso   1.00
C798   C     0.32014   0.16774   0.85173   0.00000  Uiso   1.00
C799   C     0.12414   0.02081   0.81004   0.00000  Uiso   1.00
C800   C     0.20919   0.31253   0.85663   0.00000  Uiso   1.00
C801   C     0.12445   0.31122   0.80908   0.00000  Uiso   1.00
C802   C     0.20888   0.02212   0.85759   0.00000  Uiso   1.00
C803   C     0.16698   0.29035   0.83244   0.00000  Uiso   1.00
C804   C     0.16636   0.04298   0.83423   0.00000  Uiso   1.00
C805   C     0.13095   0.14397   0.68825   0.00000  Uiso   1.00
C806   C     0.20239   0.18936   0.97842   0.00000  Uiso   1.00
C807   C     0.13069   0.14360   0.97247   0.00000  Uiso   1.00
C808   C     0.20264   0.18973   0.69420   0.00000  Uiso   1.00
Cu809  Cu    0.16667   0.16667   0.88022   0.00000  Uiso   1.00
Cu810  Cu    0.16667   0.16666   0.78645   0.00000  Uiso   1.00
N811   N     0.16668   0.16668   0.95069   0.00000  Uiso   1.00
N812   N     0.16665   0.16666   0.71597   0.00000  Uiso   1.00
O813   O     0.16666   0.10655   0.87291   0.00000  Uiso   1.00
O814   O     0.16667   0.22678   0.79375   0.00000  Uiso   1.00
O815   O     0.16666   0.10654   0.79372   0.00000  Uiso   1.00
O816   O     0.16667   0.22679   0.87294   0.00000  Uiso   1.00
O817   O     0.09161   0.16667   0.86379   0.00000  Uiso   1.00
O818   O     0.24172   0.16666   0.80288   0.00000  Uiso   1.00
O819   O     0.09161   0.16666   0.78460   0.00000  Uiso   1.00
O820   O     0.24172   0.16667   0.88207   0.00000  Uiso   1.00
F821   F     0.32294   0.16196   0.77021   0.00000  Uiso   1.00
F822   F     0.01039   0.17137   0.89646   0.00000  Uiso   1.00
O823   O     0.08102   0.03963   0.78765   0.00000  Uiso   1.00
H824   H     0.07975   0.06845   0.79818   0.00000  Uiso   1.00
O825   O     0.25231   0.29370   0.87901   0.00000  Uiso   1.00
H826   H     0.25358   0.26488   0.86849   0.00000  Uiso   1.00
O827   O     0.08148   0.29110   0.78600   0.00000  Uiso   1.00
H828   H     0.08137   0.26126   0.79392   0.00000  Uiso   1.00
O829   O     0.25185   0.04223   0.88067   0.00000  Uiso   1.00
H830   H     0.25196   0.07207   0.87274   0.00000  Uiso   1.00
F831   F     0.09558   0.12050   0.70800   0.00000  Uiso   1.00
F832   F     0.23775   0.21283   0.95866   0.00000  Uiso   1.00
O833   O     0.09272   0.11938   0.94822   0.00000  Uiso   1.00
H834   H     0.10292   0.11290   0.91780   0.00000  Uiso   1.00
O835   O     0.24061   0.21395   0.71845   0.00000  Uiso   1.00
H836   H     0.23041   0.22044   0.74886   0.00000  Uiso   1.00
C837   C     0.49995   0.08761   0.83366   0.00000  Uiso   1.00
C838   C     0.50005   0.24572   0.83301   0.00000  Uiso   1.00
C839   C     0.40151   0.16647   0.82150   0.00000  Uiso   1.00
C840   C     0.59849   0.16687   0.84516   0.00000  Uiso   1.00
C841   C     0.34653   0.16559   0.81494   0.00000  Uiso   1.00
C842   C     0.65347   0.16774   0.85173   0.00000  Uiso   1.00
C843   C     0.45748   0.02081   0.81004   0.00000  Uiso   1.00
C844   C     0.54252   0.31253   0.85663   0.00000  Uiso   1.00
C845   C     0.45779   0.31122   0.80908   0.00000  Uiso   1.00
C846   C     0.54221   0.02212   0.85759   0.00000  Uiso   1.00
C847   C     0.50031   0.29035   0.83244   0.00000  Uiso   1.00
C848   C     0.49969   0.04298   0.83423   0.00000  Uiso   1.00
C849   C     0.46428   0.14397   0.68825   0.00000  Uiso   1.00
C850   C     0.53572   0.18936   0.97842   0.00000  Uiso   1.00
C851   C     0.46402   0.14360   0.97247   0.00000  Uiso   1.00
C852   C     0.53598   0.18973   0.69420   0.00000  Uiso   1.00
Cu853  Cu    0.50000   0.16667   0.88022   0.00000  Uiso   1.00
Cu854  Cu    0.50000   0.16666   0.78645   0.00000  Uiso   1.00
N855   N     0.50001   0.16668   0.95069   0.00000  Uiso   1.00
N856   N     0.49999   0.16666   0.71597   0.00000  Uiso   1.00
O857   O     0.50000   0.10655   0.87291   0.00000  Uiso   1.00
O858   O     0.50000   0.22678   0.79375   0.00000  Uiso   1.00
O859   O     0.50000   0.10654   0.79372   0.00000  Uiso   1.00
O860   O     0.50000   0.22679   0.87294   0.00000  Uiso   1.00
O861   O     0.42495   0.16667   0.86379   0.00000  Uiso   1.00
O862   O     0.57505   0.16666   0.80288   0.00000  Uiso   1.00
O863   O     0.42494   0.16666   0.78460   0.00000  Uiso   1.00
O864   O     0.57506   0.16667   0.88207   0.00000  Uiso   1.00
F865   F     0.65628   0.16196   0.77021   0.00000  Uiso   1.00
F866   F     0.34372   0.17137   0.89646   0.00000  Uiso   1.00
O867   O     0.41435   0.03963   0.78765   0.00000  Uiso   1.00
H868   H     0.41309   0.06845   0.79818   0.00000  Uiso   1.00
O869   O     0.58565   0.29370   0.87901   0.00000  Uiso   1.00
H870   H     0.58691   0.26488   0.86849   0.00000  Uiso   1.00
O871   O     0.41481   0.29110   0.78600   0.00000  Uiso   1.00
H872   H     0.41470   0.26126   0.79392   0.00000  Uiso   1.00
O873   O     0.58519   0.04223   0.88067   0.00000  Uiso   1.00
H874   H     0.58529   0.07207   0.87274   0.00000  Uiso   1.00
F875   F     0.42891   0.12050   0.70800   0.00000  Uiso   1.00
F876   F     0.57109   0.21283   0.95866   0.00000  Uiso   1.00
O877   O     0.42606   0.11938   0.94822   0.00000  Uiso   1.00
H878   H     0.43625   0.11290   0.91780   0.00000  Uiso   1.00
O879   O     0.57394   0.21395   0.71845   0.00000  Uiso   1.00
H880   H     0.56375   0.22044   0.74886   0.00000  Uiso   1.00
C881   C     0.83328   0.08761   0.83366   0.00000  Uiso   1.00
C882   C     0.83339   0.24572   0.83301   0.00000  Uiso   1.00
C883   C     0.73485   0.16647   0.82150   0.00000  Uiso   1.00
C884   C     0.93182   0.16687   0.84516   0.00000  Uiso   1.00
C885   C     0.67986   0.16559   0.81494   0.00000  Uiso   1.00
C886   C     0.98680   0.16774   0.85173   0.00000  Uiso   1.00
C887   C     0.79081   0.02081   0.81004   0.00000  Uiso   1.00
C888   C     0.87586   0.31253   0.85663   0.00000  Uiso   1.00
C889   C     0.79112   0.31122   0.80908   0.00000  Uiso   1.00
C890   C     0.87555   0.02212   0.85759   0.00000  Uiso   1.00
C891   C     0.83364   0.29035   0.83244   0.00000  Uiso   1.00
C892   C     0.83302   0.04298   0.83423   0.00000  Uiso   1.00
C893   C     0.79761   0.14397   0.68825   0.00000  Uiso   1.00
C894   C     0.86905   0.18936   0.97842   0.00000  Uiso   1.00
C895   C     0.79735   0.14360   0.97247   0.00000  Uiso   1.00
C896   C     0.86931   0.18973   0.69420   0.00000  Uiso   1.00
Cu897  Cu    0.83333   0.16667   0.88022   0.00000  Uiso   1.00
Cu898  Cu    0.83333   0.16666   0.78645   0.00000  Uiso   1.00
N899   N     0.83335   0.16668   0.95069   0.00000  Uiso   1.00
N900   N     0.83332   0.16666   0.71597   0.00000  Uiso   1.00
O901   O     0.83333   0.10655   0.87291   0.00000  Uiso   1.00
O902   O     0.83334   0.22678   0.79375   0.00000  Uiso   1.00
O903   O     0.83333   0.10654   0.79372   0.00000  Uiso   1.00
O904   O     0.83334   0.22679   0.87294   0.00000  Uiso   1.00
O905   O     0.75828   0.16667   0.86379   0.00000  Uiso   1.00
O906   O     0.90839   0.16666   0.80288   0.00000  Uiso   1.00
O907   O     0.75828   0.16666   0.78460   0.00000  Uiso   1.00
O908   O     0.90839   0.16667   0.88207   0.00000  Uiso   1.00
F909   F     0.98961   0.16196   0.77021   0.00000  Uiso   1.00
F910   F     0.67706   0.17137   0.89646   0.00000  Uiso   1.00
O911   O     0.74769   0.03963   0.78765   0.00000  Uiso   1.00
H912   H     0.74642   0.06845   0.79818   0.00000  Uiso   1.00
O913   O     0.91898   0.29370   0.87901   0.00000  Uiso   1.00
H914   H     0.92025   0.26488   0.86849   0.00000  Uiso   1.00
O915   O     0.74815   0.29110   0.78600   0.00000  Uiso   1.00
H916   H     0.74804   0.26126   0.79392   0.00000  Uiso   1.00
O917   O     0.91852   0.04223   0.88067   0.00000  Uiso   1.00
H918   H     0.91863   0.07207   0.87274   0.00000  Uiso   1.00
F919   F     0.76225   0.12050   0.70800   0.00000  Uiso   1.00
F920   F     0.90442   0.21283   0.95866   0.00000  Uiso   1.00
O921   O     0.75939   0.11938   0.94822   0.00000  Uiso   1.00
H922   H     0.76959   0.11290   0.91780   0.00000  Uiso   1.00
O923   O     0.90728   0.21395   0.71845   0.00000  Uiso   1.00
H924   H     0.89708   0.22044   0.74886   0.00000  Uiso   1.00
C925   C     0.16661   0.42095   0.83366   0.00000  Uiso   1.00
C926   C     0.16672   0.57905   0.83301   0.00000  Uiso   1.00
C927   C     0.06818   0.49980   0.82150   0.00000  Uiso   1.00
C928   C     0.26515   0.50020   0.84516   0.00000  Uiso   1.00
C929   C     0.01319   0.49892   0.81494   0.00000  Uiso   1.00
C930   C     0.32014   0.50108   0.85173   0.00000  Uiso   1.00
C931   C     0.12414   0.35414   0.81004   0.00000  Uiso   1.00
C932   C     0.20919   0.64586   0.85663   0.00000  Uiso   1.00
C933   C     0.12445   0.64455   0.80908   0.00000  Uiso   1.00
C934   C     0.20888   0.35545   0.85759   0.00000  Uiso   1.00
C935   C     0.16698   0.62369   0.83244   0.00000  Uiso   1.00
C936   C     0.16636   0.37631   0.83423   0.00000  Uiso   1.00
C937   C     0.13095   0.47730   0.68825   0.00000  Uiso   1.00
C938   C     0.20239   0.52270   0.97842   0.00000  Uiso   1.00
C939   C     0.13069   0.47693   0.97247   0.00000  Uiso   1.00
C940   C     0.20264   0.52307   0.69420   0.00000  Uiso   1.00
Cu941  Cu    0.16667   0.50001   0.88022   0.00000  Uiso   1.00
Cu942  Cu    0.16667   0.49999   0.78645   0.00000  Uiso   1.00
N943   N     0.16668   0.50001   0.95069   0.00000  Uiso   1.00
N944   N     0.16665   0.49999   0.71597   0.00000  Uiso   1.00
O945   O     0.16666   0.43989   0.87291   0.00000  Uiso   1.00
O946   O     0.16667   0.56011   0.79375   0.00000  Uiso   1.00
O947   O     0.16666   0.43988   0.79372   0.00000  Uiso   1.00
O948   O     0.16667   0.56012   0.87294   0.00000  Uiso   1.00
O949   O     0.09161   0.50000   0.86379   0.00000  Uiso   1.00
O950   O     0.24172   0.50000   0.80288   0.00000  Uiso   1.00
O951   O     0.09161   0.49999   0.78460   0.00000  Uiso   1.00
O952   O     0.24172   0.50001   0.88207   0.00000  Uiso   1.00
F953   F     0.32294   0.49529   0.77021   0.00000  Uiso   1.00
F954   F     0.01039   0.50471   0.89646   0.00000  Uiso   1.00
O955   O     0.08102   0.37297   0.78765   0.00000  Uiso   1.00
H956   H     0.07975   0.40178   0.79818   0.00000  Uiso   1.00
O957   O     0.25231   0.62703   0.87901   0.00000  Uiso   1.00
H958   H     0.25358   0.59822   0.86849   0.00000  Uiso   1.00
O959   O     0.08148   0.62443   0.78600   0.00000  Uiso   1.00
H960   H     0.08137   0.59460   0.79392   0.00000  Uiso   1.00
O961   O     0.25185   0.37557   0.88067   0.00000  Uiso   1.00
H962   H     0.25196   0.40540   0.87274   0.00000  Uiso   1.00
F963   F     0.09558   0.45384   0.70800   0.00000  Uiso   1.00
F964   F     0.23775   0.54617   0.95866   0.00000  Uiso   1.00
O965   O     0.09272   0.45271   0.94822   0.00000  Uiso   1.00
H966   H     0.10292   0.44623   0.91780   0.00000  Uiso   1.00
O967   O     0.24061   0.54729   0.71845   0.00000  Uiso   1.00
H968   H     0.23041   0.55377   0.74886   0.00000  Uiso   1.00
C969   C     0.49995   0.42095   0.83366   0.00000  Uiso   1.00
C970   C     0.50005   0.57905   0.83301   0.00000  Uiso   1.00
C971   C     0.40151   0.49980   0.82150   0.00000  Uiso   1.00
C972   C     0.59849   0.50020   0.84516   0.00000  Uiso   1.00
C973   C     0.34653   0.49892   0.81494   0.00000  Uiso   1.00
C974   C     0.65347   0.50108   0.85173   0.00000  Uiso   1.00
C975   C     0.45748   0.35414   0.81004   0.00000  Uiso   1.00
C976   C     0.54252   0.64586   0.85663   0.00000  Uiso   1.00
C977   C     0.45779   0.64455   0.80908   0.00000  Uiso   1.00
C978   C     0.54221   0.35545   0.85759   0.00000  Uiso   1.00
C979   C     0.50031   0.62369   0.83244   0.00000  Uiso   1.00
C980   C     0.49969   0.37631   0.83423   0.00000  Uiso   1.00
C981   C     0.46428   0.47730   0.68825   0.00000  Uiso   1.00
C982   C     0.53572   0.52270   0.97842   0.00000  Uiso   1.00
C983   C     0.46402   0.47693   0.97247   0.00000  Uiso   1.00
C984   C     0.53598   0.52307   0.69420   0.00000  Uiso   1.00
Cu985  Cu    0.50000   0.50001   0.88022   0.00000  Uiso   1.00
Cu986  Cu    0.50000   0.49999   0.78645   0.00000  Uiso   1.00
N987   N     0.50001   0.50001   0.95069   0.00000  Uiso   1.00
N988   N     0.49999   0.49999   0.71597   0.00000  Uiso   1.00
O989   O     0.50000   0.43989   0.87291   0.00000  Uiso   1.00
O990   O     0.50000   0.56011   0.79375   0.00000  Uiso   1.00
O991   O     0.50000   0.43988   0.79372   0.00000  Uiso   1.00
O992   O     0.50000   0.56012   0.87294   0.00000  Uiso   1.00
O993   O     0.42495   0.50000   0.86379   0.00000  Uiso   1.00
O994   O     0.57505   0.50000   0.80288   0.00000  Uiso   1.00
O995   O     0.42494   0.49999   0.78460   0.00000  Uiso   1.00
O996   O     0.57506   0.50001   0.88207   0.00000  Uiso   1.00
F997   F     0.65628   0.49529   0.77021   0.00000  Uiso   1.00
F998   F     0.34372   0.50471   0.89646   0.00000  Uiso   1.00
O999   O     0.41435   0.37297   0.78765   0.00000  Uiso   1.00
H1000  H     0.41309   0.40178   0.79818   0.00000  Uiso   1.00
O1001  O     0.58565   0.62703   0.87901   0.00000  Uiso   1.00
H1002  H     0.58691   0.59822   0.86849   0.00000  Uiso   1.00
O1003  O     0.41481   0.62443   0.78600   0.00000  Uiso   1.00
H1004  H     0.41470   0.59460   0.79392   0.00000  Uiso   1.00
O1005  O     0.58519   0.37557   0.88067   0.00000  Uiso   1.00
H1006  H     0.58529   0.40540   0.87274   0.00000  Uiso   1.00
F1007  F     0.42891   0.45384   0.70800   0.00000  Uiso   1.00
F1008  F     0.57109   0.54617   0.95866   0.00000  Uiso   1.00
O1009  O     0.42606   0.45271   0.94822   0.00000  Uiso   1.00
H1010  H     0.43625   0.44623   0.91780   0.00000  Uiso   1.00
O1011  O     0.57394   0.54729   0.71845   0.00000  Uiso   1.00
H1012  H     0.56375   0.55377   0.74886   0.00000  Uiso   1.00
C1013  C     0.83328   0.42095   0.83366   0.00000  Uiso   1.00
C1014  C     0.83339   0.57905   0.83301   0.00000  Uiso   1.00
C1015  C     0.73485   0.49980   0.82150   0.00000  Uiso   1.00
C1016  C     0.93182   0.50020   0.84516   0.00000  Uiso   1.00
C1017  C     0.67986   0.49892   0.81494   0.00000  Uiso   1.00
C1018  C     0.98680   0.50108   0.85173   0.00000  Uiso   1.00
C1019  C     0.79081   0.35414   0.81004   0.00000  Uiso   1.00
C1020  C     0.87586   0.64586   0.85663   0.00000  Uiso   1.00
C1021  C     0.79112   0.64455   0.80908   0.00000  Uiso   1.00
C1022  C     0.87555   0.35545   0.85759   0.00000  Uiso   1.00
C1023  C     0.83364   0.62369   0.83244   0.00000  Uiso   1.00
C1024  C     0.83302   0.37631   0.83423   0.00000  Uiso   1.00
C1025  C     0.79761   0.47730   0.68825   0.00000  Uiso   1.00
C1026  C     0.86905   0.52270   0.97842   0.00000  Uiso   1.00
C1027  C     0.79735   0.47693   0.97247   0.00000  Uiso   1.00
C1028  C     0.86931   0.52307   0.69420   0.00000  Uiso   1.00
Cu1029 Cu    0.83333   0.50001   0.88022   0.00000  Uiso   1.00
Cu1030 Cu    0.83333   0.49999   0.78645   0.00000  Uiso   1.00
N1031  N     0.83335   0.50001   0.95069   0.00000  Uiso   1.00
N1032  N     0.83332   0.49999   0.71597   0.00000  Uiso   1.00
O1033  O     0.83333   0.43989   0.87291   0.00000  Uiso   1.00
O1034  O     0.83334   0.56011   0.79375   0.00000  Uiso   1.00
O1035  O     0.83333   0.43988   0.79372   0.00000  Uiso   1.00
O1036  O     0.83334   0.56012   0.87294   0.00000  Uiso   1.00
O1037  O     0.75828   0.50000   0.86379   0.00000  Uiso   1.00
O1038  O     0.90839   0.50000   0.80288   0.00000  Uiso   1.00
O1039  O     0.75828   0.49999   0.78460   0.00000  Uiso   1.00
O1040  O     0.90839   0.50001   0.88207   0.00000  Uiso   1.00
F1041  F     0.98961   0.49529   0.77021   0.00000  Uiso   1.00
F1042  F     0.67706   0.50471   0.89646   0.00000  Uiso   1.00
O1043  O     0.74769   0.37297   0.78765   0.00000  Uiso   1.00
H1044  H     0.74642   0.40178   0.79818   0.00000  Uiso   1.00
O1045  O     0.91898   0.62703   0.87901   0.00000  Uiso   1.00
H1046  H     0.92025   0.59822   0.86849   0.00000  Uiso   1.00
O1047  O     0.74815   0.62443   0.78600   0.00000  Uiso   1.00
H1048  H     0.74804   0.59460   0.79392   0.00000  Uiso   1.00
O1049  O     0.91852   0.37557   0.88067   0.00000  Uiso   1.00
H1050  H     0.91863   0.40540   0.87274   0.00000  Uiso   1.00
F1051  F     0.76225   0.45384   0.70800   0.00000  Uiso   1.00
F1052  F     0.90442   0.54617   0.95866   0.00000  Uiso   1.00
O1053  O     0.75939   0.45271   0.94822   0.00000  Uiso   1.00
H1054  H     0.76959   0.44623   0.91780   0.00000  Uiso   1.00
O1055  O     0.90728   0.54729   0.71845   0.00000  Uiso   1.00
H1056  H     0.89708   0.55377   0.74886   0.00000  Uiso   1.00
C1057  C     0.16661   0.75428   0.83366   0.00000  Uiso   1.00
C1058  C     0.16672   0.91239   0.83301   0.00000  Uiso   1.00
C1059  C     0.06818   0.83313   0.82150   0.00000  Uiso   1.00
C1060  C     0.26515   0.83353   0.84516   0.00000  Uiso   1.00
C1061  C     0.01319   0.83226   0.81494   0.00000  Uiso   1.00
C1062  C     0.32014   0.83441   0.85173   0.00000  Uiso   1.00
C1063  C     0.12414   0.68747   0.81004   0.00000  Uiso   1.00
C1064  C     0.20919   0.97919   0.85663   0.00000  Uiso   1.00
C1065  C     0.12445   0.97788   0.80908   0.00000  Uiso   1.00
C1066  C     0.20888   0.68878   0.85759   0.00000  Uiso   1.00
C1067  C     0.16698   0.95702   0.83244   0.00000  Uiso   1.00
C1068  C     0.16636   0.70965   0.83423   0.00000  Uiso   1.00
C1069  C     0.13095   0.81064   0.68825   0.00000  Uiso   1.00
C1070  C     0.20239   0.85603   0.97842   0.00000  Uiso   1.00
C1071  C     0.13069   0.81027   0.97247   0.00000  Uiso   1.00
C1072  C     0.20264   0.85640   0.69420   0.00000  Uiso   1.00
Cu1073 Cu    0.16667   0.83334   0.88022   0.00000  Uiso   1.00
Cu1074 Cu    0.16667   0.83333   0.78645   0.00000  Uiso   1.00
N1075  N     0.16668   0.83334   0.95069   0.00000  Uiso   1.00
N1076  N     0.16665   0.83332   0.71597   0.00000  Uiso   1.00
O1077  O     0.16666   0.77322   0.87291   0.00000  Uiso   1.00
O1078  O     0.16667   0.89345   0.79375   0.00000  Uiso   1.00
O1079  O     0.16666   0.77321   0.79372   0.00000  Uiso   1.00
O1080  O     0.16667   0.89346   0.87294   0.00000  Uiso   1.00
O1081  O     0.09161   0.83334   0.86379   0.00000  Uiso   1.00
O1082  O     0.24172   0.83333   0.80288   0.00000  Uiso   1.00
O1083  O     0.09161   0.83333   0.78460   0.00000  Uiso   1.00
O1084  O     0.24172   0.83334   0.88207   0.00000  Uiso   1.00
F1085  F     0.32294   0.82863   0.77021   0.00000  Uiso   1.00
F1086  F     0.01039   0.83804   0.89646   0.00000  Uiso   1.00
O1087  O     0.08102   0.70630   0.78765   0.00000  Uiso   1.00
H1088  H     0.07975   0.73512   0.79818   0.00000  Uiso   1.00
O1089  O     0.25231   0.96037   0.87901   0.00000  Uiso   1.00
H1090  H     0.25358   0.93155   0.86849   0.00000  Uiso   1.00
O1091  O     0.08148   0.95777   0.78600   0.00000  Uiso   1.00
H1092  H     0.08137   0.92793   0.79392   0.00000  Uiso   1.00
O1093  O     0.25185   0.70890   0.88067   0.00000  Uiso   1.00
H1094  H     0.25196   0.73874   0.87274   0.00000  Uiso   1.00
F1095  F     0.09558   0.78717   0.70800   0.00000  Uiso   1.00
F1096  F     0.23775   0.87950   0.95866   0.00000  Uiso   1.00
O1097  O     0.09272   0.78605   0.94822   0.00000  Uiso   1.00
H1098  H     0.10292   0.77957   0.91780   0.00000  Uiso   1.00
O1099  O     0.24061   0.88062   0.71845   0.00000  Uiso   1.00
H1100  H     0.23041   0.88710   0.74886   0.00000  Uiso   1.00
C1101  C     0.49995   0.75428   0.83366   0.00000  Uiso   1.00
C1102  C     0.50005   0.91239   0.83301   0.00000  Uiso   1.00
C1103  C     0.40151   0.83313   0.82150   0.00000  Uiso   1.00
C1104  C     0.59849   0.83353   0.84516   0.00000  Uiso   1.00
C1105  C     0.34653   0.83226   0.81494   0.00000  Uiso   1.00
C1106  C     0.65347   0.83441   0.85173   0.00000  Uiso   1.00
C1107  C     0.45748   0.68747   0.81004   0.00000  Uiso   1.00
C1108  C     0.54252   0.97919   0.85663   0.00000  Uiso   1.00
C1109  C     0.45779   0.97788   0.80908   0.00000  Uiso   1.00
C1110  C     0.54221   0.68878   0.85759   0.00000  Uiso   1.00
C1111  C     0.50031   0.95702   0.83244   0.00000  Uiso   1.00
C1112  C     0.49969   0.70965   0.83423   0.00000  Uiso   1.00
C1113  C     0.46428   0.81064   0.68825   0.00000  Uiso   1.00
C1114  C     0.53572   0.85603   0.97842   0.00000  Uiso   1.00
C1115  C     0.46402   0.81027   0.97247   0.00000  Uiso   1.00
C1116  C     0.53598   0.85640   0.69420   0.00000  Uiso   1.00
Cu1117 Cu    0.50000   0.83334   0.88022   0.00000  Uiso   1.00
Cu1118 Cu    0.50000   0.83333   0.78645   0.00000  Uiso   1.00
N1119  N     0.50001   0.83334   0.95069   0.00000  Uiso   1.00
N1120  N     0.49999   0.83332   0.71597   0.00000  Uiso   1.00
O1121  O     0.50000   0.77322   0.87291   0.00000  Uiso   1.00
O1122  O     0.50000   0.89345   0.79375   0.00000  Uiso   1.00
O1123  O     0.50000   0.77321   0.79372   0.00000  Uiso   1.00
O1124  O     0.50000   0.89346   0.87294   0.00000  Uiso   1.00
O1125  O     0.42495   0.83334   0.86379   0.00000  Uiso   1.00
O1126  O     0.57505   0.83333   0.80288   0.00000  Uiso   1.00
O1127  O     0.42494   0.83333   0.78460   0.00000  Uiso   1.00
O1128  O     0.57506   0.83334   0.88207   0.00000  Uiso   1.00
F1129  F     0.65628   0.82863   0.77021   0.00000  Uiso   1.00
F1130  F     0.34372   0.83804   0.89646   0.00000  Uiso   1.00
O1131  O     0.41435   0.70630   0.78765   0.00000  Uiso   1.00
H1132  H     0.41309   0.73512   0.79818   0.00000  Uiso   1.00
O1133  O     0.58565   0.96037   0.87901   0.00000  Uiso   1.00
H1134  H     0.58691   0.93155   0.86849   0.00000  Uiso   1.00
O1135  O     0.41481   0.95777   0.78600   0.00000  Uiso   1.00
H1136  H     0.41470   0.92793   0.79392   0.00000  Uiso   1.00
O1137  O     0.58519   0.70890   0.88067   0.00000  Uiso   1.00
H1138  H     0.58529   0.73874   0.87274   0.00000  Uiso   1.00
F1139  F     0.42891   0.78717   0.70800   0.00000  Uiso   1.00
F1140  F     0.57109   0.87950   0.95866   0.00000  Uiso   1.00
O1141  O     0.42606   0.78605   0.94822   0.00000  Uiso   1.00
H1142  H     0.43625   0.77957   0.91780   0.00000  Uiso   1.00
O1143  O     0.57394   0.88062   0.71845   0.00000  Uiso   1.00
H1144  H     0.56375   0.88710   0.74886   0.00000  Uiso   1.00
C1145  C     0.83328   0.75428   0.83366   0.00000  Uiso   1.00
C1146  C     0.83339   0.91239   0.83301   0.00000  Uiso   1.00
C1147  C     0.73485   0.83313   0.82150   0.00000  Uiso   1.00
C1148  C     0.93182   0.83353   0.84516   0.00000  Uiso   1.00
C1149  C     0.67986   0.83226   0.81494   0.00000  Uiso   1.00
C1150  C     0.98680   0.83441   0.85173   0.00000  Uiso   1.00
C1151  C     0.79081   0.68747   0.81004   0.00000  Uiso   1.00
C1152  C     0.87586   0.97919   0.85663   0.00000  Uiso   1.00
C1153  C     0.79112   0.97788   0.80908   0.00000  Uiso   1.00
C1154  C     0.87555   0.68878   0.85759   0.00000  Uiso   1.00
C1155  C     0.83364   0.95702   0.83244   0.00000  Uiso   1.00
C1156  C     0.83302   0.70965   0.83423   0.00000  Uiso   1.00
C1157  C     0.79761   0.81064   0.68825   0.00000  Uiso   1.00
C1158  C     0.86905   0.85603   0.97842   0.00000  Uiso   1.00
C1159  C     0.79735   0.81027   0.97247   0.00000  Uiso   1.00
C1160  C     0.86931   0.85640   0.69420   0.00000  Uiso   1.00
Cu1161 Cu    0.83333   0.83334   0.88022   0.00000  Uiso   1.00
Cu1162 Cu    0.83333   0.83333   0.78645   0.00000  Uiso   1.00
N1163  N     0.83335   0.83334   0.95069   0.00000  Uiso   1.00
N1164  N     0.83332   0.83332   0.71597   0.00000  Uiso   1.00
O1165  O     0.83333   0.77322   0.87291   0.00000  Uiso   1.00
O1166  O     0.83334   0.89345   0.79375   0.00000  Uiso   1.00
O1167  O     0.83333   0.77321   0.79372   0.00000  Uiso   1.00
O1168  O     0.83334   0.89346   0.87294   0.00000  Uiso   1.00
O1169  O     0.75828   0.83334   0.86379   0.00000  Uiso   1.00
O1170  O     0.90839   0.83333   0.80288   0.00000  Uiso   1.00
O1171  O     0.75828   0.83333   0.78460   0.00000  Uiso   1.00
O1172  O     0.90839   0.83334   0.88207   0.00000  Uiso   1.00
F1173  F     0.98961   0.82863   0.77021   0.00000  Uiso   1.00
F1174  F     0.67706   0.83804   0.89646   0.00000  Uiso   1.00
O1175  O     0.74769   0.70630   0.78765   0.00000  Uiso   1.00
H1176  H     0.74642   0.73512   0.79818   0.00000  Uiso   1.00
O1177  O     0.91898   0.96037   0.87901   0.00000  Uiso   1.00
H1178  H     0.92025   0.93155   0.86849   0.00000  Uiso   1.00
O1179  O     0.74815   0.95777   0.78600   0.00000  Uiso   1.00
H1180  H     0.74804   0.92793   0.79392   0.00000  Uiso   1.00
O1181  O     0.91852   0.70890   0.88067   0.00000  Uiso   1.00
H1182  H     0.91863   0.73874   0.87274   0.00000  Uiso   1.00
F1183  F     0.76225   0.78717   0.70800   0.00000  Uiso   1.00
F1184  F     0.90442   0.87950   0.95866   0.00000  Uiso   1.00
O1185  O     0.75939   0.78605   0.94822   0.00000  Uiso   1.00
H1186  H     0.76959   0.77957   0.91780   0.00000  Uiso   1.00
O1187  O     0.90728   0.88062   0.71845   0.00000  Uiso   1.00
H1188  H     0.89708   0.88710   0.74886   0.00000  Uiso   1.00
loop_
_geom_bond_atom_site_label_1
_geom_bond_atom_site_label_2
_geom_bond_distance
_geom_bond_site_symmetry_2
_ccdc_geom_bond_type
C1     O21     1.296   .     A
C1     O23     1.294   .     A
C1     C12     1.443   .     S
C2     O22     1.296   .     A
C2     C11     1.443   .     S
C2     O24     1.294   .     A
C3     O27     1.295   .     A
C3     O25     1.294   .     A
C3     C5      1.434   .     S
C4     O26     1.294   .     A
C4     C6      1.434   .     S
C4     O28     1.295   .     A
C5     C94     1.343   1_455 S
C5     F117    1.363   1_455 S
C6     C49     1.343   .     S
C6     F74     1.363   .     S
C7     C12     1.415   .     A
C7     O31     1.385   .     S
C7     C273    1.390   1_545 S
C8     O33     1.385   .     S
C8     C11     1.415   .     A
C8     C142    1.390   .     S
C9     C11     1.415   .     A
C9     O35     1.386   .     S
C9     C139    1.390   .     S
C10    C12     1.415   .     A
C10    O37     1.386   .     S
C10    C272    1.390   1_545 S
C13    F39     1.356   .     S
C13    N20     1.358   .     A
C13    C807    1.415   1_554 S
C14    F40     1.356   .     S
C14    N19     1.358   .     A
C14    C412    1.415   .     S
C15    N19     1.391   .     A
C15    O41     1.375   .     S
C15    C409    1.415   .     S
C16    N20     1.391   .     A
C16    O43     1.375   .     S
C16    C806    1.415   1_554 S
Cu17   O25     1.971   .     S
Cu17   Cu18    2.702   .     S
Cu17   O24     1.952   .     S
Cu17   N19     2.031   .     S
Cu17   O28     1.969   .     S
Cu17   O21     1.960   .     S
Cu18   N20     2.031   .     S
Cu18   O26     1.971   .     S
Cu18   O23     1.952   .     S
Cu18   O22     1.960   .     S
Cu18   O27     1.969   .     S
F29    C49     1.363   .     S
F30    C94     1.363   1_455 S
O31    H32     0.989   .     S
O33    H34     0.989   .     S
O35    H36     0.988   .     S
O37    H38     0.988   .     S
O41    H42     0.977   .     S
O43    H44     0.977   .     S
C45    O65     1.296   .     A
C45    O67     1.294   .     A
C45    C56     1.443   .     S
C46    O66     1.296   .     A
C46    C55     1.443   .     S
C46    O68     1.294   .     A
C47    O71     1.295   .     A
C47    O69     1.294   .     A
C47    C49     1.434   .     S
C48    O70     1.294   .     A
C48    C50     1.434   .     S
C48    O72     1.295   .     A
C50    C93     1.343   .     S
C50    F118    1.363   .     S
C51    C56     1.415   .     A
C51    O75     1.385   .     S
C51    C317    1.390   1_545 S
C52    O77     1.385   .     S
C52    C55     1.415   .     A
C52    C186    1.390   .     S
C53    C55     1.415   .     A
C53    O79     1.386   .     S
C53    C183    1.390   .     S
C54    C56     1.415   .     A
C54    O81     1.386   .     S
C54    C316    1.390   1_545 S
C57    F83     1.356   .     S
C57    N64     1.358   .     A
C57    C851    1.415   1_554 S
C58    F84     1.356   .     S
C58    N63     1.358   .     A
C58    C456    1.415   .     S
C59    N63     1.391   .     A
C59    O85     1.375   .     S
C59    C453    1.415   .     S
C60    N64     1.391   .     A
C60    O87     1.375   .     S
C60    C850    1.415   1_554 S
Cu61   O69     1.971   .     S
Cu61   Cu62    2.702   .     S
Cu61   O68     1.952   .     S
Cu61   N63     2.031   .     S
Cu61   O72     1.969   .     S
Cu61   O65     1.960   .     S
Cu62   N64     2.031   .     S
Cu62   O70     1.971   .     S
Cu62   O67     1.952   .     S
Cu62   O66     1.960   .     S
Cu62   O71     1.969   .     S
F73    C93     1.363   .     S
O75    H76     0.989   .     S
O77    H78     0.989   .     S
O79    H80     0.988   .     S
O81    H82     0.988   .     S
O85    H86     0.977   .     S
O87    H88     0.977   .     S
C89    O109    1.296   .     A
C89    O111    1.294   .     A
C89    C100    1.443   .     S
C90    O110    1.296   .     A
C90    C99     1.443   .     S
C90    O112    1.294   .     A
C91    O115    1.295   .     A
C91    O113    1.294   .     A
C91    C93     1.434   .     S
C92    O114    1.294   .     A
C92    C94     1.434   .     S
C92    O116    1.295   .     A
C94    C5      1.343   1_655 S
C94    F30     1.363   1_655 S
C95    C100    1.415   .     A
C95    O119    1.385   .     S
C95    C361    1.390   1_545 S
C96    O121    1.385   .     S
C96    C99     1.415   .     A
C96    C230    1.390   .     S
C97    C99     1.415   .     A
C97    O123    1.386   .     S
C97    C227    1.390   .     S
C98    C100    1.415   .     A
C98    O125    1.386   .     S
C98    C360    1.390   1_545 S
C101   F127    1.356   .     S
C101   N108    1.358   .     A
C101   C895    1.415   1_554 S
C102   F128    1.356   .     S
C102   N107    1.358   .     A
C102   C500    1.415   .     S
C103   N107    1.391   .     A
C103   O129    1.375   .     S
C103   C497    1.415   .     S
C104   N108    1.391   .     A
C104   O131    1.375   .     S
C104   C894    1.415   1_554 S
Cu105  O113    1.971   .     S
Cu105  Cu106   2.702   .     S
Cu105  O112    1.952   .     S
Cu105  N107    2.031   .     S
Cu105  O116    1.969   .     S
Cu105  O109    1.960   .     S
Cu106  N108    2.031   .     S
Cu106  O114    1.971   .     S
Cu106  O111    1.952   .     S
Cu106  O110    1.960   .     S
Cu106  O115    1.969   .     S
F117   C5      1.363   1_655 S
O119   H120    0.989   .     S
O121   H122    0.989   .     S
O123   H124    0.988   .     S
O125   H126    0.988   .     S
O129   H130    0.977   .     S
O131   H132    0.977   .     S
C133   O153    1.296   .     A
C133   O155    1.294   .     A
C133   C144    1.443   .     S
C134   O154    1.296   .     A
C134   C143    1.443   .     S
C134   O156    1.294   .     A
C135   O159    1.295   .     A
C135   O157    1.294   .     A
C135   C137    1.434   .     S
C136   O158    1.294   .     A
C136   C138    1.434   .     S
C136   O160    1.295   .     A
C137   C226    1.343   1_455 S
C137   F249    1.363   1_455 S
C138   C181    1.343   .     S
C138   F206    1.363   .     S
C139   C144    1.415   .     A
C139   O163    1.385   .     S
C140   O165    1.385   .     S
C140   C143    1.415   .     A
C140   C274    1.390   .     S
C141   C143    1.415   .     A
C141   O167    1.386   .     S
C141   C271    1.390   .     S
C142   C144    1.415   .     A
C142   O169    1.386   .     S
C145   F171    1.356   .     S
C145   N152    1.358   .     A
C145   C939    1.415   1_554 S
C146   F172    1.356   .     S
C146   N151    1.358   .     A
C146   C544    1.415   .     S
C147   N151    1.391   .     A
C147   O173    1.375   .     S
C147   C541    1.415   .     S
C148   N152    1.391   .     A
C148   O175    1.375   .     S
C148   C938    1.415   1_554 S
Cu149  O157    1.971   .     S
Cu149  Cu150   2.702   .     S
Cu149  O156    1.952   .     S
Cu149  N151    2.031   .     S
Cu149  O160    1.969   .     S
Cu149  O153    1.960   .     S
Cu150  N152    2.031   .     S
Cu150  O158    1.971   .     S
Cu150  O155    1.952   .     S
Cu150  O154    1.960   .     S
Cu150  O159    1.969   .     S
F161   C181    1.363   .     S
F162   C226    1.363   1_455 S
O163   H164    0.989   .     S
O165   H166    0.989   .     S
O167   H168    0.988   .     S
O169   H170    0.988   .     S
O173   H174    0.977   .     S
O175   H176    0.977   .     S
C177   O197    1.296   .     A
C177   O199    1.294   .     A
C177   C188    1.443   .     S
C178   O198    1.296   .     A
C178   C187    1.443   .     S
C178   O200    1.294   .     A
C179   O203    1.295   .     A
C179   O201    1.294   .     A
C179   C181    1.434   .     S
C180   O202    1.294   .     A
C180   C182    1.434   .     S
C180   O204    1.295   .     A
C182   C225    1.343   .     S
C182   F250    1.363   .     S
C183   C188    1.415   .     A
C183   O207    1.385   .     S
C184   O209    1.385   .     S
C184   C187    1.415   .     A
C184   C318    1.390   .     S
C185   C187    1.415   .     A
C185   O211    1.386   .     S
C185   C315    1.390   .     S
C186   C188    1.415   .     A
C186   O213    1.386   .     S
C189   F215    1.356   .     S
C189   N196    1.358   .     A
C189   C983    1.415   1_554 S
C190   F216    1.356   .     S
C190   N195    1.358   .     A
C190   C588    1.415   .     S
C191   N195    1.391   .     A
C191   O217    1.375   .     S
C191   C585    1.415   .     S
C192   N196    1.391   .     A
C192   O219    1.375   .     S
C192   C982    1.415   1_554 S
Cu193  O201    1.971   .     S
Cu193  Cu194   2.702   .     S
Cu193  O200    1.952   .     S
Cu193  N195    2.031   .     S
Cu193  O204    1.969   .     S
Cu193  O197    1.960   .     S
Cu194  N196    2.031   .     S
Cu194  O202    1.971   .     S
Cu194  O199    1.952   .     S
Cu194  O198    1.960   .     S
Cu194  O203    1.969   .     S
F205   C225    1.363   .     S
O207   H208    0.989   .     S
O209   H210    0.989   .     S
O211   H212    0.988   .     S
O213   H214    0.988   .     S
O217   H218    0.977   .     S
O219   H220    0.977   .     S
C221   O241    1.296   .     A
C221   O243    1.294   .     A
C221   C232    1.443   .     S
C222   O242    1.296   .     A
C222   C231    1.443   .     S
C222   O244    1.294   .     A
C223   O247    1.295   .     A
C223   O245    1.294   .     A
C223   C225    1.434   .     S
C224   O246    1.294   .     A
C224   C226    1.434   .     S
C224   O248    1.295   .     A
C226   C137    1.343   1_655 S
C226   F162    1.363   1_655 S
C227   C232    1.415   .     A
C227   O251    1.385   .     S
C228   O253    1.385   .     S
C228   C231    1.415   .     A
C228   C362    1.390   .     S
C229   C231    1.415   .     A
C229   O255    1.386   .     S
C229   C359    1.390   .     S
C230   C232    1.415   .     A
C230   O257    1.386   .     S
C233   F259    1.356   .     S
C233   N240    1.358   .     A
C233   C1027   1.415   1_554 S
C234   F260    1.356   .     S
C234   N239    1.358   .     A
C234   C632    1.415   .     S
C235   N239    1.391   .     A
C235   O261    1.375   .     S
C235   C629    1.415   .     S
C236   N240    1.391   .     A
C236   O263    1.375   .     S
C236   C1026   1.415   1_554 S
Cu237  O245    1.971   .     S
Cu237  Cu238   2.702   .     S
Cu237  O244    1.952   .     S
Cu237  N239    2.031   .     S
Cu237  O248    1.969   .     S
Cu237  O241    1.960   .     S
Cu238  N240    2.031   .     S
Cu238  O246    1.971   .     S
Cu238  O243    1.952   .     S
Cu238  O242    1.960   .     S
Cu238  O247    1.969   .     S
F249   C137    1.363   1_655 S
O251   H252    0.989   .     S
O253   H254    0.989   .     S
O255   H256    0.988   .     S
O257   H258    0.988   .     S
O261   H262    0.977   .     S
O263   H264    0.977   .     S
C265   O285    1.296   .     A
C265   O287    1.294   .     A
C265   C276    1.443   .     S
C266   O286    1.296   .     A
C266   C275    1.443   .     S
C266   O288    1.294   .     A
C267   O291    1.295   .     A
C267   O289    1.294   .     A
C267   C269    1.434   .     S
C268   O290    1.294   .     A
C268   C270    1.434   .     S
C268   O292    1.295   .     A
C269   C358    1.343   1_455 S
C269   F381    1.363   1_455 S
C270   C313    1.343   .     S
C270   F338    1.363   .     S
C271   C276    1.415   .     A
C271   O295    1.385   .     S
C272   O297    1.385   .     S
C272   C275    1.415   .     A
C272   C10     1.390   1_565 S
C273   C275    1.415   .     A
C273   O299    1.386   .     S
C273   C7      1.390   1_565 S
C274   C276    1.415   .     A
C274   O301    1.386   .     S
C277   F303    1.356   .     S
C277   N284    1.358   .     A
C277   C1071   1.415   1_554 S
C278   F304    1.356   .     S
C278   N283    1.358   .     A
C278   C676    1.415   .     S
C279   N283    1.391   .     A
C279   O305    1.375   .     S
C279   C673    1.415   .     S
C280   N284    1.391   .     A
C280   O307    1.375   .     S
C280   C1070   1.415   1_554 S
Cu281  O289    1.971   .     S
Cu281  Cu282   2.702   .     S
Cu281  O288    1.952   .     S
Cu281  N283    2.031   .     S
Cu281  O292    1.969   .     S
Cu281  O285    1.960   .     S
Cu282  N284    2.031   .     S
Cu282  O290    1.971   .     S
Cu282  O287    1.952   .     S
Cu282  O286    1.960   .     S
Cu282  O291    1.969   .     S
F293   C313    1.363   .     S
F294   C358    1.363   1_455 S
O295   H296    0.989   .     S
O297   H298    0.989   .     S
O299   H300    0.988   .     S
O301   H302    0.988   .     S
O305   H306    0.977   .     S
O307   H308    0.977   .     S
C309   O329    1.296   .     A
C309   O331    1.294   .     A
C309   C320    1.443   .     S
C310   O330    1.296   .     A
C310   C319    1.443   .     S
C310   O332    1.294   .     A
C311   O335    1.295   .     A
C311   O333    1.294   .     A
C311   C313    1.434   .     S
C312   O334    1.294   .     A
C312   C314    1.434   .     S
C312   O336    1.295   .     A
C314   C357    1.343   .     S
C314   F382    1.363   .     S
C315   C320    1.415   .     A
C315   O339    1.385   .     S
C316   O341    1.385   .     S
C316   C319    1.415   .     A
C316   C54     1.390   1_565 S
C317   C319    1.415   .     A
C317   O343    1.386   .     S
C317   C51     1.390   1_565 S
C318   C320    1.415   .     A
C318   O345    1.386   .     S
C321   F347    1.356   .     S
C321   N328    1.358   .     A
C321   C1115   1.415   1_554 S
C322   F348    1.356   .     S
C322   N327    1.358   .     A
C322   C720    1.415   .     S
C323   N327    1.391   .     A
C323   O349    1.375   .     S
C323   C717    1.415   .     S
C324   N328    1.391   .     A
C324   O351    1.375   .     S
C324   C1114   1.415   1_554 S
Cu325  O333    1.971   .     S
Cu325  Cu326   2.702   .     S
Cu325  O332    1.952   .     S
Cu325  N327    2.031   .     S
Cu325  O336    1.969   .     S
Cu325  O329    1.960   .     S
Cu326  N328    2.031   .     S
Cu326  O334    1.971   .     S
Cu326  O331    1.952   .     S
Cu326  O330    1.960   .     S
Cu326  O335    1.969   .     S
F337   C357    1.363   .     S
O339   H340    0.989   .     S
O341   H342    0.989   .     S
O343   H344    0.988   .     S
O345   H346    0.988   .     S
O349   H350    0.977   .     S
O351   H352    0.977   .     S
C353   O373    1.296   .     A
C353   O375    1.294   .     A
C353   C364    1.443   .     S
C354   O374    1.296   .     A
C354   C363    1.443   .     S
C354   O376    1.294   .     A
C355   O379    1.295   .     A
C355   O377    1.294   .     A
C355   C357    1.434   .     S
C356   O378    1.294   .     A
C356   C358    1.434   .     S
C356   O380    1.295   .     A
C358   C269    1.343   1_655 S
C358   F294    1.363   1_655 S
C359   C364    1.415   .     A
C359   O383    1.385   .     S
C360   O385    1.385   .     S
C360   C363    1.415   .     A
C360   C98     1.390   1_565 S
C361   C363    1.415   .     A
C361   O387    1.386   .     S
C361   C95     1.390   1_565 S
C362   C364    1.415   .     A
C362   O389    1.386   .     S
C365   F391    1.356   .     S
C365   N372    1.358   .     A
C365   C1159   1.415   1_554 S
C366   F392    1.356   .     S
C366   N371    1.358   .     A
C366   C764    1.415   .     S
C367   N371    1.391   .     A
C367   O393    1.375   .     S
C367   C761    1.415   .     S
C368   N372    1.391   .     A
C368   O395    1.375   .     S
C368   C1158   1.415   1_554 S
Cu369  O377    1.971   .     S
Cu369  Cu370   2.702   .     S
Cu369  O376    1.952   .     S
Cu369  N371    2.031   .     S
Cu369  O380    1.969   .     S
Cu369  O373    1.960   .     S
Cu370  N372    2.031   .     S
Cu370  O378    1.971   .     S
Cu370  O375    1.952   .     S
Cu370  O374    1.960   .     S
Cu370  O379    1.969   .     S
F381   C269    1.363   1_655 S
O383   H384    0.989   .     S
O385   H386    0.989   .     S
O387   H388    0.988   .     S
O389   H390    0.988   .     S
O393   H394    0.977   .     S
O395   H396    0.977   .     S
C397   O417    1.296   .     A
C397   O419    1.294   .     A
C397   C408    1.443   .     S
C398   O418    1.296   .     A
C398   C407    1.443   .     S
C398   O420    1.294   .     A
C399   O423    1.295   .     A
C399   O421    1.294   .     A
C399   C401    1.434   .     S
C400   O422    1.294   .     A
C400   C402    1.434   .     S
C400   O424    1.295   .     A
C401   C490    1.343   1_455 S
C401   F513    1.363   1_455 S
C402   C445    1.343   .     S
C402   F470    1.363   .     S
C403   C408    1.415   .     A
C403   O427    1.385   .     S
C403   C669    1.390   1_545 S
C404   O429    1.385   .     S
C404   C407    1.415   .     A
C404   C538    1.390   .     S
C405   C407    1.415   .     A
C405   O431    1.386   .     S
C405   C535    1.390   .     S
C406   C408    1.415   .     A
C406   O433    1.386   .     S
C406   C668    1.390   1_545 S
C409   F435    1.356   .     S
C409   N416    1.358   .     A
C410   F436    1.356   .     S
C410   N415    1.358   .     A
C410   C808    1.415   .     S
C411   N415    1.391   .     A
C411   O437    1.375   .     S
C411   C805    1.415   .     S
C412   N416    1.391   .     A
C412   O439    1.375   .     S
Cu413  O421    1.971   .     S
Cu413  Cu414   2.702   .     S
Cu413  O420    1.952   .     S
Cu413  N415    2.031   .     S
Cu413  O424    1.969   .     S
Cu413  O417    1.960   .     S
Cu414  N416    2.031   .     S
Cu414  O422    1.971   .     S
Cu414  O419    1.952   .     S
Cu414  O418    1.960   .     S
Cu414  O423    1.969   .     S
F425   C445    1.363   .     S
F426   C490    1.363   1_455 S
O427   H428    0.989   .     S
O429   H430    0.989   .     S
O431   H432    0.988   .     S
O433   H434    0.988   .     S
O437   H438    0.977   .     S
O439   H440    0.977   .     S
C441   O461    1.296   .     A
C441   O463    1.294   .     A
C441   C452    1.443   .     S
C442   O462    1.296   .     A
C442   C451    1.443   .     S
C442   O464    1.294   .     A
C443   O467    1.295   .     A
C443   O465    1.294   .     A
C443   C445    1.434   .     S
C444   O466    1.294   .     A
C444   C446    1.434   .     S
C444   O468    1.295   .     A
C446   C489    1.343   .     S
C446   F514    1.363   .     S
C447   C452    1.415   .     A
C447   O471    1.385   .     S
C447   C713    1.390   1_545 S
C448   O473    1.385   .     S
C448   C451    1.415   .     A
C448   C582    1.390   .     S
C449   C451    1.415   .     A
C449   O475    1.386   .     S
C449   C579    1.390   .     S
C450   C452    1.415   .     A
C450   O477    1.386   .     S
C450   C712    1.390   1_545 S
C453   F479    1.356   .     S
C453   N460    1.358   .     A
C454   F480    1.356   .     S
C454   N459    1.358   .     A
C454   C852    1.415   .     S
C455   N459    1.391   .     A
C455   O481    1.375   .     S
C455   C849    1.415   .     S
C456   N460    1.391   .     A
C456   O483    1.375   .     S
Cu457  O465    1.971   .     S
Cu457  Cu458   2.702   .     S
Cu457  O464    1.952   .     S
Cu457  N459    2.031   .     S
Cu457  O468    1.969   .     S
Cu457  O461    1.960   .     S
Cu458  N460    2.031   .     S
Cu458  O466    1.971   .     S
Cu458  O463    1.952   .     S
Cu458  O462    1.960   .     S
Cu458  O467    1.969   .     S
F469   C489    1.363   .     S
O471   H472    0.989   .     S
O473   H474    0.989   .     S
O475   H476    0.988   .     S
O477   H478    0.988   .     S
O481   H482    0.977   .     S
O483   H484    0.977   .     S
C485   O505    1.296   .     A
C485   O507    1.294   .     A
C485   C496    1.443   .     S
C486   O506    1.296   .     A
C486   C495    1.443   .     S
C486   O508    1.294   .     A
C487   O511    1.295   .     A
C487   O509    1.294   .     A
C487   C489    1.434   .     S
C488   O510    1.294   .     A
C488   C490    1.434   .     S
C488   O512    1.295   .     A
C490   C401    1.343   1_655 S
C490   F426    1.363   1_655 S
C491   C496    1.415   .     A
C491   O515    1.385   .     S
C491   C757    1.390   1_545 S
C492   O517    1.385   .     S
C492   C495    1.415   .     A
C492   C626    1.390   .     S
C493   C495    1.415   .     A
C493   O519    1.386   .     S
C493   C623    1.390   .     S
C494   C496    1.415   .     A
C494   O521    1.386   .     S
C494   C756    1.390   1_545 S
C497   F523    1.356   .     S
C497   N504    1.358   .     A
C498   F524    1.356   .     S
C498   N503    1.358   .     A
C498   C896    1.415   .     S
C499   N503    1.391   .     A
C499   O525    1.375   .     S
C499   C893    1.415   .     S
C500   N504    1.391   .     A
C500   O527    1.375   .     S
Cu501  O509    1.971   .     S
Cu501  Cu502   2.702   .     S
Cu501  O508    1.952   .     S
Cu501  N503    2.031   .     S
Cu501  O512    1.969   .     S
Cu501  O505    1.960   .     S
Cu502  N504    2.031   .     S
Cu502  O510    1.971   .     S
Cu502  O507    1.952   .     S
Cu502  O506    1.960   .     S
Cu502  O511    1.969   .     S
F513   C401    1.363   1_655 S
O515   H516    0.989   .     S
O517   H518    0.989   .     S
O519   H520    0.988   .     S
O521   H522    0.988   .     S
O525   H526    0.977   .     S
O527   H528    0.977   .     S
C529   O549    1.296   .     A
C529   O551    1.294   .     A
C529   C540    1.443   .     S
C530   O550    1.296   .     A
C530   C539    1.443   .     S
C530   O552    1.294   .     A
C531   O555    1.295   .     A
C531   O553    1.294   .     A
C531   C533    1.434   .     S
C532   O554    1.294   .     A
C532   C534    1.434   .     S
C532   O556    1.295   .     A
C533   C622    1.343   1_455 S
C533   F645    1.363   1_455 S
C534   C577    1.343   .     S
C534   F602    1.363   .     S
C535   C540    1.415   .     A
C535   O559    1.385   .     S
C536   O561    1.385   .     S
C536   C539    1.415   .     A
C536   C670    1.390   .     S
C537   C539    1.415   .     A
C537   O563    1.386   .     S
C537   C667    1.390   .     S
C538   C540    1.415   .     A
C538   O565    1.386   .     S
C541   F567    1.356   .     S
C541   N548    1.358   .     A
C542   F568    1.356   .     S
C542   N547    1.358   .     A
C542   C940    1.415   .     S
C543   N547    1.391   .     A
C543   O569    1.375   .     S
C543   C937    1.415   .     S
C544   N548    1.391   .     A
C544   O571    1.375   .     S
Cu545  O553    1.971   .     S
Cu545  Cu546   2.702   .     S
Cu545  O552    1.952   .     S
Cu545  N547    2.031   .     S
Cu545  O556    1.969   .     S
Cu545  O549    1.960   .     S
Cu546  N548    2.031   .     S
Cu546  O554    1.971   .     S
Cu546  O551    1.952   .     S
Cu546  O550    1.960   .     S
Cu546  O555    1.969   .     S
F557   C577    1.363   .     S
F558   C622    1.363   1_455 S
O559   H560    0.989   .     S
O561   H562    0.989   .     S
O563   H564    0.988   .     S
O565   H566    0.988   .     S
O569   H570    0.977   .     S
O571   H572    0.977   .     S
C573   O593    1.296   .     A
C573   O595    1.294   .     A
C573   C584    1.443   .     S
C574   O594    1.296   .     A
C574   C583    1.443   .     S
C574   O596    1.294   .     A
C575   O599    1.295   .     A
C575   O597    1.294   .     A
C575   C577    1.434   .     S
C576   O598    1.294   .     A
C576   C578    1.434   .     S
C576   O600    1.295   .     A
C578   C621    1.343   .     S
C578   F646    1.363   .     S
C579   C584    1.415   .     A
C579   O603    1.385   .     S
C580   O605    1.385   .     S
C580   C583    1.415   .     A
C580   C714    1.390   .     S
C581   C583    1.415   .     A
C581   O607    1.386   .     S
C581   C711    1.390   .     S
C582   C584    1.415   .     A
C582   O609    1.386   .     S
C585   F611    1.356   .     S
C585   N592    1.358   .     A
C586   F612    1.356   .     S
C586   N591    1.358   .     A
C586   C984    1.415   .     S
C587   N591    1.391   .     A
C587   O613    1.375   .     S
C587   C981    1.415   .     S
C588   N592    1.391   .     A
C588   O615    1.375   .     S
Cu589  O597    1.971   .     S
Cu589  Cu590   2.702   .     S
Cu589  O596    1.952   .     S
Cu589  N591    2.031   .     S
Cu589  O600    1.969   .     S
Cu589  O593    1.960   .     S
Cu590  N592    2.031   .     S
Cu590  O598    1.971   .     S
Cu590  O595    1.952   .     S
Cu590  O594    1.960   .     S
Cu590  O599    1.969   .     S
F601   C621    1.363   .     S
O603   H604    0.989   .     S
O605   H606    0.989   .     S
O607   H608    0.988   .     S
O609   H610    0.988   .     S
O613   H614    0.977   .     S
O615   H616    0.977   .     S
C617   O637    1.296   .     A
C617   O639    1.294   .     A
C617   C628    1.443   .     S
C618   O638    1.296   .     A
C618   C627    1.443   .     S
C618   O640    1.294   .     A
C619   O643    1.295   .     A
C619   O641    1.294   .     A
C619   C621    1.434   .     S
C620   O642    1.294   .     A
C620   C622    1.434   .     S
C620   O644    1.295   .     A
C622   C533    1.343   1_655 S
C622   F558    1.363   1_655 S
C623   C628    1.415   .     A
C623   O647    1.385   .     S
C624   O649    1.385   .     S
C624   C627    1.415   .     A
C624   C758    1.390   .     S
C625   C627    1.415   .     A
C625   O651    1.386   .     S
C625   C755    1.390   .     S
C626   C628    1.415   .     A
C626   O653    1.386   .     S
C629   F655    1.356   .     S
C629   N636    1.358   .     A
C630   F656    1.356   .     S
C630   N635    1.358   .     A
C630   C1028   1.415   .     S
C631   N635    1.391   .     A
C631   O657    1.375   .     S
C631   C1025   1.415   .     S
C632   N636    1.391   .     A
C632   O659    1.375   .     S
Cu633  O641    1.971   .     S
Cu633  Cu634   2.702   .     S
Cu633  O640    1.952   .     S
Cu633  N635    2.031   .     S
Cu633  O644    1.969   .     S
Cu633  O637    1.960   .     S
Cu634  N636    2.031   .     S
Cu634  O642    1.971   .     S
Cu634  O639    1.952   .     S
Cu634  O638    1.960   .     S
Cu634  O643    1.969   .     S
F645   C533    1.363   1_655 S
O647   H648    0.989   .     S
O649   H650    0.989   .     S
O651   H652    0.988   .     S
O653   H654    0.988   .     S
O657   H658    0.977   .     S
O659   H660    0.977   .     S
C661   O681    1.296   .     A
C661   O683    1.294   .     A
C661   C672    1.443   .     S
C662   O682    1.296   .     A
C662   C671    1.443   .     S
C662   O684    1.294   .     A
C663   O687    1.295   .     A
C663   O685    1.294   .     A
C663   C665    1.434   .     S
C664   O686    1.294   .     A
C664   C666    1.434   .     S
C664   O688    1.295   .     A
C665   C754    1.343   1_455 S
C665   F777    1.363   1_455 S
C666   C709    1.343   .     S
C666   F734    1.363   .     S
C667   C672    1.415   .     A
C667   O691    1.385   .     S
C668   O693    1.385   .     S
C668   C671    1.415   .     A
C668   C406    1.390   1_565 S
C669   C671    1.415   .     A
C669   O695    1.386   .     S
C669   C403    1.390   1_565 S
C670   C672    1.415   .     A
C670   O697    1.386   .     S
C673   F699    1.356   .     S
C673   N680    1.358   .     A
C674   F700    1.356   .     S
C674   N679    1.358   .     A
C674   C1072   1.415   .     S
C675   N679    1.391   .     A
C675   O701    1.375   .     S
C675   C1069   1.415   .     S
C676   N680    1.391   .     A
C676   O703    1.375   .     S
Cu677  O685    1.971   .     S
Cu677  Cu678   2.702   .     S
Cu677  O684    1.952   .     S
Cu677  N679    2.031   .     S
Cu677  O688    1.969   .     S
Cu677  O681    1.960   .     S
Cu678  N680    2.031   .     S
Cu678  O686    1.971   .     S
Cu678  O683    1.952   .     S
Cu678  O682    1.960   .     S
Cu678  O687    1.969   .     S
F689   C709    1.363   .     S
F690   C754    1.363   1_455 S
O691   H692    0.989   .     S
O693   H694    0.989   .     S
O695   H696    0.988   .     S
O697   H698    0.988   .     S
O701   H702    0.977   .     S
O703   H704    0.977   .     S
C705   O725    1.296   .     A
C705   O727    1.294   .     A
C705   C716    1.443   .     S
C706   O726    1.296   .     A
C706   C715    1.443   .     S
C706   O728    1.294   .     A
C707   O731    1.295   .     A
C707   O729    1.294   .     A
C707   C709    1.434   .     S
C708   O730    1.294   .     A
C708   C710    1.434   .     S
C708   O732    1.295   .     A
C710   C753    1.343   .     S
C710   F778    1.363   .     S
C711   C716    1.415   .     A
C711   O735    1.385   .     S
C712   O737    1.385   .     S
C712   C715    1.415   .     A
C712   C450    1.390   1_565 S
C713   C715    1.415   .     A
C713   O739    1.386   .     S
C713   C447    1.390   1_565 S
C714   C716    1.415   .     A
C714   O741    1.386   .     S
C717   F743    1.356   .     S
C717   N724    1.358   .     A
C718   F744    1.356   .     S
C718   N723    1.358   .     A
C718   C1116   1.415   .     S
C719   N723    1.391   .     A
C719   O745    1.375   .     S
C719   C1113   1.415   .     S
C720   N724    1.391   .     A
C720   O747    1.375   .     S
Cu721  O729    1.971   .     S
Cu721  Cu722   2.702   .     S
Cu721  O728    1.952   .     S
Cu721  N723    2.031   .     S
Cu721  O732    1.969   .     S
Cu721  O725    1.960   .     S
Cu722  N724    2.031   .     S
Cu722  O730    1.971   .     S
Cu722  O727    1.952   .     S
Cu722  O726    1.960   .     S
Cu722  O731    1.969   .     S
F733   C753    1.363   .     S
O735   H736    0.989   .     S
O737   H738    0.989   .     S
O739   H740    0.988   .     S
O741   H742    0.988   .     S
O745   H746    0.977   .     S
O747   H748    0.977   .     S
C749   O769    1.296   .     A
C749   O771    1.294   .     A
C749   C760    1.443   .     S
C750   O770    1.296   .     A
C750   C759    1.443   .     S
C750   O772    1.294   .     A
C751   O775    1.295   .     A
C751   O773    1.294   .     A
C751   C753    1.434   .     S
C752   O774    1.294   .     A
C752   C754    1.434   .     S
C752   O776    1.295   .     A
C754   C665    1.343   1_655 S
C754   F690    1.363   1_655 S
C755   C760    1.415   .     A
C755   O779    1.385   .     S
C756   O781    1.385   .     S
C756   C759    1.415   .     A
C756   C494    1.390   1_565 S
C757   C759    1.415   .     A
C757   O783    1.386   .     S
C757   C491    1.390   1_565 S
C758   C760    1.415   .     A
C758   O785    1.386   .     S
C761   F787    1.356   .     S
C761   N768    1.358   .     A
C762   F788    1.356   .     S
C762   N767    1.358   .     A
C762   C1160   1.415   .     S
C763   N767    1.391   .     A
C763   O789    1.375   .     S
C763   C1157   1.415   .     S
C764   N768    1.391   .     A
C764   O791    1.375   .     S
Cu765  O773    1.971   .     S
Cu765  Cu766   2.702   .     S
Cu765  O772    1.952   .     S
Cu765  N767    2.031   .     S
Cu765  O776    1.969   .     S
Cu765  O769    1.960   .     S
Cu766  N768    2.031   .     S
Cu766  O774    1.971   .     S
Cu766  O771    1.952   .     S
Cu766  O770    1.960   .     S
Cu766  O775    1.969   .     S
F777   C665    1.363   1_655 S
O779   H780    0.989   .     S
O781   H782    0.989   .     S
O783   H784    0.988   .     S
O785   H786    0.988   .     S
O789   H790    0.977   .     S
O791   H792    0.977   .     S
C793   O813    1.296   .     A
C793   O815    1.294   .     A
C793   C804    1.443   .     S
C794   O814    1.296   .     A
C794   C803    1.443   .     S
C794   O816    1.294   .     A
C795   O819    1.295   .     A
C795   O817    1.294   .     A
C795   C797    1.434   .     S
C796   O818    1.294   .     A
C796   C798    1.434   .     S
C796   O820    1.295   .     A
C797   C886    1.343   1_455 S
C797   F909    1.363   1_455 S
C798   C841    1.343   .     S
C798   F866    1.363   .     S
C799   C804    1.415   .     A
C799   O823    1.385   .     S
C799   C1065   1.390   1_545 S
C800   O825    1.385   .     S
C800   C803    1.415   .     A
C800   C934    1.390   .     S
C801   C803    1.415   .     A
C801   O827    1.386   .     S
C801   C931    1.390   .     S
C802   C804    1.415   .     A
C802   O829    1.386   .     S
C802   C1064   1.390   1_545 S
C805   F831    1.356   .     S
C805   N812    1.358   .     A
C806   F832    1.356   .     S
C806   N811    1.358   .     A
C806   C16     1.415   1_556 S
C807   N811    1.391   .     A
C807   O833    1.375   .     S
C807   C13     1.415   1_556 S
C808   N812    1.391   .     A
C808   O835    1.375   .     S
Cu809  O817    1.971   .     S
Cu809  Cu810   2.702   .     S
Cu809  O816    1.952   .     S
Cu809  N811    2.031   .     S
Cu809  O820    1.969   .     S
Cu809  O813    1.960   .     S
Cu810  N812    2.031   .     S
Cu810  O818    1.971   .     S
Cu810  O815    1.952   .     S
Cu810  O814    1.960   .     S
Cu810  O819    1.969   .     S
F821   C841    1.363   .     S
F822   C886    1.363   1_455 S
O823   H824    0.989   .     S
O825   H826    0.989   .     S
O827   H828    0.988   .     S
O829   H830    0.988   .     S
O833   H834    0.977   .     S
O835   H836    0.977   .     S
C837   O857    1.296   .     A
C837   O859    1.294   .     A
C837   C848    1.443   .     S
C838   O858    1.296   .     A
C838   C847    1.443   .     S
C838   O860    1.294   .     A
C839   O863    1.295   .     A
C839   O861    1.294   .     A
C839   C841    1.434   .     S
C840   O862    1.294   .     A
C840   C842    1.434   .     S
C840   O864    1.295   .     A
C842   C885    1.343   .     S
C842   F910    1.363   .     S
C843   C848    1.415   .     A
C843   O867    1.385   .     S
C843   C1109   1.390   1_545 S
C844   O869    1.385   .     S
C844   C847    1.415   .     A
C844   C978    1.390   .     S
C845   C847    1.415   .     A
C845   O871    1.386   .     S
C845   C975    1.390   .     S
C846   C848    1.415   .     A
C846   O873    1.386   .     S
C846   C1108   1.390   1_545 S
C849   F875    1.356   .     S
C849   N856    1.358   .     A
C850   F876    1.356   .     S
C850   N855    1.358   .     A
C850   C60     1.415   1_556 S
C851   N855    1.391   .     A
C851   O877    1.375   .     S
C851   C57     1.415   1_556 S
C852   N856    1.391   .     A
C852   O879    1.375   .     S
Cu853  O861    1.971   .     S
Cu853  Cu854   2.702   .     S
Cu853  O860    1.952   .     S
Cu853  N855    2.031   .     S
Cu853  O864    1.969   .     S
Cu853  O857    1.960   .     S
Cu854  N856    2.031   .     S
Cu854  O862    1.971   .     S
Cu854  O859    1.952   .     S
Cu854  O858    1.960   .     S
Cu854  O863    1.969   .     S
F865   C885    1.363   .     S
O867   H868    0.989   .     S
O869   H870    0.989   .     S
O871   H872    0.988   .     S
O873   H874    0.988   .     S
O877   H878    0.977   .     S
O879   H880    0.977   .     S
C881   O901    1.296   .     A
C881   O903    1.294   .     A
C881   C892    1.443   .     S
C882   O902    1.296   .     A
C882   C891    1.443   .     S
C882   O904    1.294   .     A
C883   O907    1.295   .     A
C883   O905    1.294   .     A
C883   C885    1.434   .     S
C884   O906    1.294   .     A
C884   C886    1.434   .     S
C884   O908    1.295   .     A
C886   C797    1.343   1_655 S
C886   F822    1.363   1_655 S
C887   C892    1.415   .     A
C887   O911    1.385   .     S
C887   C1153   1.390   1_545 S
C888   O913    1.385   .     S
C888   C891    1.415   .     A
C888   C1022   1.390   .     S
C889   C891    1.415   .     A
C889   O915    1.386   .     S
C889   C1019   1.390   .     S
C890   C892    1.415   .     A
C890   O917    1.386   .     S
C890   C1152   1.390   1_545 S
C893   F919    1.356   .     S
C893   N900    1.358   .     A
C894   F920    1.356   .     S
C894   N899    1.358   .     A
C894   C104    1.415   1_556 S
C895   N899    1.391   .     A
C895   O921    1.375   .     S
C895   C101    1.415   1_556 S
C896   N900    1.391   .     A
C896   O923    1.375   .     S
Cu897  O905    1.971   .     S
Cu897  Cu898   2.702   .     S
Cu897  O904    1.952   .     S
Cu897  N899    2.031   .     S
Cu897  O908    1.969   .     S
Cu897  O901    1.960   .     S
Cu898  N900    2.031   .     S
Cu898  O906    1.971   .     S
Cu898  O903    1.952   .     S
Cu898  O902    1.960   .     S
Cu898  O907    1.969   .     S
F909   C797    1.363   1_655 S
O911   H912    0.989   .     S
O913   H914    0.989   .     S
O915   H916    0.988   .     S
O917   H918    0.988   .     S
O921   H922    0.977   .     S
O923   H924    0.977   .     S
C925   O945    1.296   .     A
C925   O947    1.294   .     A
C925   C936    1.443   .     S
C926   O946    1.296   .     A
C926   C935    1.443   .     S
C926   O948    1.294   .     A
C927   O951    1.295   .     A
C927   O949    1.294   .     A
C927   C929    1.434   .     S
C928   O950    1.294   .     A
C928   C930    1.434   .     S
C928   O952    1.295   .     A
C929   C1018   1.343   1_455 S
C929   F1041   1.363   1_455 S
C930   C973    1.343   .     S
C930   F998    1.363   .     S
C931   C936    1.415   .     A
C931   O955    1.385   .     S
C932   O957    1.385   .     S
C932   C935    1.415   .     A
C932   C1066   1.390   .     S
C933   C935    1.415   .     A
C933   O959    1.386   .     S
C933   C1063   1.390   .     S
C934   C936    1.415   .     A
C934   O961    1.386   .     S
C937   F963    1.356   .     S
C937   N944    1.358   .     A
C938   F964    1.356   .     S
C938   N943    1.358   .     A
C938   C148    1.415   1_556 S
C939   N943    1.391   .     A
C939   O965    1.375   .     S
C939   C145    1.415   1_556 S
C940   N944    1.391   .     A
C940   O967    1.375   .     S
Cu941  O949    1.971   .     S
Cu941  Cu942   2.702   .     S
Cu941  O948    1.952   .     S
Cu941  N943    2.031   .     S
Cu941  O952    1.969   .     S
Cu941  O945    1.960   .     S
Cu942  N944    2.031   .     S
Cu942  O950    1.971   .     S
Cu942  O947    1.952   .     S
Cu942  O946    1.960   .     S
Cu942  O951    1.969   .     S
F953   C973    1.363   .     S
F954   C1018   1.363   1_455 S
O955   H956    0.989   .     S
O957   H958    0.989   .     S
O959   H960    0.988   .     S
O961   H962    0.988   .     S
O965   H966    0.977   .     S
O967   H968    0.977   .     S
C969   O989    1.296   .     A
C969   O991    1.294   .     A
C969   C980    1.443   .     S
C970   O990    1.296   .     A
C970   C979    1.443   .     S
C970   O992    1.294   .     A
C971   O995    1.295   .     A
C971   O993    1.294   .     A
C971   C973    1.434   .     S
C972   O994    1.294   .     A
C972   C974    1.434   .     S
C972   O996    1.295   .     A
C974   C1017   1.343   .     S
C974   F1042   1.363   .     S
C975   C980    1.415   .     A
C975   O999    1.385   .     S
C976   O1001   1.385   .     S
C976   C979    1.415   .     A
C976   C1110   1.390   .     S
C977   C979    1.415   .     A
C977   O1003   1.386   .     S
C977   C1107   1.390   .     S
C978   C980    1.415   .     A
C978   O1005   1.386   .     S
C981   F1007   1.356   .     S
C981   N988    1.358   .     A
C982   F1008   1.356   .     S
C982   N987    1.358   .     A
C982   C192    1.415   1_556 S
C983   N987    1.391   .     A
C983   O1009   1.375   .     S
C983   C189    1.415   1_556 S
C984   N988    1.391   .     A
C984   O1011   1.375   .     S
Cu985  O993    1.971   .     S
Cu985  Cu986   2.702   .     S
Cu985  O992    1.952   .     S
Cu985  N987    2.031   .     S
Cu985  O996    1.969   .     S
Cu985  O989    1.960   .     S
Cu986  N988    2.031   .     S
Cu986  O994    1.971   .     S
Cu986  O991    1.952   .     S
Cu986  O990    1.960   .     S
Cu986  O995    1.969   .     S
F997   C1017   1.363   .     S
O999   H1000   0.989   .     S
O1001  H1002   0.989   .     S
O1003  H1004   0.988   .     S
O1005  H1006   0.988   .     S
O1009  H1010   0.977   .     S
O1011  H1012   0.977   .     S
C1013  O1033   1.296   .     A
C1013  O1035   1.294   .     A
C1013  C1024   1.443   .     S
C1014  O1034   1.296   .     A
C1014  C1023   1.443   .     S
C1014  O1036   1.294   .     A
C1015  O1039   1.295   .     A
C1015  O1037   1.294   .     A
C1015  C1017   1.434   .     S
C1016  O1038   1.294   .     A
C1016  C1018   1.434   .     S
C1016  O1040   1.295   .     A
C1018  C929    1.343   1_655 S
C1018  F954    1.363   1_655 S
C1019  C1024   1.415   .     A
C1019  O1043   1.385   .     S
C1020  O1045   1.385   .     S
C1020  C1023   1.415   .     A
C1020  C1154   1.390   .     S
C1021  C1023   1.415   .     A
C1021  O1047   1.386   .     S
C1021  C1151   1.390   .     S
C1022  C1024   1.415   .     A
C1022  O1049   1.386   .     S
C1025  F1051   1.356   .     S
C1025  N1032   1.358   .     A
C1026  F1052   1.356   .     S
C1026  N1031   1.358   .     A
C1026  C236    1.415   1_556 S
C1027  N1031   1.391   .     A
C1027  O1053   1.375   .     S
C1027  C233    1.415   1_556 S
C1028  N1032   1.391   .     A
C1028  O1055   1.375   .     S
Cu1029 O1037   1.971   .     S
Cu1029 Cu1030  2.702   .     S
Cu1029 O1036   1.952   .     S
Cu1029 N1031   2.031   .     S
Cu1029 O1040   1.969   .     S
Cu1029 O1033   1.960   .     S
Cu1030 N1032   2.031   .     S
Cu1030 O1038   1.971   .     S
Cu1030 O1035   1.952   .     S
Cu1030 O1034   1.960   .     S
Cu1030 O1039   1.969   .     S
F1041  C929    1.363   1_655 S
O1043  H1044   0.989   .     S
O1045  H1046   0.989   .     S
O1047  H1048   0.988   .     S
O1049  H1050   0.988   .     S
O1053  H1054   0.977   .     S
O1055  H1056   0.977   .     S
C1057  O1077   1.296   .     A
C1057  O1079   1.294   .     A
C1057  C1068   1.443   .     S
C1058  O1078   1.296   .     A
C1058  C1067   1.443   .     S
C1058  O1080   1.294   .     A
C1059  O1083   1.295   .     A
C1059  O1081   1.294   .     A
C1059  C1061   1.434   .     S
C1060  O1082   1.294   .     A
C1060  C1062   1.434   .     S
C1060  O1084   1.295   .     A
C1061  C1150   1.343   1_455 S
C1061  F1173   1.363   1_455 S
C1062  C1105   1.343   .     S
C1062  F1130   1.363   .     S
C1063  C1068   1.415   .     A
C1063  O1087   1.385   .     S
C1064  O1089   1.385   .     S
C1064  C1067   1.415   .     A
C1064  C802    1.390   1_565 S
C1065  C1067   1.415   .     A
C1065  O1091   1.386   .     S
C1065  C799    1.390   1_565 S
C1066  C1068   1.415   .     A
C1066  O1093   1.386   .     S
C1069  F1095   1.356   .     S
C1069  N1076   1.358   .     A
C1070  F1096   1.356   .     S
C1070  N1075   1.358   .     A
C1070  C280    1.415   1_556 S
C1071  N1075   1.391   .     A
C1071  O1097   1.375   .     S
C1071  C277    1.415   1_556 S
C1072  N1076   1.391   .     A
C1072  O1099   1.375   .     S
Cu1073 O1081   1.971   .     S
Cu1073 Cu1074  2.702   .     S
Cu1073 O1080   1.952   .     S
Cu1073 N1075   2.031   .     S
Cu1073 O1084   1.969   .     S
Cu1073 O1077   1.960   .     S
Cu1074 N1076   2.031   .     S
Cu1074 O1082   1.971   .     S
Cu1074 O1079   1.952   .     S
Cu1074 O1078   1.960   .     S
Cu1074 O1083   1.969   .     S
F1085  C1105   1.363   .     S
F1086  C1150   1.363   1_455 S
O1087  H1088   0.989   .     S
O1089  H1090   0.989   .     S
O1091  H1092   0.988   .     S
O1093  H1094   0.988   .     S
O1097  H1098   0.977   .     S
O1099  H1100   0.977   .     S
C1101  O1121   1.296   .     A
C1101  O1123   1.294   .     A
C1101  C1112   1.443   .     S
C1102  O1122   1.296   .     A
C1102  C1111   1.443   .     S
C1102  O1124   1.294   .     A
C1103  O1127   1.295   .     A
C1103  O1125   1.294   .     A
C1103  C1105   1.434   .     S
C1104  O1126   1.294   .     A
C1104  C1106   1.434   .     S
C1104  O1128   1.295   .     A
C1106  C1149   1.343   .     S
C1106  F1174   1.363   .     S
C1107  C1112   1.415   .     A
C1107  O1131   1.385   .     S
C1108  O1133   1.385   .     S
C1108  C1111   1.415   .     A
C1108  C846    1.390   1_565 S
C1109  C1111   1.415   .     A
C1109  O1135   1.386   .     S
C1109  C843    1.390   1_565 S
C1110  C1112   1.415   .     A
C1110  O1137   1.386   .     S
C1113  F1139   1.356   .     S
C1113  N1120   1.358   .     A
C1114  F1140   1.356   .     S
C1114  N1119   1.358   .     A
C1114  C324    1.415   1_556 S
C1115  N1119   1.391   .     A
C1115  O1141   1.375   .     S
C1115  C321    1.415   1_556 S
C1116  N1120   1.391   .     A
C1116  O1143   1.375   .     S
Cu1117 O1125   1.971   .     S
Cu1117 Cu1118  2.702   .     S
Cu1117 O1124   1.952   .     S
Cu1117 N1119   2.031   .     S
Cu1117 O1128   1.969   .     S
Cu1117 O1121   1.960   .     S
Cu1118 N1120   2.031   .     S
Cu1118 O1126   1.971   .     S
Cu1118 O1123   1.952   .     S
Cu1118 O1122   1.960   .     S
Cu1118 O1127   1.969   .     S
F1129  C1149   1.363   .     S
O1131  H1132   0.989   .     S
O1133  H1134   0.989   .     S
O1135  H1136   0.988   .     S
O1137  H1138   0.988   .     S
O1141  H1142   0.977   .     S
O1143  H1144   0.977   .     S
C1145  O1165   1.296   .     A
C1145  O1167   1.294   .     A
C1145  C1156   1.443   .     S
C1146  O1166   1.296   .     A
C1146  C1155   1.443   .     S
C1146  O1168   1.294   .     A
C1147  O1171   1.295   .     A
C1147  O1169   1.294   .     A
C1147  C1149   1.434   .     S
C1148  O1170   1.294   .     A
C1148  C1150   1.434   .     S
C1148  O1172   1.295   .     A
C1150  C1061   1.343   1_655 S
C1150  F1086   1.363   1_655 S
C1151  C1156   1.415   .     A
C1151  O1175   1.385   .     S
C1152  O1177   1.385   .     S
C1152  C1155   1.415   .     A
C1152  C890    1.390   1_565 S
C1153  C1155   1.415   .     A
C1153  O1179   1.386   .     S
C1153  C887    1.390   1_565 S
C1154  C1156   1.415   .     A
C1154  O1181   1.386   .     S
C1157  F1183   1.356   .     S
C1157  N1164   1.358   .     A
C1158  F1184   1.356   .     S
C1158  N1163   1.358   .     A
C1158  C368    1.415   1_556 S
C1159  N1163   1.391   .     A
C1159  O1185   1.375   .     S
C1159  C365    1.415   1_556 S
C1160  N1164   1.391   .     A
C1160  O1187   1.375   .     S
Cu1161 O1169   1.971   .     S
Cu1161 Cu1162  2.702   .     S
Cu1161 O1168   1.952   .     S
Cu1161 N1163   2.031   .     S
Cu1161 O1172   1.969   .     S
Cu1161 O1165   1.960   .     S
Cu1162 N1164   2.031   .     S
Cu1162 O1170   1.971   .     S
Cu1162 O1167   1.952   .     S
Cu1162 O1166   1.960   .     S
Cu1162 O1171   1.969   .     S
F1173  C1061   1.363   1_655 S
O1175  H1176   0.989   .     S
O1177  H1178   0.989   .     S
O1179  H1180   0.988   .     S
O1181  H1182   0.988   .     S
O1185  H1186   0.977   .     S
O1187  H1188   0.977   .     S
