data_str_m2_o2_o10_pcu_sym.227
_audit_creation_date              2020-01-03
_audit_creation_method            'Materials Studio'
_symmetry_space_group_name_H-M    'P1'
_symmetry_Int_Tables_number       1
_symmetry_cell_setting            triclinic
loop_
_symmetry_equiv_pos_as_xyz
  x,y,z
_cell_length_a                    26.1342
_cell_length_b                    30.4781
_cell_length_c                    27.9711
_cell_angle_alpha                 89.5766
_cell_angle_beta                  97.9468
_cell_angle_gamma                 92.6752
loop_
_atom_site_label
_atom_site_type_symbol
_atom_site_fract_x
_atom_site_fract_y
_atom_site_fract_z
_atom_site_U_iso_or_equiv
_atom_site_adp_type
_atom_site_occupancy
O1     O     0.16667   0.18573   0.29071   0.00000  Uiso   1.00
O2     O     0.16666   0.31427   0.20928   0.00000  Uiso   1.00
O3     O     0.16667   0.18573   0.20928   0.00000  Uiso   1.00
O4     O     0.16666   0.31427   0.29072   0.00000  Uiso   1.00
C5     C     0.16854   0.16494   0.25035   0.00000  Uiso   1.00
C6     C     0.16494   0.33491   0.24957   0.00000  Uiso   1.00
O7     O     0.09161   0.24999   0.28132   0.00000  Uiso   1.00
O8     O     0.24172   0.25001   0.21868   0.00000  Uiso   1.00
O9     O     0.09161   0.25000   0.19988   0.00000  Uiso   1.00
O10    O     0.24172   0.25000   0.30011   0.00000  Uiso   1.00
C11    C     0.06799   0.24855   0.23771   0.00000  Uiso   1.00
C12    C     0.26535   0.24969   0.26242   0.00000  Uiso   1.00
Cu13   Cu    0.16667   0.24999   0.29821   0.00000  Uiso   1.00
Cu14   Cu    0.16667   0.25000   0.20178   0.00000  Uiso   1.00
C15    C     0.01263   0.24504   0.23145   0.00000  Uiso   1.00
C16    C     0.32078   0.25017   0.26928   0.00000  Uiso   1.00
H17    H     0.32587   0.23785   0.19560   0.00000  Uiso   1.00
H18    H     0.00763   0.25593   0.30552   0.00000  Uiso   1.00
C19    C     0.17744   0.04716   0.29591   0.00000  Uiso   1.00
C20    C     0.18536   0.45442   0.21689   0.00000  Uiso   1.00
H21    H     0.18663   0.02964   0.32968   0.00000  Uiso   1.00
H22    H     0.20368   0.47360   0.19058   0.00000  Uiso   1.00
C23    C     0.18106   0.09298   0.29542   0.00000  Uiso   1.00
C24    C     0.18310   0.40901   0.21357   0.00000  Uiso   1.00
C25    C     0.17066   0.11627   0.25101   0.00000  Uiso   1.00
C26    C     0.16157   0.38320   0.24886   0.00000  Uiso   1.00
C27    C     0.16020   0.09174   0.20736   0.00000  Uiso   1.00
C28    C     0.13814   0.40466   0.28472   0.00000  Uiso   1.00
C29    C     0.15470   0.04620   0.20932   0.00000  Uiso   1.00
C30    C     0.14046   0.45062   0.28677   0.00000  Uiso   1.00
H31    H     0.14499   0.02808   0.17586   0.00000  Uiso   1.00
H32    H     0.12185   0.46704   0.31348   0.00000  Uiso   1.00
C33    C     0.16402   0.02369   0.25307   0.00000  Uiso   1.00
C34    C     0.16388   0.47550   0.25293   0.00000  Uiso   1.00
C35    C     0.21026   0.26149   0.05858   0.00000  Uiso   1.00
C36    C     0.14116   0.21677   0.44292   0.00000  Uiso   1.00
H37    H     0.24605   0.26993   0.04452   0.00000  Uiso   1.00
H38    H     0.12204   0.18927   0.45902   0.00000  Uiso   1.00
C39    C     0.20919   0.26479   0.10856   0.00000  Uiso   1.00
C40    C     0.13881   0.21840   0.39242   0.00000  Uiso   1.00
N41    N     0.16667   0.25001   0.12934   0.00000  Uiso   1.00
N42    N     0.16667   0.24999   0.37065   0.00000  Uiso   1.00
C43    C     0.12289   0.23564   0.09859   0.00000  Uiso   1.00
C44    C     0.19439   0.28234   0.39855   0.00000  Uiso   1.00
C45    C     0.12075   0.23825   0.04754   0.00000  Uiso   1.00
C46    C     0.19229   0.28469   0.44889   0.00000  Uiso   1.00
C47    C     0.16564   0.24983   0.02667   0.00000  Uiso   1.00
C48    C     0.16658   0.25061   0.47232   0.00000  Uiso   1.00
C49    C     0.19906   0.11446   0.34095   0.00000  Uiso   1.00
N50    N     0.21371   0.13143   0.37749   0.00000  Uiso   1.00
C51    C     0.20107   0.39117   0.17163   0.00000  Uiso   1.00
N52    N     0.21488   0.37811   0.13711   0.00000  Uiso   1.00
N53    N     0.15829   0.11159   0.16049   0.00000  Uiso   1.00
O54    O     0.19962   0.13214   0.14890   0.00000  Uiso   1.00
O55    O     0.12245   0.09826   0.12598   0.00000  Uiso   1.00
N56    N     0.10857   0.38067   0.31683   0.00000  Uiso   1.00
O57    O     0.07479   0.34994   0.29995   0.00000  Uiso   1.00
O58    O     0.10826   0.39472   0.36061   0.00000  Uiso   1.00
C59    C     0.25284   0.28809   0.13536   0.00000  Uiso   1.00
N60    N     0.28815   0.30769   0.15571   0.00000  Uiso   1.00
C61    C     0.10508   0.18675   0.36420   0.00000  Uiso   1.00
N62    N     0.07764   0.16128   0.34180   0.00000  Uiso   1.00
N63    N     0.07815   0.21754   0.11723   0.00000  Uiso   1.00
O64    O     0.03422   0.23647   0.10803   0.00000  Uiso   1.00
O65    O     0.07941   0.17927   0.13800   0.00000  Uiso   1.00
N66    N     0.22687   0.31374   0.37721   0.00000  Uiso   1.00
O67    O     0.21459   0.35465   0.37438   0.00000  Uiso   1.00
O68    O     0.27460   0.30460   0.37507   0.00000  Uiso   1.00
C69    C     0.07158   0.23007   0.01732   0.00000  Uiso   1.00
N70    N     0.03224   0.22363   0.49327   0.00000  Uiso   1.00
C71    C     0.21513   0.32313   0.47520   0.00000  Uiso   1.00
N72    N     0.23333   0.35393   0.49613   0.00000  Uiso   1.00
O73    O     0.50000   0.18573   0.29071   0.00000  Uiso   1.00
O74    O     0.50000   0.31427   0.20928   0.00000  Uiso   1.00
O75    O     0.50000   0.18573   0.20928   0.00000  Uiso   1.00
O76    O     0.50000   0.31427   0.29072   0.00000  Uiso   1.00
C77    C     0.50187   0.16494   0.25035   0.00000  Uiso   1.00
C78    C     0.49827   0.33491   0.24957   0.00000  Uiso   1.00
O79    O     0.42495   0.24999   0.28132   0.00000  Uiso   1.00
O80    O     0.57505   0.25001   0.21868   0.00000  Uiso   1.00
O81    O     0.42495   0.25000   0.19988   0.00000  Uiso   1.00
O82    O     0.57505   0.25000   0.30011   0.00000  Uiso   1.00
C83    C     0.40132   0.24855   0.23771   0.00000  Uiso   1.00
C84    C     0.59868   0.24969   0.26242   0.00000  Uiso   1.00
Cu85   Cu    0.50000   0.24999   0.29821   0.00000  Uiso   1.00
Cu86   Cu    0.50000   0.25000   0.20178   0.00000  Uiso   1.00
C87    C     0.34597   0.24504   0.23145   0.00000  Uiso   1.00
C88    C     0.65411   0.25017   0.26928   0.00000  Uiso   1.00
H89    H     0.65921   0.23785   0.19560   0.00000  Uiso   1.00
H90    H     0.34096   0.25593   0.30552   0.00000  Uiso   1.00
C91    C     0.51078   0.04716   0.29591   0.00000  Uiso   1.00
C92    C     0.51869   0.45442   0.21689   0.00000  Uiso   1.00
H93    H     0.51997   0.02964   0.32968   0.00000  Uiso   1.00
H94    H     0.53702   0.47360   0.19058   0.00000  Uiso   1.00
C95    C     0.51440   0.09298   0.29542   0.00000  Uiso   1.00
C96    C     0.51643   0.40901   0.21357   0.00000  Uiso   1.00
C97    C     0.50399   0.11627   0.25101   0.00000  Uiso   1.00
C98    C     0.49491   0.38320   0.24886   0.00000  Uiso   1.00
C99    C     0.49353   0.09174   0.20736   0.00000  Uiso   1.00
C100   C     0.47148   0.40466   0.28472   0.00000  Uiso   1.00
C101   C     0.48803   0.04620   0.20932   0.00000  Uiso   1.00
C102   C     0.47379   0.45062   0.28677   0.00000  Uiso   1.00
H103   H     0.47833   0.02808   0.17586   0.00000  Uiso   1.00
H104   H     0.45518   0.46704   0.31348   0.00000  Uiso   1.00
C105   C     0.49735   0.02369   0.25307   0.00000  Uiso   1.00
C106   C     0.49722   0.47550   0.25293   0.00000  Uiso   1.00
C107   C     0.54359   0.26149   0.05858   0.00000  Uiso   1.00
C108   C     0.47449   0.21677   0.44292   0.00000  Uiso   1.00
H109   H     0.57939   0.26993   0.04452   0.00000  Uiso   1.00
H110   H     0.45537   0.18927   0.45902   0.00000  Uiso   1.00
C111   C     0.54252   0.26479   0.10856   0.00000  Uiso   1.00
C112   C     0.47214   0.21840   0.39242   0.00000  Uiso   1.00
N113   N     0.50000   0.25001   0.12934   0.00000  Uiso   1.00
N114   N     0.50000   0.24999   0.37065   0.00000  Uiso   1.00
C115   C     0.45622   0.23564   0.09859   0.00000  Uiso   1.00
C116   C     0.52772   0.28234   0.39855   0.00000  Uiso   1.00
C117   C     0.45408   0.23825   0.04754   0.00000  Uiso   1.00
C118   C     0.52562   0.28469   0.44889   0.00000  Uiso   1.00
C119   C     0.49898   0.24983   0.02667   0.00000  Uiso   1.00
C120   C     0.49991   0.25061   0.47232   0.00000  Uiso   1.00
C121   C     0.53239   0.11446   0.34095   0.00000  Uiso   1.00
N122   N     0.54704   0.13143   0.37749   0.00000  Uiso   1.00
C123   C     0.53440   0.39117   0.17163   0.00000  Uiso   1.00
N124   N     0.54821   0.37811   0.13711   0.00000  Uiso   1.00
N125   N     0.49162   0.11159   0.16049   0.00000  Uiso   1.00
O126   O     0.53296   0.13214   0.14890   0.00000  Uiso   1.00
O127   O     0.45578   0.09826   0.12598   0.00000  Uiso   1.00
N128   N     0.44190   0.38067   0.31683   0.00000  Uiso   1.00
O129   O     0.40812   0.34994   0.29995   0.00000  Uiso   1.00
O130   O     0.44159   0.39472   0.36061   0.00000  Uiso   1.00
C131   C     0.58618   0.28809   0.13536   0.00000  Uiso   1.00
N132   N     0.62148   0.30769   0.15571   0.00000  Uiso   1.00
C133   C     0.43841   0.18675   0.36420   0.00000  Uiso   1.00
N134   N     0.41098   0.16128   0.34180   0.00000  Uiso   1.00
N135   N     0.41149   0.21754   0.11723   0.00000  Uiso   1.00
O136   O     0.36756   0.23647   0.10803   0.00000  Uiso   1.00
O137   O     0.41274   0.17927   0.13800   0.00000  Uiso   1.00
N138   N     0.56020   0.31374   0.37721   0.00000  Uiso   1.00
O139   O     0.54792   0.35465   0.37438   0.00000  Uiso   1.00
O140   O     0.60794   0.30460   0.37507   0.00000  Uiso   1.00
C141   C     0.40491   0.23007   0.01732   0.00000  Uiso   1.00
N142   N     0.36557   0.22363   0.49327   0.00000  Uiso   1.00
C143   C     0.54846   0.32313   0.47520   0.00000  Uiso   1.00
N144   N     0.56667   0.35393   0.49613   0.00000  Uiso   1.00
O145   O     0.83334   0.18573   0.29071   0.00000  Uiso   1.00
O146   O     0.83333   0.31427   0.20928   0.00000  Uiso   1.00
O147   O     0.83334   0.18573   0.20928   0.00000  Uiso   1.00
O148   O     0.83333   0.31427   0.29072   0.00000  Uiso   1.00
C149   C     0.83520   0.16494   0.25035   0.00000  Uiso   1.00
C150   C     0.83161   0.33491   0.24957   0.00000  Uiso   1.00
O151   O     0.75828   0.24999   0.28132   0.00000  Uiso   1.00
O152   O     0.90839   0.25001   0.21868   0.00000  Uiso   1.00
O153   O     0.75828   0.25000   0.19988   0.00000  Uiso   1.00
O154   O     0.90839   0.25000   0.30011   0.00000  Uiso   1.00
C155   C     0.73466   0.24855   0.23771   0.00000  Uiso   1.00
C156   C     0.93202   0.24969   0.26242   0.00000  Uiso   1.00
Cu157  Cu    0.83333   0.24999   0.29821   0.00000  Uiso   1.00
Cu158  Cu    0.83333   0.25000   0.20178   0.00000  Uiso   1.00
C159   C     0.67930   0.24504   0.23145   0.00000  Uiso   1.00
C160   C     0.98744   0.25017   0.26928   0.00000  Uiso   1.00
H161   H     0.99254   0.23785   0.19560   0.00000  Uiso   1.00
H162   H     0.67429   0.25593   0.30552   0.00000  Uiso   1.00
C163   C     0.84411   0.04716   0.29591   0.00000  Uiso   1.00
C164   C     0.85203   0.45442   0.21689   0.00000  Uiso   1.00
H165   H     0.85330   0.02964   0.32968   0.00000  Uiso   1.00
H166   H     0.87035   0.47360   0.19058   0.00000  Uiso   1.00
C167   C     0.84773   0.09298   0.29542   0.00000  Uiso   1.00
C168   C     0.84977   0.40901   0.21357   0.00000  Uiso   1.00
C169   C     0.83732   0.11627   0.25101   0.00000  Uiso   1.00
C170   C     0.82824   0.38320   0.24886   0.00000  Uiso   1.00
C171   C     0.82687   0.09174   0.20736   0.00000  Uiso   1.00
C172   C     0.80481   0.40466   0.28472   0.00000  Uiso   1.00
C173   C     0.82136   0.04620   0.20932   0.00000  Uiso   1.00
C174   C     0.80713   0.45062   0.28677   0.00000  Uiso   1.00
H175   H     0.81166   0.02808   0.17586   0.00000  Uiso   1.00
H176   H     0.78851   0.46704   0.31348   0.00000  Uiso   1.00
C177   C     0.83069   0.02369   0.25307   0.00000  Uiso   1.00
C178   C     0.83055   0.47550   0.25293   0.00000  Uiso   1.00
C179   C     0.87693   0.26149   0.05858   0.00000  Uiso   1.00
C180   C     0.80782   0.21677   0.44292   0.00000  Uiso   1.00
H181   H     0.91272   0.26993   0.04452   0.00000  Uiso   1.00
H182   H     0.78870   0.18927   0.45902   0.00000  Uiso   1.00
C183   C     0.87586   0.26479   0.10856   0.00000  Uiso   1.00
C184   C     0.80547   0.21840   0.39242   0.00000  Uiso   1.00
N185   N     0.83333   0.25001   0.12934   0.00000  Uiso   1.00
N186   N     0.83333   0.24999   0.37065   0.00000  Uiso   1.00
C187   C     0.78956   0.23564   0.09859   0.00000  Uiso   1.00
C188   C     0.86106   0.28234   0.39855   0.00000  Uiso   1.00
C189   C     0.78742   0.23825   0.04754   0.00000  Uiso   1.00
C190   C     0.85896   0.28469   0.44889   0.00000  Uiso   1.00
C191   C     0.83231   0.24983   0.02667   0.00000  Uiso   1.00
C192   C     0.83325   0.25061   0.47232   0.00000  Uiso   1.00
C193   C     0.86572   0.11446   0.34095   0.00000  Uiso   1.00
N194   N     0.88037   0.13143   0.37749   0.00000  Uiso   1.00
C195   C     0.86774   0.39117   0.17163   0.00000  Uiso   1.00
N196   N     0.88154   0.37811   0.13711   0.00000  Uiso   1.00
N197   N     0.82496   0.11159   0.16049   0.00000  Uiso   1.00
O198   O     0.86629   0.13214   0.14890   0.00000  Uiso   1.00
O199   O     0.78912   0.09826   0.12598   0.00000  Uiso   1.00
N200   N     0.77523   0.38067   0.31683   0.00000  Uiso   1.00
O201   O     0.74145   0.34994   0.29995   0.00000  Uiso   1.00
O202   O     0.77493   0.39472   0.36061   0.00000  Uiso   1.00
C203   C     0.91951   0.28809   0.13536   0.00000  Uiso   1.00
N204   N     0.95481   0.30769   0.15571   0.00000  Uiso   1.00
C205   C     0.77175   0.18675   0.36420   0.00000  Uiso   1.00
N206   N     0.74431   0.16128   0.34180   0.00000  Uiso   1.00
N207   N     0.74482   0.21754   0.11723   0.00000  Uiso   1.00
O208   O     0.70089   0.23647   0.10803   0.00000  Uiso   1.00
O209   O     0.74608   0.17927   0.13800   0.00000  Uiso   1.00
N210   N     0.89354   0.31374   0.37721   0.00000  Uiso   1.00
O211   O     0.88126   0.35465   0.37438   0.00000  Uiso   1.00
O212   O     0.94127   0.30460   0.37507   0.00000  Uiso   1.00
C213   C     0.73824   0.23007   0.01732   0.00000  Uiso   1.00
N214   N     0.69890   0.22363   0.49327   0.00000  Uiso   1.00
C215   C     0.88179   0.32313   0.47520   0.00000  Uiso   1.00
N216   N     0.90000   0.35393   0.49613   0.00000  Uiso   1.00
O217   O     0.16667   0.68573   0.29071   0.00000  Uiso   1.00
O218   O     0.16666   0.81427   0.20928   0.00000  Uiso   1.00
O219   O     0.16667   0.68573   0.20928   0.00000  Uiso   1.00
O220   O     0.16666   0.81427   0.29072   0.00000  Uiso   1.00
C221   C     0.16854   0.66494   0.25035   0.00000  Uiso   1.00
C222   C     0.16494   0.83491   0.24957   0.00000  Uiso   1.00
O223   O     0.09161   0.74999   0.28132   0.00000  Uiso   1.00
O224   O     0.24172   0.75001   0.21868   0.00000  Uiso   1.00
O225   O     0.09161   0.75000   0.19988   0.00000  Uiso   1.00
O226   O     0.24172   0.75000   0.30011   0.00000  Uiso   1.00
C227   C     0.06799   0.74855   0.23771   0.00000  Uiso   1.00
C228   C     0.26535   0.74969   0.26242   0.00000  Uiso   1.00
Cu229  Cu    0.16667   0.74999   0.29821   0.00000  Uiso   1.00
Cu230  Cu    0.16667   0.75000   0.20178   0.00000  Uiso   1.00
C231   C     0.01263   0.74504   0.23145   0.00000  Uiso   1.00
C232   C     0.32078   0.75017   0.26928   0.00000  Uiso   1.00
H233   H     0.32587   0.73785   0.19560   0.00000  Uiso   1.00
H234   H     0.00763   0.75593   0.30552   0.00000  Uiso   1.00
C235   C     0.17744   0.54716   0.29591   0.00000  Uiso   1.00
C236   C     0.18536   0.95442   0.21689   0.00000  Uiso   1.00
H237   H     0.18663   0.52964   0.32968   0.00000  Uiso   1.00
H238   H     0.20368   0.97360   0.19058   0.00000  Uiso   1.00
C239   C     0.18106   0.59298   0.29542   0.00000  Uiso   1.00
C240   C     0.18310   0.90901   0.21357   0.00000  Uiso   1.00
C241   C     0.17066   0.61627   0.25101   0.00000  Uiso   1.00
C242   C     0.16157   0.88320   0.24886   0.00000  Uiso   1.00
C243   C     0.16020   0.59174   0.20736   0.00000  Uiso   1.00
C244   C     0.13814   0.90466   0.28472   0.00000  Uiso   1.00
C245   C     0.15470   0.54620   0.20932   0.00000  Uiso   1.00
C246   C     0.14046   0.95062   0.28677   0.00000  Uiso   1.00
H247   H     0.14499   0.52808   0.17586   0.00000  Uiso   1.00
H248   H     0.12185   0.96704   0.31348   0.00000  Uiso   1.00
C249   C     0.16402   0.52369   0.25307   0.00000  Uiso   1.00
C250   C     0.16388   0.97550   0.25293   0.00000  Uiso   1.00
C251   C     0.21026   0.76149   0.05858   0.00000  Uiso   1.00
C252   C     0.14116   0.71677   0.44292   0.00000  Uiso   1.00
H253   H     0.24605   0.76993   0.04452   0.00000  Uiso   1.00
H254   H     0.12204   0.68927   0.45902   0.00000  Uiso   1.00
C255   C     0.20919   0.76479   0.10856   0.00000  Uiso   1.00
C256   C     0.13881   0.71840   0.39242   0.00000  Uiso   1.00
N257   N     0.16667   0.75001   0.12934   0.00000  Uiso   1.00
N258   N     0.16667   0.74999   0.37065   0.00000  Uiso   1.00
C259   C     0.12289   0.73564   0.09859   0.00000  Uiso   1.00
C260   C     0.19439   0.78234   0.39855   0.00000  Uiso   1.00
C261   C     0.12075   0.73825   0.04754   0.00000  Uiso   1.00
C262   C     0.19229   0.78469   0.44889   0.00000  Uiso   1.00
C263   C     0.16564   0.74983   0.02667   0.00000  Uiso   1.00
C264   C     0.16658   0.75061   0.47232   0.00000  Uiso   1.00
C265   C     0.19906   0.61446   0.34095   0.00000  Uiso   1.00
N266   N     0.21371   0.63143   0.37749   0.00000  Uiso   1.00
C267   C     0.20107   0.89117   0.17163   0.00000  Uiso   1.00
N268   N     0.21488   0.87811   0.13711   0.00000  Uiso   1.00
N269   N     0.15829   0.61159   0.16049   0.00000  Uiso   1.00
O270   O     0.19962   0.63214   0.14890   0.00000  Uiso   1.00
O271   O     0.12245   0.59826   0.12598   0.00000  Uiso   1.00
N272   N     0.10857   0.88067   0.31683   0.00000  Uiso   1.00
O273   O     0.07479   0.84994   0.29995   0.00000  Uiso   1.00
O274   O     0.10826   0.89472   0.36061   0.00000  Uiso   1.00
C275   C     0.25284   0.78809   0.13536   0.00000  Uiso   1.00
N276   N     0.28815   0.80769   0.15571   0.00000  Uiso   1.00
C277   C     0.10508   0.68675   0.36420   0.00000  Uiso   1.00
N278   N     0.07764   0.66128   0.34180   0.00000  Uiso   1.00
N279   N     0.07815   0.71754   0.11723   0.00000  Uiso   1.00
O280   O     0.03422   0.73647   0.10803   0.00000  Uiso   1.00
O281   O     0.07941   0.67927   0.13800   0.00000  Uiso   1.00
N282   N     0.22687   0.81374   0.37721   0.00000  Uiso   1.00
O283   O     0.21459   0.85465   0.37438   0.00000  Uiso   1.00
O284   O     0.27460   0.80460   0.37507   0.00000  Uiso   1.00
C285   C     0.07158   0.73007   0.01732   0.00000  Uiso   1.00
N286   N     0.03224   0.72363   0.49327   0.00000  Uiso   1.00
C287   C     0.21513   0.82313   0.47520   0.00000  Uiso   1.00
N288   N     0.23333   0.85393   0.49613   0.00000  Uiso   1.00
O289   O     0.50000   0.68573   0.29071   0.00000  Uiso   1.00
O290   O     0.50000   0.81427   0.20928   0.00000  Uiso   1.00
O291   O     0.50000   0.68573   0.20928   0.00000  Uiso   1.00
O292   O     0.50000   0.81427   0.29072   0.00000  Uiso   1.00
C293   C     0.50187   0.66494   0.25035   0.00000  Uiso   1.00
C294   C     0.49827   0.83491   0.24957   0.00000  Uiso   1.00
O295   O     0.42495   0.74999   0.28132   0.00000  Uiso   1.00
O296   O     0.57505   0.75001   0.21868   0.00000  Uiso   1.00
O297   O     0.42495   0.75000   0.19988   0.00000  Uiso   1.00
O298   O     0.57505   0.75000   0.30011   0.00000  Uiso   1.00
C299   C     0.40132   0.74855   0.23771   0.00000  Uiso   1.00
C300   C     0.59868   0.74969   0.26242   0.00000  Uiso   1.00
Cu301  Cu    0.50000   0.74999   0.29821   0.00000  Uiso   1.00
Cu302  Cu    0.50000   0.75000   0.20178   0.00000  Uiso   1.00
C303   C     0.34597   0.74504   0.23145   0.00000  Uiso   1.00
C304   C     0.65411   0.75017   0.26928   0.00000  Uiso   1.00
H305   H     0.65921   0.73785   0.19560   0.00000  Uiso   1.00
H306   H     0.34096   0.75593   0.30552   0.00000  Uiso   1.00
C307   C     0.51078   0.54716   0.29591   0.00000  Uiso   1.00
C308   C     0.51869   0.95442   0.21689   0.00000  Uiso   1.00
H309   H     0.51997   0.52964   0.32968   0.00000  Uiso   1.00
H310   H     0.53702   0.97360   0.19058   0.00000  Uiso   1.00
C311   C     0.51440   0.59298   0.29542   0.00000  Uiso   1.00
C312   C     0.51643   0.90901   0.21357   0.00000  Uiso   1.00
C313   C     0.50399   0.61627   0.25101   0.00000  Uiso   1.00
C314   C     0.49491   0.88320   0.24886   0.00000  Uiso   1.00
C315   C     0.49353   0.59174   0.20736   0.00000  Uiso   1.00
C316   C     0.47148   0.90466   0.28472   0.00000  Uiso   1.00
C317   C     0.48803   0.54620   0.20932   0.00000  Uiso   1.00
C318   C     0.47379   0.95062   0.28677   0.00000  Uiso   1.00
H319   H     0.47833   0.52808   0.17586   0.00000  Uiso   1.00
H320   H     0.45518   0.96704   0.31348   0.00000  Uiso   1.00
C321   C     0.49735   0.52369   0.25307   0.00000  Uiso   1.00
C322   C     0.49722   0.97550   0.25293   0.00000  Uiso   1.00
C323   C     0.54359   0.76149   0.05858   0.00000  Uiso   1.00
C324   C     0.47449   0.71677   0.44292   0.00000  Uiso   1.00
H325   H     0.57939   0.76993   0.04452   0.00000  Uiso   1.00
H326   H     0.45537   0.68927   0.45902   0.00000  Uiso   1.00
C327   C     0.54252   0.76479   0.10856   0.00000  Uiso   1.00
C328   C     0.47214   0.71840   0.39242   0.00000  Uiso   1.00
N329   N     0.50000   0.75001   0.12934   0.00000  Uiso   1.00
N330   N     0.50000   0.74999   0.37065   0.00000  Uiso   1.00
C331   C     0.45622   0.73564   0.09859   0.00000  Uiso   1.00
C332   C     0.52772   0.78234   0.39855   0.00000  Uiso   1.00
C333   C     0.45408   0.73825   0.04754   0.00000  Uiso   1.00
C334   C     0.52562   0.78469   0.44889   0.00000  Uiso   1.00
C335   C     0.49898   0.74983   0.02667   0.00000  Uiso   1.00
C336   C     0.49991   0.75061   0.47232   0.00000  Uiso   1.00
C337   C     0.53239   0.61446   0.34095   0.00000  Uiso   1.00
N338   N     0.54704   0.63143   0.37749   0.00000  Uiso   1.00
C339   C     0.53440   0.89117   0.17163   0.00000  Uiso   1.00
N340   N     0.54821   0.87811   0.13711   0.00000  Uiso   1.00
N341   N     0.49162   0.61159   0.16049   0.00000  Uiso   1.00
O342   O     0.53296   0.63214   0.14890   0.00000  Uiso   1.00
O343   O     0.45578   0.59826   0.12598   0.00000  Uiso   1.00
N344   N     0.44190   0.88067   0.31683   0.00000  Uiso   1.00
O345   O     0.40812   0.84994   0.29995   0.00000  Uiso   1.00
O346   O     0.44159   0.89472   0.36061   0.00000  Uiso   1.00
C347   C     0.58618   0.78809   0.13536   0.00000  Uiso   1.00
N348   N     0.62148   0.80769   0.15571   0.00000  Uiso   1.00
C349   C     0.43841   0.68675   0.36420   0.00000  Uiso   1.00
N350   N     0.41098   0.66128   0.34180   0.00000  Uiso   1.00
N351   N     0.41149   0.71754   0.11723   0.00000  Uiso   1.00
O352   O     0.36756   0.73647   0.10803   0.00000  Uiso   1.00
O353   O     0.41274   0.67927   0.13800   0.00000  Uiso   1.00
N354   N     0.56020   0.81374   0.37721   0.00000  Uiso   1.00
O355   O     0.54792   0.85465   0.37438   0.00000  Uiso   1.00
O356   O     0.60794   0.80460   0.37507   0.00000  Uiso   1.00
C357   C     0.40491   0.73007   0.01732   0.00000  Uiso   1.00
N358   N     0.36557   0.72363   0.49327   0.00000  Uiso   1.00
C359   C     0.54846   0.82313   0.47520   0.00000  Uiso   1.00
N360   N     0.56667   0.85393   0.49613   0.00000  Uiso   1.00
O361   O     0.83334   0.68573   0.29071   0.00000  Uiso   1.00
O362   O     0.83333   0.81427   0.20928   0.00000  Uiso   1.00
O363   O     0.83334   0.68573   0.20928   0.00000  Uiso   1.00
O364   O     0.83333   0.81427   0.29072   0.00000  Uiso   1.00
C365   C     0.83520   0.66494   0.25035   0.00000  Uiso   1.00
C366   C     0.83161   0.83491   0.24957   0.00000  Uiso   1.00
O367   O     0.75828   0.74999   0.28132   0.00000  Uiso   1.00
O368   O     0.90839   0.75001   0.21868   0.00000  Uiso   1.00
O369   O     0.75828   0.75000   0.19988   0.00000  Uiso   1.00
O370   O     0.90839   0.75000   0.30011   0.00000  Uiso   1.00
C371   C     0.73466   0.74855   0.23771   0.00000  Uiso   1.00
C372   C     0.93202   0.74969   0.26242   0.00000  Uiso   1.00
Cu373  Cu    0.83333   0.74999   0.29821   0.00000  Uiso   1.00
Cu374  Cu    0.83333   0.75000   0.20178   0.00000  Uiso   1.00
C375   C     0.67930   0.74504   0.23145   0.00000  Uiso   1.00
C376   C     0.98744   0.75017   0.26928   0.00000  Uiso   1.00
H377   H     0.99254   0.73785   0.19560   0.00000  Uiso   1.00
H378   H     0.67429   0.75593   0.30552   0.00000  Uiso   1.00
C379   C     0.84411   0.54716   0.29591   0.00000  Uiso   1.00
C380   C     0.85203   0.95442   0.21689   0.00000  Uiso   1.00
H381   H     0.85330   0.52964   0.32968   0.00000  Uiso   1.00
H382   H     0.87035   0.97360   0.19058   0.00000  Uiso   1.00
C383   C     0.84773   0.59298   0.29542   0.00000  Uiso   1.00
C384   C     0.84977   0.90901   0.21357   0.00000  Uiso   1.00
C385   C     0.83732   0.61627   0.25101   0.00000  Uiso   1.00
C386   C     0.82824   0.88320   0.24886   0.00000  Uiso   1.00
C387   C     0.82687   0.59174   0.20736   0.00000  Uiso   1.00
C388   C     0.80481   0.90466   0.28472   0.00000  Uiso   1.00
C389   C     0.82136   0.54620   0.20932   0.00000  Uiso   1.00
C390   C     0.80713   0.95062   0.28677   0.00000  Uiso   1.00
H391   H     0.81166   0.52808   0.17586   0.00000  Uiso   1.00
H392   H     0.78851   0.96704   0.31348   0.00000  Uiso   1.00
C393   C     0.83069   0.52369   0.25307   0.00000  Uiso   1.00
C394   C     0.83055   0.97550   0.25293   0.00000  Uiso   1.00
C395   C     0.87693   0.76149   0.05858   0.00000  Uiso   1.00
C396   C     0.80782   0.71677   0.44292   0.00000  Uiso   1.00
H397   H     0.91272   0.76993   0.04452   0.00000  Uiso   1.00
H398   H     0.78870   0.68927   0.45902   0.00000  Uiso   1.00
C399   C     0.87586   0.76479   0.10856   0.00000  Uiso   1.00
C400   C     0.80547   0.71840   0.39242   0.00000  Uiso   1.00
N401   N     0.83333   0.75001   0.12934   0.00000  Uiso   1.00
N402   N     0.83333   0.74999   0.37065   0.00000  Uiso   1.00
C403   C     0.78956   0.73564   0.09859   0.00000  Uiso   1.00
C404   C     0.86106   0.78234   0.39855   0.00000  Uiso   1.00
C405   C     0.78742   0.73825   0.04754   0.00000  Uiso   1.00
C406   C     0.85896   0.78469   0.44889   0.00000  Uiso   1.00
C407   C     0.83231   0.74983   0.02667   0.00000  Uiso   1.00
C408   C     0.83325   0.75061   0.47232   0.00000  Uiso   1.00
C409   C     0.86572   0.61446   0.34095   0.00000  Uiso   1.00
N410   N     0.88037   0.63143   0.37749   0.00000  Uiso   1.00
C411   C     0.86774   0.89117   0.17163   0.00000  Uiso   1.00
N412   N     0.88154   0.87811   0.13711   0.00000  Uiso   1.00
N413   N     0.82496   0.61159   0.16049   0.00000  Uiso   1.00
O414   O     0.86629   0.63214   0.14890   0.00000  Uiso   1.00
O415   O     0.78912   0.59826   0.12598   0.00000  Uiso   1.00
N416   N     0.77523   0.88067   0.31683   0.00000  Uiso   1.00
O417   O     0.74145   0.84994   0.29995   0.00000  Uiso   1.00
O418   O     0.77493   0.89472   0.36061   0.00000  Uiso   1.00
C419   C     0.91951   0.78809   0.13536   0.00000  Uiso   1.00
N420   N     0.95481   0.80769   0.15571   0.00000  Uiso   1.00
C421   C     0.77175   0.68675   0.36420   0.00000  Uiso   1.00
N422   N     0.74431   0.66128   0.34180   0.00000  Uiso   1.00
N423   N     0.74482   0.71754   0.11723   0.00000  Uiso   1.00
O424   O     0.70089   0.73647   0.10803   0.00000  Uiso   1.00
O425   O     0.74608   0.67927   0.13800   0.00000  Uiso   1.00
N426   N     0.89354   0.81374   0.37721   0.00000  Uiso   1.00
O427   O     0.88126   0.85465   0.37438   0.00000  Uiso   1.00
O428   O     0.94127   0.80460   0.37507   0.00000  Uiso   1.00
C429   C     0.73824   0.73007   0.01732   0.00000  Uiso   1.00
N430   N     0.69890   0.72363   0.49327   0.00000  Uiso   1.00
C431   C     0.88179   0.82313   0.47520   0.00000  Uiso   1.00
N432   N     0.90000   0.85393   0.49613   0.00000  Uiso   1.00
O433   O     0.16667   0.18573   0.79071   0.00000  Uiso   1.00
O434   O     0.16666   0.31427   0.70928   0.00000  Uiso   1.00
O435   O     0.16667   0.18573   0.70928   0.00000  Uiso   1.00
O436   O     0.16666   0.31427   0.79072   0.00000  Uiso   1.00
C437   C     0.16854   0.16494   0.75035   0.00000  Uiso   1.00
C438   C     0.16494   0.33491   0.74957   0.00000  Uiso   1.00
O439   O     0.09161   0.24999   0.78132   0.00000  Uiso   1.00
O440   O     0.24172   0.25001   0.71868   0.00000  Uiso   1.00
O441   O     0.09161   0.25000   0.69988   0.00000  Uiso   1.00
O442   O     0.24172   0.25000   0.80011   0.00000  Uiso   1.00
C443   C     0.06799   0.24855   0.73771   0.00000  Uiso   1.00
C444   C     0.26535   0.24969   0.76242   0.00000  Uiso   1.00
Cu445  Cu    0.16667   0.24999   0.79821   0.00000  Uiso   1.00
Cu446  Cu    0.16667   0.25000   0.70178   0.00000  Uiso   1.00
C447   C     0.01263   0.24504   0.73145   0.00000  Uiso   1.00
C448   C     0.32078   0.25017   0.76928   0.00000  Uiso   1.00
H449   H     0.32587   0.23785   0.69560   0.00000  Uiso   1.00
H450   H     0.00763   0.25593   0.80552   0.00000  Uiso   1.00
C451   C     0.17744   0.04716   0.79591   0.00000  Uiso   1.00
C452   C     0.18536   0.45442   0.71689   0.00000  Uiso   1.00
H453   H     0.18663   0.02964   0.82968   0.00000  Uiso   1.00
H454   H     0.20368   0.47360   0.69058   0.00000  Uiso   1.00
C455   C     0.18106   0.09298   0.79542   0.00000  Uiso   1.00
C456   C     0.18310   0.40901   0.71357   0.00000  Uiso   1.00
C457   C     0.17066   0.11627   0.75101   0.00000  Uiso   1.00
C458   C     0.16157   0.38320   0.74886   0.00000  Uiso   1.00
C459   C     0.16020   0.09174   0.70736   0.00000  Uiso   1.00
C460   C     0.13814   0.40466   0.78472   0.00000  Uiso   1.00
C461   C     0.15470   0.04620   0.70932   0.00000  Uiso   1.00
C462   C     0.14046   0.45062   0.78677   0.00000  Uiso   1.00
H463   H     0.14499   0.02808   0.67586   0.00000  Uiso   1.00
H464   H     0.12185   0.46704   0.81348   0.00000  Uiso   1.00
C465   C     0.16402   0.02369   0.75307   0.00000  Uiso   1.00
C466   C     0.16388   0.47550   0.75293   0.00000  Uiso   1.00
C467   C     0.21026   0.26149   0.55858   0.00000  Uiso   1.00
C468   C     0.14116   0.21677   0.94292   0.00000  Uiso   1.00
H469   H     0.24605   0.26993   0.54452   0.00000  Uiso   1.00
H470   H     0.12204   0.18927   0.95902   0.00000  Uiso   1.00
C471   C     0.20919   0.26479   0.60856   0.00000  Uiso   1.00
C472   C     0.13881   0.21840   0.89242   0.00000  Uiso   1.00
N473   N     0.16667   0.25001   0.62934   0.00000  Uiso   1.00
N474   N     0.16667   0.24999   0.87065   0.00000  Uiso   1.00
C475   C     0.12289   0.23564   0.59859   0.00000  Uiso   1.00
C476   C     0.19439   0.28234   0.89855   0.00000  Uiso   1.00
C477   C     0.12075   0.23825   0.54754   0.00000  Uiso   1.00
C478   C     0.19229   0.28469   0.94889   0.00000  Uiso   1.00
C479   C     0.16564   0.24983   0.52667   0.00000  Uiso   1.00
C480   C     0.16658   0.25061   0.97232   0.00000  Uiso   1.00
C481   C     0.19906   0.11446   0.84095   0.00000  Uiso   1.00
N482   N     0.21371   0.13143   0.87749   0.00000  Uiso   1.00
C483   C     0.20107   0.39117   0.67163   0.00000  Uiso   1.00
N484   N     0.21488   0.37811   0.63711   0.00000  Uiso   1.00
N485   N     0.15829   0.11159   0.66049   0.00000  Uiso   1.00
O486   O     0.19962   0.13214   0.64890   0.00000  Uiso   1.00
O487   O     0.12245   0.09826   0.62598   0.00000  Uiso   1.00
N488   N     0.10857   0.38067   0.81683   0.00000  Uiso   1.00
O489   O     0.07479   0.34994   0.79995   0.00000  Uiso   1.00
O490   O     0.10826   0.39472   0.86061   0.00000  Uiso   1.00
C491   C     0.25284   0.28809   0.63536   0.00000  Uiso   1.00
N492   N     0.28815   0.30769   0.65571   0.00000  Uiso   1.00
C493   C     0.10508   0.18675   0.86420   0.00000  Uiso   1.00
N494   N     0.07764   0.16128   0.84180   0.00000  Uiso   1.00
N495   N     0.07815   0.21754   0.61723   0.00000  Uiso   1.00
O496   O     0.03422   0.23647   0.60803   0.00000  Uiso   1.00
O497   O     0.07941   0.17927   0.63800   0.00000  Uiso   1.00
N498   N     0.22687   0.31374   0.87721   0.00000  Uiso   1.00
O499   O     0.21459   0.35465   0.87438   0.00000  Uiso   1.00
O500   O     0.27460   0.30460   0.87507   0.00000  Uiso   1.00
C501   C     0.07158   0.23007   0.51732   0.00000  Uiso   1.00
N502   N     0.03224   0.22363   0.99327   0.00000  Uiso   1.00
C503   C     0.21513   0.32313   0.97520   0.00000  Uiso   1.00
N504   N     0.23333   0.35393   0.99613   0.00000  Uiso   1.00
O505   O     0.50000   0.18573   0.79071   0.00000  Uiso   1.00
O506   O     0.50000   0.31427   0.70928   0.00000  Uiso   1.00
O507   O     0.50000   0.18573   0.70928   0.00000  Uiso   1.00
O508   O     0.50000   0.31427   0.79072   0.00000  Uiso   1.00
C509   C     0.50187   0.16494   0.75035   0.00000  Uiso   1.00
C510   C     0.49827   0.33491   0.74957   0.00000  Uiso   1.00
O511   O     0.42495   0.24999   0.78132   0.00000  Uiso   1.00
O512   O     0.57505   0.25001   0.71868   0.00000  Uiso   1.00
O513   O     0.42495   0.25000   0.69988   0.00000  Uiso   1.00
O514   O     0.57505   0.25000   0.80011   0.00000  Uiso   1.00
C515   C     0.40132   0.24855   0.73771   0.00000  Uiso   1.00
C516   C     0.59868   0.24969   0.76242   0.00000  Uiso   1.00
Cu517  Cu    0.50000   0.24999   0.79821   0.00000  Uiso   1.00
Cu518  Cu    0.50000   0.25000   0.70178   0.00000  Uiso   1.00
C519   C     0.34597   0.24504   0.73145   0.00000  Uiso   1.00
C520   C     0.65411   0.25017   0.76928   0.00000  Uiso   1.00
H521   H     0.65921   0.23785   0.69560   0.00000  Uiso   1.00
H522   H     0.34096   0.25593   0.80552   0.00000  Uiso   1.00
C523   C     0.51078   0.04716   0.79591   0.00000  Uiso   1.00
C524   C     0.51869   0.45442   0.71689   0.00000  Uiso   1.00
H525   H     0.51997   0.02964   0.82968   0.00000  Uiso   1.00
H526   H     0.53702   0.47360   0.69058   0.00000  Uiso   1.00
C527   C     0.51440   0.09298   0.79542   0.00000  Uiso   1.00
C528   C     0.51643   0.40901   0.71357   0.00000  Uiso   1.00
C529   C     0.50399   0.11627   0.75101   0.00000  Uiso   1.00
C530   C     0.49491   0.38320   0.74886   0.00000  Uiso   1.00
C531   C     0.49353   0.09174   0.70736   0.00000  Uiso   1.00
C532   C     0.47148   0.40466   0.78472   0.00000  Uiso   1.00
C533   C     0.48803   0.04620   0.70932   0.00000  Uiso   1.00
C534   C     0.47379   0.45062   0.78677   0.00000  Uiso   1.00
H535   H     0.47833   0.02808   0.67586   0.00000  Uiso   1.00
H536   H     0.45518   0.46704   0.81348   0.00000  Uiso   1.00
C537   C     0.49735   0.02369   0.75307   0.00000  Uiso   1.00
C538   C     0.49722   0.47550   0.75293   0.00000  Uiso   1.00
C539   C     0.54359   0.26149   0.55858   0.00000  Uiso   1.00
C540   C     0.47449   0.21677   0.94292   0.00000  Uiso   1.00
H541   H     0.57939   0.26993   0.54452   0.00000  Uiso   1.00
H542   H     0.45537   0.18927   0.95902   0.00000  Uiso   1.00
C543   C     0.54252   0.26479   0.60856   0.00000  Uiso   1.00
C544   C     0.47214   0.21840   0.89242   0.00000  Uiso   1.00
N545   N     0.50000   0.25001   0.62934   0.00000  Uiso   1.00
N546   N     0.50000   0.24999   0.87065   0.00000  Uiso   1.00
C547   C     0.45622   0.23564   0.59859   0.00000  Uiso   1.00
C548   C     0.52772   0.28234   0.89855   0.00000  Uiso   1.00
C549   C     0.45408   0.23825   0.54754   0.00000  Uiso   1.00
C550   C     0.52562   0.28469   0.94889   0.00000  Uiso   1.00
C551   C     0.49898   0.24983   0.52667   0.00000  Uiso   1.00
C552   C     0.49991   0.25061   0.97232   0.00000  Uiso   1.00
C553   C     0.53239   0.11446   0.84095   0.00000  Uiso   1.00
N554   N     0.54704   0.13143   0.87749   0.00000  Uiso   1.00
C555   C     0.53440   0.39117   0.67163   0.00000  Uiso   1.00
N556   N     0.54821   0.37811   0.63711   0.00000  Uiso   1.00
N557   N     0.49162   0.11159   0.66049   0.00000  Uiso   1.00
O558   O     0.53296   0.13214   0.64890   0.00000  Uiso   1.00
O559   O     0.45578   0.09826   0.62598   0.00000  Uiso   1.00
N560   N     0.44190   0.38067   0.81683   0.00000  Uiso   1.00
O561   O     0.40812   0.34994   0.79995   0.00000  Uiso   1.00
O562   O     0.44159   0.39472   0.86061   0.00000  Uiso   1.00
C563   C     0.58618   0.28809   0.63536   0.00000  Uiso   1.00
N564   N     0.62148   0.30769   0.65571   0.00000  Uiso   1.00
C565   C     0.43841   0.18675   0.86420   0.00000  Uiso   1.00
N566   N     0.41098   0.16128   0.84180   0.00000  Uiso   1.00
N567   N     0.41149   0.21754   0.61723   0.00000  Uiso   1.00
O568   O     0.36756   0.23647   0.60803   0.00000  Uiso   1.00
O569   O     0.41274   0.17927   0.63800   0.00000  Uiso   1.00
N570   N     0.56020   0.31374   0.87721   0.00000  Uiso   1.00
O571   O     0.54792   0.35465   0.87438   0.00000  Uiso   1.00
O572   O     0.60794   0.30460   0.87507   0.00000  Uiso   1.00
C573   C     0.40491   0.23007   0.51732   0.00000  Uiso   1.00
N574   N     0.36557   0.22363   0.99327   0.00000  Uiso   1.00
C575   C     0.54846   0.32313   0.97520   0.00000  Uiso   1.00
N576   N     0.56667   0.35393   0.99613   0.00000  Uiso   1.00
O577   O     0.83334   0.18573   0.79071   0.00000  Uiso   1.00
O578   O     0.83333   0.31427   0.70928   0.00000  Uiso   1.00
O579   O     0.83334   0.18573   0.70928   0.00000  Uiso   1.00
O580   O     0.83333   0.31427   0.79072   0.00000  Uiso   1.00
C581   C     0.83520   0.16494   0.75035   0.00000  Uiso   1.00
C582   C     0.83161   0.33491   0.74957   0.00000  Uiso   1.00
O583   O     0.75828   0.24999   0.78132   0.00000  Uiso   1.00
O584   O     0.90839   0.25001   0.71868   0.00000  Uiso   1.00
O585   O     0.75828   0.25000   0.69988   0.00000  Uiso   1.00
O586   O     0.90839   0.25000   0.80011   0.00000  Uiso   1.00
C587   C     0.73466   0.24855   0.73771   0.00000  Uiso   1.00
C588   C     0.93202   0.24969   0.76242   0.00000  Uiso   1.00
Cu589  Cu    0.83333   0.24999   0.79821   0.00000  Uiso   1.00
Cu590  Cu    0.83333   0.25000   0.70178   0.00000  Uiso   1.00
C591   C     0.67930   0.24504   0.73145   0.00000  Uiso   1.00
C592   C     0.98744   0.25017   0.76928   0.00000  Uiso   1.00
H593   H     0.99254   0.23785   0.69560   0.00000  Uiso   1.00
H594   H     0.67429   0.25593   0.80552   0.00000  Uiso   1.00
C595   C     0.84411   0.04716   0.79591   0.00000  Uiso   1.00
C596   C     0.85203   0.45442   0.71689   0.00000  Uiso   1.00
H597   H     0.85330   0.02964   0.82968   0.00000  Uiso   1.00
H598   H     0.87035   0.47360   0.69058   0.00000  Uiso   1.00
C599   C     0.84773   0.09298   0.79542   0.00000  Uiso   1.00
C600   C     0.84977   0.40901   0.71357   0.00000  Uiso   1.00
C601   C     0.83732   0.11627   0.75101   0.00000  Uiso   1.00
C602   C     0.82824   0.38320   0.74886   0.00000  Uiso   1.00
C603   C     0.82687   0.09174   0.70736   0.00000  Uiso   1.00
C604   C     0.80481   0.40466   0.78472   0.00000  Uiso   1.00
C605   C     0.82136   0.04620   0.70932   0.00000  Uiso   1.00
C606   C     0.80713   0.45062   0.78677   0.00000  Uiso   1.00
H607   H     0.81166   0.02808   0.67586   0.00000  Uiso   1.00
H608   H     0.78851   0.46704   0.81348   0.00000  Uiso   1.00
C609   C     0.83069   0.02369   0.75307   0.00000  Uiso   1.00
C610   C     0.83055   0.47550   0.75293   0.00000  Uiso   1.00
C611   C     0.87693   0.26149   0.55858   0.00000  Uiso   1.00
C612   C     0.80782   0.21677   0.94292   0.00000  Uiso   1.00
H613   H     0.91272   0.26993   0.54452   0.00000  Uiso   1.00
H614   H     0.78870   0.18927   0.95902   0.00000  Uiso   1.00
C615   C     0.87586   0.26479   0.60856   0.00000  Uiso   1.00
C616   C     0.80547   0.21840   0.89242   0.00000  Uiso   1.00
N617   N     0.83333   0.25001   0.62934   0.00000  Uiso   1.00
N618   N     0.83333   0.24999   0.87065   0.00000  Uiso   1.00
C619   C     0.78956   0.23564   0.59859   0.00000  Uiso   1.00
C620   C     0.86106   0.28234   0.89855   0.00000  Uiso   1.00
C621   C     0.78742   0.23825   0.54754   0.00000  Uiso   1.00
C622   C     0.85896   0.28469   0.94889   0.00000  Uiso   1.00
C623   C     0.83231   0.24983   0.52667   0.00000  Uiso   1.00
C624   C     0.83325   0.25061   0.97232   0.00000  Uiso   1.00
C625   C     0.86572   0.11446   0.84095   0.00000  Uiso   1.00
N626   N     0.88037   0.13143   0.87749   0.00000  Uiso   1.00
C627   C     0.86774   0.39117   0.67163   0.00000  Uiso   1.00
N628   N     0.88154   0.37811   0.63711   0.00000  Uiso   1.00
N629   N     0.82496   0.11159   0.66049   0.00000  Uiso   1.00
O630   O     0.86629   0.13214   0.64890   0.00000  Uiso   1.00
O631   O     0.78912   0.09826   0.62598   0.00000  Uiso   1.00
N632   N     0.77523   0.38067   0.81683   0.00000  Uiso   1.00
O633   O     0.74145   0.34994   0.79995   0.00000  Uiso   1.00
O634   O     0.77493   0.39472   0.86061   0.00000  Uiso   1.00
C635   C     0.91951   0.28809   0.63536   0.00000  Uiso   1.00
N636   N     0.95481   0.30769   0.65571   0.00000  Uiso   1.00
C637   C     0.77175   0.18675   0.86420   0.00000  Uiso   1.00
N638   N     0.74431   0.16128   0.84180   0.00000  Uiso   1.00
N639   N     0.74482   0.21754   0.61723   0.00000  Uiso   1.00
O640   O     0.70089   0.23647   0.60803   0.00000  Uiso   1.00
O641   O     0.74608   0.17927   0.63800   0.00000  Uiso   1.00
N642   N     0.89354   0.31374   0.87721   0.00000  Uiso   1.00
O643   O     0.88126   0.35465   0.87438   0.00000  Uiso   1.00
O644   O     0.94127   0.30460   0.87507   0.00000  Uiso   1.00
C645   C     0.73824   0.23007   0.51732   0.00000  Uiso   1.00
N646   N     0.69890   0.22363   0.99327   0.00000  Uiso   1.00
C647   C     0.88179   0.32313   0.97520   0.00000  Uiso   1.00
N648   N     0.90000   0.35393   0.99613   0.00000  Uiso   1.00
O649   O     0.16667   0.68573   0.79071   0.00000  Uiso   1.00
O650   O     0.16666   0.81427   0.70928   0.00000  Uiso   1.00
O651   O     0.16667   0.68573   0.70928   0.00000  Uiso   1.00
O652   O     0.16666   0.81427   0.79072   0.00000  Uiso   1.00
C653   C     0.16854   0.66494   0.75035   0.00000  Uiso   1.00
C654   C     0.16494   0.83491   0.74957   0.00000  Uiso   1.00
O655   O     0.09161   0.74999   0.78132   0.00000  Uiso   1.00
O656   O     0.24172   0.75001   0.71868   0.00000  Uiso   1.00
O657   O     0.09161   0.75000   0.69988   0.00000  Uiso   1.00
O658   O     0.24172   0.75000   0.80011   0.00000  Uiso   1.00
C659   C     0.06799   0.74855   0.73771   0.00000  Uiso   1.00
C660   C     0.26535   0.74969   0.76242   0.00000  Uiso   1.00
Cu661  Cu    0.16667   0.74999   0.79821   0.00000  Uiso   1.00
Cu662  Cu    0.16667   0.75000   0.70178   0.00000  Uiso   1.00
C663   C     0.01263   0.74504   0.73145   0.00000  Uiso   1.00
C664   C     0.32078   0.75017   0.76928   0.00000  Uiso   1.00
H665   H     0.32587   0.73785   0.69560   0.00000  Uiso   1.00
H666   H     0.00763   0.75593   0.80552   0.00000  Uiso   1.00
C667   C     0.17744   0.54716   0.79591   0.00000  Uiso   1.00
C668   C     0.18536   0.95442   0.71689   0.00000  Uiso   1.00
H669   H     0.18663   0.52964   0.82968   0.00000  Uiso   1.00
H670   H     0.20368   0.97360   0.69058   0.00000  Uiso   1.00
C671   C     0.18106   0.59298   0.79542   0.00000  Uiso   1.00
C672   C     0.18310   0.90901   0.71357   0.00000  Uiso   1.00
C673   C     0.17066   0.61627   0.75101   0.00000  Uiso   1.00
C674   C     0.16157   0.88320   0.74886   0.00000  Uiso   1.00
C675   C     0.16020   0.59174   0.70736   0.00000  Uiso   1.00
C676   C     0.13814   0.90466   0.78472   0.00000  Uiso   1.00
C677   C     0.15470   0.54620   0.70932   0.00000  Uiso   1.00
C678   C     0.14046   0.95062   0.78677   0.00000  Uiso   1.00
H679   H     0.14499   0.52808   0.67586   0.00000  Uiso   1.00
H680   H     0.12185   0.96704   0.81348   0.00000  Uiso   1.00
C681   C     0.16402   0.52369   0.75307   0.00000  Uiso   1.00
C682   C     0.16388   0.97550   0.75293   0.00000  Uiso   1.00
C683   C     0.21026   0.76149   0.55858   0.00000  Uiso   1.00
C684   C     0.14116   0.71677   0.94292   0.00000  Uiso   1.00
H685   H     0.24605   0.76993   0.54452   0.00000  Uiso   1.00
H686   H     0.12204   0.68927   0.95902   0.00000  Uiso   1.00
C687   C     0.20919   0.76479   0.60856   0.00000  Uiso   1.00
C688   C     0.13881   0.71840   0.89242   0.00000  Uiso   1.00
N689   N     0.16667   0.75001   0.62934   0.00000  Uiso   1.00
N690   N     0.16667   0.74999   0.87065   0.00000  Uiso   1.00
C691   C     0.12289   0.73564   0.59859   0.00000  Uiso   1.00
C692   C     0.19439   0.78234   0.89855   0.00000  Uiso   1.00
C693   C     0.12075   0.73825   0.54754   0.00000  Uiso   1.00
C694   C     0.19229   0.78469   0.94889   0.00000  Uiso   1.00
C695   C     0.16564   0.74983   0.52667   0.00000  Uiso   1.00
C696   C     0.16658   0.75061   0.97232   0.00000  Uiso   1.00
C697   C     0.19906   0.61446   0.84095   0.00000  Uiso   1.00
N698   N     0.21371   0.63143   0.87749   0.00000  Uiso   1.00
C699   C     0.20107   0.89117   0.67163   0.00000  Uiso   1.00
N700   N     0.21488   0.87811   0.63711   0.00000  Uiso   1.00
N701   N     0.15829   0.61159   0.66049   0.00000  Uiso   1.00
O702   O     0.19962   0.63214   0.64890   0.00000  Uiso   1.00
O703   O     0.12245   0.59826   0.62598   0.00000  Uiso   1.00
N704   N     0.10857   0.88067   0.81683   0.00000  Uiso   1.00
O705   O     0.07479   0.84994   0.79995   0.00000  Uiso   1.00
O706   O     0.10826   0.89472   0.86061   0.00000  Uiso   1.00
C707   C     0.25284   0.78809   0.63536   0.00000  Uiso   1.00
N708   N     0.28815   0.80769   0.65571   0.00000  Uiso   1.00
C709   C     0.10508   0.68675   0.86420   0.00000  Uiso   1.00
N710   N     0.07764   0.66128   0.84180   0.00000  Uiso   1.00
N711   N     0.07815   0.71754   0.61723   0.00000  Uiso   1.00
O712   O     0.03422   0.73647   0.60803   0.00000  Uiso   1.00
O713   O     0.07941   0.67927   0.63800   0.00000  Uiso   1.00
N714   N     0.22687   0.81374   0.87721   0.00000  Uiso   1.00
O715   O     0.21459   0.85465   0.87438   0.00000  Uiso   1.00
O716   O     0.27460   0.80460   0.87507   0.00000  Uiso   1.00
C717   C     0.07158   0.73007   0.51732   0.00000  Uiso   1.00
N718   N     0.03224   0.72363   0.99327   0.00000  Uiso   1.00
C719   C     0.21513   0.82313   0.97520   0.00000  Uiso   1.00
N720   N     0.23333   0.85393   0.99613   0.00000  Uiso   1.00
O721   O     0.50000   0.68573   0.79071   0.00000  Uiso   1.00
O722   O     0.50000   0.81427   0.70928   0.00000  Uiso   1.00
O723   O     0.50000   0.68573   0.70928   0.00000  Uiso   1.00
O724   O     0.50000   0.81427   0.79072   0.00000  Uiso   1.00
C725   C     0.50187   0.66494   0.75035   0.00000  Uiso   1.00
C726   C     0.49827   0.83491   0.74957   0.00000  Uiso   1.00
O727   O     0.42495   0.74999   0.78132   0.00000  Uiso   1.00
O728   O     0.57505   0.75001   0.71868   0.00000  Uiso   1.00
O729   O     0.42495   0.75000   0.69988   0.00000  Uiso   1.00
O730   O     0.57505   0.75000   0.80011   0.00000  Uiso   1.00
C731   C     0.40132   0.74855   0.73771   0.00000  Uiso   1.00
C732   C     0.59868   0.74969   0.76242   0.00000  Uiso   1.00
Cu733  Cu    0.50000   0.74999   0.79821   0.00000  Uiso   1.00
Cu734  Cu    0.50000   0.75000   0.70178   0.00000  Uiso   1.00
C735   C     0.34597   0.74504   0.73145   0.00000  Uiso   1.00
C736   C     0.65411   0.75017   0.76928   0.00000  Uiso   1.00
H737   H     0.65921   0.73785   0.69560   0.00000  Uiso   1.00
H738   H     0.34096   0.75593   0.80552   0.00000  Uiso   1.00
C739   C     0.51078   0.54716   0.79591   0.00000  Uiso   1.00
C740   C     0.51869   0.95442   0.71689   0.00000  Uiso   1.00
H741   H     0.51997   0.52964   0.82968   0.00000  Uiso   1.00
H742   H     0.53702   0.97360   0.69058   0.00000  Uiso   1.00
C743   C     0.51440   0.59298   0.79542   0.00000  Uiso   1.00
C744   C     0.51643   0.90901   0.71357   0.00000  Uiso   1.00
C745   C     0.50399   0.61627   0.75101   0.00000  Uiso   1.00
C746   C     0.49491   0.88320   0.74886   0.00000  Uiso   1.00
C747   C     0.49353   0.59174   0.70736   0.00000  Uiso   1.00
C748   C     0.47148   0.90466   0.78472   0.00000  Uiso   1.00
C749   C     0.48803   0.54620   0.70932   0.00000  Uiso   1.00
C750   C     0.47379   0.95062   0.78677   0.00000  Uiso   1.00
H751   H     0.47833   0.52808   0.67586   0.00000  Uiso   1.00
H752   H     0.45518   0.96704   0.81348   0.00000  Uiso   1.00
C753   C     0.49735   0.52369   0.75307   0.00000  Uiso   1.00
C754   C     0.49722   0.97550   0.75293   0.00000  Uiso   1.00
C755   C     0.54359   0.76149   0.55858   0.00000  Uiso   1.00
C756   C     0.47449   0.71677   0.94292   0.00000  Uiso   1.00
H757   H     0.57939   0.76993   0.54452   0.00000  Uiso   1.00
H758   H     0.45537   0.68927   0.95902   0.00000  Uiso   1.00
C759   C     0.54252   0.76479   0.60856   0.00000  Uiso   1.00
C760   C     0.47214   0.71840   0.89242   0.00000  Uiso   1.00
N761   N     0.50000   0.75001   0.62934   0.00000  Uiso   1.00
N762   N     0.50000   0.74999   0.87065   0.00000  Uiso   1.00
C763   C     0.45622   0.73564   0.59859   0.00000  Uiso   1.00
C764   C     0.52772   0.78234   0.89855   0.00000  Uiso   1.00
C765   C     0.45408   0.73825   0.54754   0.00000  Uiso   1.00
C766   C     0.52562   0.78469   0.94889   0.00000  Uiso   1.00
C767   C     0.49898   0.74983   0.52667   0.00000  Uiso   1.00
C768   C     0.49991   0.75061   0.97232   0.00000  Uiso   1.00
C769   C     0.53239   0.61446   0.84095   0.00000  Uiso   1.00
N770   N     0.54704   0.63143   0.87749   0.00000  Uiso   1.00
C771   C     0.53440   0.89117   0.67163   0.00000  Uiso   1.00
N772   N     0.54821   0.87811   0.63711   0.00000  Uiso   1.00
N773   N     0.49162   0.61159   0.66049   0.00000  Uiso   1.00
O774   O     0.53296   0.63214   0.64890   0.00000  Uiso   1.00
O775   O     0.45578   0.59826   0.62598   0.00000  Uiso   1.00
N776   N     0.44190   0.88067   0.81683   0.00000  Uiso   1.00
O777   O     0.40812   0.84994   0.79995   0.00000  Uiso   1.00
O778   O     0.44159   0.89472   0.86061   0.00000  Uiso   1.00
C779   C     0.58618   0.78809   0.63536   0.00000  Uiso   1.00
N780   N     0.62148   0.80769   0.65571   0.00000  Uiso   1.00
C781   C     0.43841   0.68675   0.86420   0.00000  Uiso   1.00
N782   N     0.41098   0.66128   0.84180   0.00000  Uiso   1.00
N783   N     0.41149   0.71754   0.61723   0.00000  Uiso   1.00
O784   O     0.36756   0.73647   0.60803   0.00000  Uiso   1.00
O785   O     0.41274   0.67927   0.63800   0.00000  Uiso   1.00
N786   N     0.56020   0.81374   0.87721   0.00000  Uiso   1.00
O787   O     0.54792   0.85465   0.87438   0.00000  Uiso   1.00
O788   O     0.60794   0.80460   0.87507   0.00000  Uiso   1.00
C789   C     0.40491   0.73007   0.51732   0.00000  Uiso   1.00
N790   N     0.36557   0.72363   0.99327   0.00000  Uiso   1.00
C791   C     0.54846   0.82313   0.97520   0.00000  Uiso   1.00
N792   N     0.56667   0.85393   0.99613   0.00000  Uiso   1.00
O793   O     0.83334   0.68573   0.79071   0.00000  Uiso   1.00
O794   O     0.83333   0.81427   0.70928   0.00000  Uiso   1.00
O795   O     0.83334   0.68573   0.70928   0.00000  Uiso   1.00
O796   O     0.83333   0.81427   0.79072   0.00000  Uiso   1.00
C797   C     0.83520   0.66494   0.75035   0.00000  Uiso   1.00
C798   C     0.83161   0.83491   0.74957   0.00000  Uiso   1.00
O799   O     0.75828   0.74999   0.78132   0.00000  Uiso   1.00
O800   O     0.90839   0.75001   0.71868   0.00000  Uiso   1.00
O801   O     0.75828   0.75000   0.69988   0.00000  Uiso   1.00
O802   O     0.90839   0.75000   0.80011   0.00000  Uiso   1.00
C803   C     0.73466   0.74855   0.73771   0.00000  Uiso   1.00
C804   C     0.93202   0.74969   0.76242   0.00000  Uiso   1.00
Cu805  Cu    0.83333   0.74999   0.79821   0.00000  Uiso   1.00
Cu806  Cu    0.83333   0.75000   0.70178   0.00000  Uiso   1.00
C807   C     0.67930   0.74504   0.73145   0.00000  Uiso   1.00
C808   C     0.98744   0.75017   0.76928   0.00000  Uiso   1.00
H809   H     0.99254   0.73785   0.69560   0.00000  Uiso   1.00
H810   H     0.67429   0.75593   0.80552   0.00000  Uiso   1.00
C811   C     0.84411   0.54716   0.79591   0.00000  Uiso   1.00
C812   C     0.85203   0.95442   0.71689   0.00000  Uiso   1.00
H813   H     0.85330   0.52964   0.82968   0.00000  Uiso   1.00
H814   H     0.87035   0.97360   0.69058   0.00000  Uiso   1.00
C815   C     0.84773   0.59298   0.79542   0.00000  Uiso   1.00
C816   C     0.84977   0.90901   0.71357   0.00000  Uiso   1.00
C817   C     0.83732   0.61627   0.75101   0.00000  Uiso   1.00
C818   C     0.82824   0.88320   0.74886   0.00000  Uiso   1.00
C819   C     0.82687   0.59174   0.70736   0.00000  Uiso   1.00
C820   C     0.80481   0.90466   0.78472   0.00000  Uiso   1.00
C821   C     0.82136   0.54620   0.70932   0.00000  Uiso   1.00
C822   C     0.80713   0.95062   0.78677   0.00000  Uiso   1.00
H823   H     0.81166   0.52808   0.67586   0.00000  Uiso   1.00
H824   H     0.78851   0.96704   0.81348   0.00000  Uiso   1.00
C825   C     0.83069   0.52369   0.75307   0.00000  Uiso   1.00
C826   C     0.83055   0.97550   0.75293   0.00000  Uiso   1.00
C827   C     0.87693   0.76149   0.55858   0.00000  Uiso   1.00
C828   C     0.80782   0.71677   0.94292   0.00000  Uiso   1.00
H829   H     0.91272   0.76993   0.54452   0.00000  Uiso   1.00
H830   H     0.78870   0.68927   0.95902   0.00000  Uiso   1.00
C831   C     0.87586   0.76479   0.60856   0.00000  Uiso   1.00
C832   C     0.80547   0.71840   0.89242   0.00000  Uiso   1.00
N833   N     0.83333   0.75001   0.62934   0.00000  Uiso   1.00
N834   N     0.83333   0.74999   0.87065   0.00000  Uiso   1.00
C835   C     0.78956   0.73564   0.59859   0.00000  Uiso   1.00
C836   C     0.86106   0.78234   0.89855   0.00000  Uiso   1.00
C837   C     0.78742   0.73825   0.54754   0.00000  Uiso   1.00
C838   C     0.85896   0.78469   0.94889   0.00000  Uiso   1.00
C839   C     0.83231   0.74983   0.52667   0.00000  Uiso   1.00
C840   C     0.83325   0.75061   0.97232   0.00000  Uiso   1.00
C841   C     0.86572   0.61446   0.84095   0.00000  Uiso   1.00
N842   N     0.88037   0.63143   0.87749   0.00000  Uiso   1.00
C843   C     0.86774   0.89117   0.67163   0.00000  Uiso   1.00
N844   N     0.88154   0.87811   0.63711   0.00000  Uiso   1.00
N845   N     0.82496   0.61159   0.66049   0.00000  Uiso   1.00
O846   O     0.86629   0.63214   0.64890   0.00000  Uiso   1.00
O847   O     0.78912   0.59826   0.62598   0.00000  Uiso   1.00
N848   N     0.77523   0.88067   0.81683   0.00000  Uiso   1.00
O849   O     0.74145   0.84994   0.79995   0.00000  Uiso   1.00
O850   O     0.77493   0.89472   0.86061   0.00000  Uiso   1.00
C851   C     0.91951   0.78809   0.63536   0.00000  Uiso   1.00
N852   N     0.95481   0.80769   0.65571   0.00000  Uiso   1.00
C853   C     0.77175   0.68675   0.86420   0.00000  Uiso   1.00
N854   N     0.74431   0.66128   0.84180   0.00000  Uiso   1.00
N855   N     0.74482   0.71754   0.61723   0.00000  Uiso   1.00
O856   O     0.70089   0.73647   0.60803   0.00000  Uiso   1.00
O857   O     0.74608   0.67927   0.63800   0.00000  Uiso   1.00
N858   N     0.89354   0.81374   0.87721   0.00000  Uiso   1.00
O859   O     0.88126   0.85465   0.87438   0.00000  Uiso   1.00
O860   O     0.94127   0.80460   0.87507   0.00000  Uiso   1.00
C861   C     0.73824   0.73007   0.51732   0.00000  Uiso   1.00
N862   N     0.69890   0.72363   0.99327   0.00000  Uiso   1.00
C863   C     0.88179   0.82313   0.97520   0.00000  Uiso   1.00
N864   N     0.90000   0.85393   0.99613   0.00000  Uiso   1.00
loop_
_geom_bond_atom_site_label_1
_geom_bond_atom_site_label_2
_geom_bond_distance
_geom_bond_site_symmetry_2
_ccdc_geom_bond_type
O1     C5      1.307   .     A
O1     Cu13    1.972   .     S
O2     C6      1.302   .     A
O2     Cu14    1.972   .     S
O3     Cu14    1.969   .     S
O3     C5      1.304   .     A
O4     C6      1.304   .     A
O4     Cu13    1.969   .     S
C5     C25     1.487   .     S
C6     C26     1.478   .     S
O7     Cu13    1.953   .     S
O7     C11     1.289   .     A
O8     C12     1.292   .     A
O8     Cu14    1.953   .     S
O9     Cu14    1.955   .     S
O9     C11     1.296   .     A
O10    C12     1.294   .     A
O10    Cu13    1.955   .     S
C11    C15     1.432   .     S
C12    C16     1.434   .     S
Cu13   N42     2.026   .     S
Cu13   Cu14    2.697   .     S
Cu14   N41     2.026   .     S
C15    C160    1.335   1_455 S
C15    H161    1.084   1_455 S
C16    C87     1.335   .     S
C16    H90     1.087   .     S
H17    C87     1.084   .     S
H18    C160    1.087   1_455 S
C19    C23     1.395   .     A
C19    H21     1.085   .     S
C19    C33     1.394   .     A
C20    C34     1.394   .     A
C20    H22     1.085   .     S
C20    C24     1.386   .     A
C23    C49     1.446   .     S
C23    C25     1.426   .     A
C24    C51     1.441   .     S
C24    C26     1.418   .     A
C25    C27     1.424   .     A
C26    C28     1.423   .     A
C27    N53     1.435   .     S
C27    C29     1.390   .     A
C28    N56     1.438   .     S
C28    C30     1.401   .     A
C29    H31     1.084   .     S
C29    C33     1.396   .     A
C30    C34     1.397   .     A
C30    H32     1.083   .     S
C33    C250    1.469   1_545 S
C34    C249    1.469   .     S
C35    C39     1.407   .     A
C35    H37     1.083   .     S
C35    C47     1.400   .     A
C36    H38     1.083   .     S
C36    C48     1.407   .     A
C36    C40     1.406   .     A
C39    C59     1.437   .     S
C39    N41     1.380   .     A
C40    C61     1.439   .     S
C40    N42     1.370   .     A
N41    C43     1.388   .     A
N42    C44     1.376   .     A
C43    C45     1.423   .     A
C43    N63     1.431   .     S
C44    N66     1.431   .     S
C44    C46     1.419   .     A
C45    C69     1.449   .     S
C45    C47     1.411   .     A
C46    C71     1.448   .     S
C46    C48     1.416   .     A
C47    C480    1.524   1_554 S
C48    C479    1.524   .     S
C49    N50     1.158   .     T
C51    N52     1.156   .     T
N53    O55     1.302   .     A
N53    O54     1.302   .     A
N56    O58     1.301   .     A
N56    O57     1.301   .     A
C59    N60     1.158   .     T
C61    N62     1.158   .     T
N63    O65     1.299   .     A
N63    O64     1.302   .     A
N66    O68     1.300   .     A
N66    O67     1.301   .     A
C69    N502    1.158   1_554 S
N70    C501    1.158   .     S
C71    N72     1.158   .     T
O73    C77     1.307   .     A
O73    Cu85    1.972   .     S
O74    C78     1.302   .     A
O74    Cu86    1.972   .     S
O75    Cu86    1.969   .     S
O75    C77     1.304   .     A
O76    C78     1.304   .     A
O76    Cu85    1.969   .     S
C77    C97     1.487   .     S
C78    C98     1.478   .     S
O79    Cu85    1.953   .     S
O79    C83     1.289   .     A
O80    C84     1.292   .     A
O80    Cu86    1.953   .     S
O81    Cu86    1.955   .     S
O81    C83     1.296   .     A
O82    C84     1.294   .     A
O82    Cu85    1.955   .     S
C83    C87     1.432   .     S
C84    C88     1.434   .     S
Cu85   N114    2.026   .     S
Cu85   Cu86    2.697   .     S
Cu86   N113    2.026   .     S
C88    C159    1.335   .     S
C88    H162    1.087   .     S
H89    C159    1.084   .     S
C91    C95     1.395   .     A
C91    H93     1.085   .     S
C91    C105    1.394   .     A
C92    C106    1.394   .     A
C92    H94     1.085   .     S
C92    C96     1.386   .     A
C95    C121    1.446   .     S
C95    C97     1.426   .     A
C96    C123    1.441   .     S
C96    C98     1.418   .     A
C97    C99     1.424   .     A
C98    C100    1.423   .     A
C99    N125    1.435   .     S
C99    C101    1.390   .     A
C100   N128    1.438   .     S
C100   C102    1.401   .     A
C101   H103    1.084   .     S
C101   C105    1.396   .     A
C102   C106    1.397   .     A
C102   H104    1.083   .     S
C105   C322    1.469   1_545 S
C106   C321    1.469   .     S
C107   C111    1.407   .     A
C107   H109    1.083   .     S
C107   C119    1.400   .     A
C108   H110    1.083   .     S
C108   C120    1.407   .     A
C108   C112    1.406   .     A
C111   C131    1.437   .     S
C111   N113    1.380   .     A
C112   C133    1.439   .     S
C112   N114    1.370   .     A
N113   C115    1.388   .     A
N114   C116    1.376   .     A
C115   C117    1.423   .     A
C115   N135    1.431   .     S
C116   N138    1.431   .     S
C116   C118    1.419   .     A
C117   C141    1.449   .     S
C117   C119    1.411   .     A
C118   C143    1.448   .     S
C118   C120    1.416   .     A
C119   C552    1.524   1_554 S
C120   C551    1.524   .     S
C121   N122    1.158   .     T
C123   N124    1.156   .     T
N125   O127    1.302   .     A
N125   O126    1.302   .     A
N128   O130    1.301   .     A
N128   O129    1.301   .     A
C131   N132    1.158   .     T
C133   N134    1.158   .     T
N135   O137    1.299   .     A
N135   O136    1.302   .     A
N138   O140    1.300   .     A
N138   O139    1.301   .     A
C141   N574    1.158   1_554 S
N142   C573    1.158   .     S
C143   N144    1.158   .     T
O145   C149    1.307   .     A
O145   Cu157   1.972   .     S
O146   C150    1.302   .     A
O146   Cu158   1.972   .     S
O147   Cu158   1.969   .     S
O147   C149    1.304   .     A
O148   C150    1.304   .     A
O148   Cu157   1.969   .     S
C149   C169    1.487   .     S
C150   C170    1.478   .     S
O151   Cu157   1.953   .     S
O151   C155    1.289   .     A
O152   C156    1.292   .     A
O152   Cu158   1.953   .     S
O153   Cu158   1.955   .     S
O153   C155    1.296   .     A
O154   C156    1.294   .     A
O154   Cu157   1.955   .     S
C155   C159    1.432   .     S
C156   C160    1.434   .     S
Cu157  N186    2.026   .     S
Cu157  Cu158   2.697   .     S
Cu158  N185    2.026   .     S
C160   C15     1.335   1_655 S
C160   H18     1.087   1_655 S
H161   C15     1.084   1_655 S
C163   C167    1.395   .     A
C163   H165    1.085   .     S
C163   C177    1.394   .     A
C164   C178    1.394   .     A
C164   H166    1.085   .     S
C164   C168    1.386   .     A
C167   C193    1.446   .     S
C167   C169    1.426   .     A
C168   C195    1.441   .     S
C168   C170    1.418   .     A
C169   C171    1.424   .     A
C170   C172    1.423   .     A
C171   N197    1.435   .     S
C171   C173    1.390   .     A
C172   N200    1.438   .     S
C172   C174    1.401   .     A
C173   H175    1.084   .     S
C173   C177    1.396   .     A
C174   C178    1.397   .     A
C174   H176    1.083   .     S
C177   C394    1.469   1_545 S
C178   C393    1.469   .     S
C179   C183    1.407   .     A
C179   H181    1.083   .     S
C179   C191    1.400   .     A
C180   H182    1.083   .     S
C180   C192    1.407   .     A
C180   C184    1.406   .     A
C183   C203    1.437   .     S
C183   N185    1.380   .     A
C184   C205    1.439   .     S
C184   N186    1.370   .     A
N185   C187    1.388   .     A
N186   C188    1.376   .     A
C187   C189    1.423   .     A
C187   N207    1.431   .     S
C188   N210    1.431   .     S
C188   C190    1.419   .     A
C189   C213    1.449   .     S
C189   C191    1.411   .     A
C190   C215    1.448   .     S
C190   C192    1.416   .     A
C191   C624    1.524   1_554 S
C192   C623    1.524   .     S
C193   N194    1.158   .     T
C195   N196    1.156   .     T
N197   O199    1.302   .     A
N197   O198    1.302   .     A
N200   O202    1.301   .     A
N200   O201    1.301   .     A
C203   N204    1.158   .     T
C205   N206    1.158   .     T
N207   O209    1.299   .     A
N207   O208    1.302   .     A
N210   O212    1.300   .     A
N210   O211    1.301   .     A
C213   N646    1.158   1_554 S
N214   C645    1.158   .     S
C215   N216    1.158   .     T
O217   C221    1.307   .     A
O217   Cu229   1.972   .     S
O218   C222    1.302   .     A
O218   Cu230   1.972   .     S
O219   Cu230   1.969   .     S
O219   C221    1.304   .     A
O220   C222    1.304   .     A
O220   Cu229   1.969   .     S
C221   C241    1.487   .     S
C222   C242    1.478   .     S
O223   Cu229   1.953   .     S
O223   C227    1.289   .     A
O224   C228    1.292   .     A
O224   Cu230   1.953   .     S
O225   Cu230   1.955   .     S
O225   C227    1.296   .     A
O226   C228    1.294   .     A
O226   Cu229   1.955   .     S
C227   C231    1.432   .     S
C228   C232    1.434   .     S
Cu229  N258    2.026   .     S
Cu229  Cu230   2.697   .     S
Cu230  N257    2.026   .     S
C231   C376    1.335   1_455 S
C231   H377    1.084   1_455 S
C232   C303    1.335   .     S
C232   H306    1.087   .     S
H233   C303    1.084   .     S
H234   C376    1.087   1_455 S
C235   C239    1.395   .     A
C235   H237    1.085   .     S
C235   C249    1.394   .     A
C236   C250    1.394   .     A
C236   H238    1.085   .     S
C236   C240    1.386   .     A
C239   C265    1.446   .     S
C239   C241    1.426   .     A
C240   C267    1.441   .     S
C240   C242    1.418   .     A
C241   C243    1.424   .     A
C242   C244    1.423   .     A
C243   N269    1.435   .     S
C243   C245    1.390   .     A
C244   N272    1.438   .     S
C244   C246    1.401   .     A
C245   H247    1.084   .     S
C245   C249    1.396   .     A
C246   C250    1.397   .     A
C246   H248    1.083   .     S
C250   C33     1.469   1_565 S
C251   C255    1.407   .     A
C251   H253    1.083   .     S
C251   C263    1.400   .     A
C252   H254    1.083   .     S
C252   C264    1.407   .     A
C252   C256    1.406   .     A
C255   C275    1.437   .     S
C255   N257    1.380   .     A
C256   C277    1.439   .     S
C256   N258    1.370   .     A
N257   C259    1.388   .     A
N258   C260    1.376   .     A
C259   C261    1.423   .     A
C259   N279    1.431   .     S
C260   N282    1.431   .     S
C260   C262    1.419   .     A
C261   C285    1.449   .     S
C261   C263    1.411   .     A
C262   C287    1.448   .     S
C262   C264    1.416   .     A
C263   C696    1.524   1_554 S
C264   C695    1.524   .     S
C265   N266    1.158   .     T
C267   N268    1.156   .     T
N269   O271    1.302   .     A
N269   O270    1.302   .     A
N272   O274    1.301   .     A
N272   O273    1.301   .     A
C275   N276    1.158   .     T
C277   N278    1.158   .     T
N279   O281    1.299   .     A
N279   O280    1.302   .     A
N282   O284    1.300   .     A
N282   O283    1.301   .     A
C285   N718    1.158   1_554 S
N286   C717    1.158   .     S
C287   N288    1.158   .     T
O289   C293    1.307   .     A
O289   Cu301   1.972   .     S
O290   C294    1.302   .     A
O290   Cu302   1.972   .     S
O291   Cu302   1.969   .     S
O291   C293    1.304   .     A
O292   C294    1.304   .     A
O292   Cu301   1.969   .     S
C293   C313    1.487   .     S
C294   C314    1.478   .     S
O295   Cu301   1.953   .     S
O295   C299    1.289   .     A
O296   C300    1.292   .     A
O296   Cu302   1.953   .     S
O297   Cu302   1.955   .     S
O297   C299    1.296   .     A
O298   C300    1.294   .     A
O298   Cu301   1.955   .     S
C299   C303    1.432   .     S
C300   C304    1.434   .     S
Cu301  N330    2.026   .     S
Cu301  Cu302   2.697   .     S
Cu302  N329    2.026   .     S
C304   C375    1.335   .     S
C304   H378    1.087   .     S
H305   C375    1.084   .     S
C307   C311    1.395   .     A
C307   H309    1.085   .     S
C307   C321    1.394   .     A
C308   C322    1.394   .     A
C308   H310    1.085   .     S
C308   C312    1.386   .     A
C311   C337    1.446   .     S
C311   C313    1.426   .     A
C312   C339    1.441   .     S
C312   C314    1.418   .     A
C313   C315    1.424   .     A
C314   C316    1.423   .     A
C315   N341    1.435   .     S
C315   C317    1.390   .     A
C316   N344    1.438   .     S
C316   C318    1.401   .     A
C317   H319    1.084   .     S
C317   C321    1.396   .     A
C318   C322    1.397   .     A
C318   H320    1.083   .     S
C322   C105    1.469   1_565 S
C323   C327    1.407   .     A
C323   H325    1.083   .     S
C323   C335    1.400   .     A
C324   H326    1.083   .     S
C324   C336    1.407   .     A
C324   C328    1.406   .     A
C327   C347    1.437   .     S
C327   N329    1.380   .     A
C328   C349    1.439   .     S
C328   N330    1.370   .     A
N329   C331    1.388   .     A
N330   C332    1.376   .     A
C331   C333    1.423   .     A
C331   N351    1.431   .     S
C332   N354    1.431   .     S
C332   C334    1.419   .     A
C333   C357    1.449   .     S
C333   C335    1.411   .     A
C334   C359    1.448   .     S
C334   C336    1.416   .     A
C335   C768    1.524   1_554 S
C336   C767    1.524   .     S
C337   N338    1.158   .     T
C339   N340    1.156   .     T
N341   O343    1.302   .     A
N341   O342    1.302   .     A
N344   O346    1.301   .     A
N344   O345    1.301   .     A
C347   N348    1.158   .     T
C349   N350    1.158   .     T
N351   O353    1.299   .     A
N351   O352    1.302   .     A
N354   O356    1.300   .     A
N354   O355    1.301   .     A
C357   N790    1.158   1_554 S
N358   C789    1.158   .     S
C359   N360    1.158   .     T
O361   C365    1.307   .     A
O361   Cu373   1.972   .     S
O362   C366    1.302   .     A
O362   Cu374   1.972   .     S
O363   Cu374   1.969   .     S
O363   C365    1.304   .     A
O364   C366    1.304   .     A
O364   Cu373   1.969   .     S
C365   C385    1.487   .     S
C366   C386    1.478   .     S
O367   Cu373   1.953   .     S
O367   C371    1.289   .     A
O368   C372    1.292   .     A
O368   Cu374   1.953   .     S
O369   Cu374   1.955   .     S
O369   C371    1.296   .     A
O370   C372    1.294   .     A
O370   Cu373   1.955   .     S
C371   C375    1.432   .     S
C372   C376    1.434   .     S
Cu373  N402    2.026   .     S
Cu373  Cu374   2.697   .     S
Cu374  N401    2.026   .     S
C376   C231    1.335   1_655 S
C376   H234    1.087   1_655 S
H377   C231    1.084   1_655 S
C379   C383    1.395   .     A
C379   H381    1.085   .     S
C379   C393    1.394   .     A
C380   C394    1.394   .     A
C380   H382    1.085   .     S
C380   C384    1.386   .     A
C383   C409    1.446   .     S
C383   C385    1.426   .     A
C384   C411    1.441   .     S
C384   C386    1.418   .     A
C385   C387    1.424   .     A
C386   C388    1.423   .     A
C387   N413    1.435   .     S
C387   C389    1.390   .     A
C388   N416    1.438   .     S
C388   C390    1.401   .     A
C389   H391    1.084   .     S
C389   C393    1.396   .     A
C390   C394    1.397   .     A
C390   H392    1.083   .     S
C394   C177    1.469   1_565 S
C395   C399    1.407   .     A
C395   H397    1.083   .     S
C395   C407    1.400   .     A
C396   H398    1.083   .     S
C396   C408    1.407   .     A
C396   C400    1.406   .     A
C399   C419    1.437   .     S
C399   N401    1.380   .     A
C400   C421    1.439   .     S
C400   N402    1.370   .     A
N401   C403    1.388   .     A
N402   C404    1.376   .     A
C403   C405    1.423   .     A
C403   N423    1.431   .     S
C404   N426    1.431   .     S
C404   C406    1.419   .     A
C405   C429    1.449   .     S
C405   C407    1.411   .     A
C406   C431    1.448   .     S
C406   C408    1.416   .     A
C407   C840    1.524   1_554 S
C408   C839    1.524   .     S
C409   N410    1.158   .     T
C411   N412    1.156   .     T
N413   O415    1.302   .     A
N413   O414    1.302   .     A
N416   O418    1.301   .     A
N416   O417    1.301   .     A
C419   N420    1.158   .     T
C421   N422    1.158   .     T
N423   O425    1.299   .     A
N423   O424    1.302   .     A
N426   O428    1.300   .     A
N426   O427    1.301   .     A
C429   N862    1.158   1_554 S
N430   C861    1.158   .     S
C431   N432    1.158   .     T
O433   C437    1.307   .     A
O433   Cu445   1.972   .     S
O434   C438    1.302   .     A
O434   Cu446   1.972   .     S
O435   Cu446   1.969   .     S
O435   C437    1.304   .     A
O436   C438    1.304   .     A
O436   Cu445   1.969   .     S
C437   C457    1.487   .     S
C438   C458    1.478   .     S
O439   Cu445   1.953   .     S
O439   C443    1.289   .     A
O440   C444    1.292   .     A
O440   Cu446   1.953   .     S
O441   Cu446   1.955   .     S
O441   C443    1.296   .     A
O442   C444    1.294   .     A
O442   Cu445   1.955   .     S
C443   C447    1.432   .     S
C444   C448    1.434   .     S
Cu445  N474    2.026   .     S
Cu445  Cu446   2.697   .     S
Cu446  N473    2.026   .     S
C447   C592    1.335   1_455 S
C447   H593    1.084   1_455 S
C448   C519    1.335   .     S
C448   H522    1.087   .     S
H449   C519    1.084   .     S
H450   C592    1.087   1_455 S
C451   C455    1.395   .     A
C451   H453    1.085   .     S
C451   C465    1.394   .     A
C452   C466    1.394   .     A
C452   H454    1.085   .     S
C452   C456    1.386   .     A
C455   C481    1.446   .     S
C455   C457    1.426   .     A
C456   C483    1.441   .     S
C456   C458    1.418   .     A
C457   C459    1.424   .     A
C458   C460    1.423   .     A
C459   N485    1.435   .     S
C459   C461    1.390   .     A
C460   N488    1.438   .     S
C460   C462    1.401   .     A
C461   H463    1.084   .     S
C461   C465    1.396   .     A
C462   C466    1.397   .     A
C462   H464    1.083   .     S
C465   C682    1.469   1_545 S
C466   C681    1.469   .     S
C467   C471    1.407   .     A
C467   H469    1.083   .     S
C467   C479    1.400   .     A
C468   H470    1.083   .     S
C468   C480    1.407   .     A
C468   C472    1.406   .     A
C471   C491    1.437   .     S
C471   N473    1.380   .     A
C472   C493    1.439   .     S
C472   N474    1.370   .     A
N473   C475    1.388   .     A
N474   C476    1.376   .     A
C475   C477    1.423   .     A
C475   N495    1.431   .     S
C476   N498    1.431   .     S
C476   C478    1.419   .     A
C477   C501    1.449   .     S
C477   C479    1.411   .     A
C478   C503    1.448   .     S
C478   C480    1.416   .     A
C480   C47     1.524   1_556 S
C481   N482    1.158   .     T
C483   N484    1.156   .     T
N485   O487    1.302   .     A
N485   O486    1.302   .     A
N488   O490    1.301   .     A
N488   O489    1.301   .     A
C491   N492    1.158   .     T
C493   N494    1.158   .     T
N495   O497    1.299   .     A
N495   O496    1.302   .     A
N498   O500    1.300   .     A
N498   O499    1.301   .     A
N502   C69     1.158   1_556 S
C503   N504    1.158   .     T
O505   C509    1.307   .     A
O505   Cu517   1.972   .     S
O506   C510    1.302   .     A
O506   Cu518   1.972   .     S
O507   Cu518   1.969   .     S
O507   C509    1.304   .     A
O508   C510    1.304   .     A
O508   Cu517   1.969   .     S
C509   C529    1.487   .     S
C510   C530    1.478   .     S
O511   Cu517   1.953   .     S
O511   C515    1.289   .     A
O512   C516    1.292   .     A
O512   Cu518   1.953   .     S
O513   Cu518   1.955   .     S
O513   C515    1.296   .     A
O514   C516    1.294   .     A
O514   Cu517   1.955   .     S
C515   C519    1.432   .     S
C516   C520    1.434   .     S
Cu517  N546    2.026   .     S
Cu517  Cu518   2.697   .     S
Cu518  N545    2.026   .     S
C520   C591    1.335   .     S
C520   H594    1.087   .     S
H521   C591    1.084   .     S
C523   C527    1.395   .     A
C523   H525    1.085   .     S
C523   C537    1.394   .     A
C524   C538    1.394   .     A
C524   H526    1.085   .     S
C524   C528    1.386   .     A
C527   C553    1.446   .     S
C527   C529    1.426   .     A
C528   C555    1.441   .     S
C528   C530    1.418   .     A
C529   C531    1.424   .     A
C530   C532    1.423   .     A
C531   N557    1.435   .     S
C531   C533    1.390   .     A
C532   N560    1.438   .     S
C532   C534    1.401   .     A
C533   H535    1.084   .     S
C533   C537    1.396   .     A
C534   C538    1.397   .     A
C534   H536    1.083   .     S
C537   C754    1.469   1_545 S
C538   C753    1.469   .     S
C539   C543    1.407   .     A
C539   H541    1.083   .     S
C539   C551    1.400   .     A
C540   H542    1.083   .     S
C540   C552    1.407   .     A
C540   C544    1.406   .     A
C543   C563    1.437   .     S
C543   N545    1.380   .     A
C544   C565    1.439   .     S
C544   N546    1.370   .     A
N545   C547    1.388   .     A
N546   C548    1.376   .     A
C547   C549    1.423   .     A
C547   N567    1.431   .     S
C548   N570    1.431   .     S
C548   C550    1.419   .     A
C549   C573    1.449   .     S
C549   C551    1.411   .     A
C550   C575    1.448   .     S
C550   C552    1.416   .     A
C552   C119    1.524   1_556 S
C553   N554    1.158   .     T
C555   N556    1.156   .     T
N557   O559    1.302   .     A
N557   O558    1.302   .     A
N560   O562    1.301   .     A
N560   O561    1.301   .     A
C563   N564    1.158   .     T
C565   N566    1.158   .     T
N567   O569    1.299   .     A
N567   O568    1.302   .     A
N570   O572    1.300   .     A
N570   O571    1.301   .     A
N574   C141    1.158   1_556 S
C575   N576    1.158   .     T
O577   C581    1.307   .     A
O577   Cu589   1.972   .     S
O578   C582    1.302   .     A
O578   Cu590   1.972   .     S
O579   Cu590   1.969   .     S
O579   C581    1.304   .     A
O580   C582    1.304   .     A
O580   Cu589   1.969   .     S
C581   C601    1.487   .     S
C582   C602    1.478   .     S
O583   Cu589   1.953   .     S
O583   C587    1.289   .     A
O584   C588    1.292   .     A
O584   Cu590   1.953   .     S
O585   Cu590   1.955   .     S
O585   C587    1.296   .     A
O586   C588    1.294   .     A
O586   Cu589   1.955   .     S
C587   C591    1.432   .     S
C588   C592    1.434   .     S
Cu589  N618    2.026   .     S
Cu589  Cu590   2.697   .     S
Cu590  N617    2.026   .     S
C592   C447    1.335   1_655 S
C592   H450    1.087   1_655 S
H593   C447    1.084   1_655 S
C595   C599    1.395   .     A
C595   H597    1.085   .     S
C595   C609    1.394   .     A
C596   C610    1.394   .     A
C596   H598    1.085   .     S
C596   C600    1.386   .     A
C599   C625    1.446   .     S
C599   C601    1.426   .     A
C600   C627    1.441   .     S
C600   C602    1.418   .     A
C601   C603    1.424   .     A
C602   C604    1.423   .     A
C603   N629    1.435   .     S
C603   C605    1.390   .     A
C604   N632    1.438   .     S
C604   C606    1.401   .     A
C605   H607    1.084   .     S
C605   C609    1.396   .     A
C606   C610    1.397   .     A
C606   H608    1.083   .     S
C609   C826    1.469   1_545 S
C610   C825    1.469   .     S
C611   C615    1.407   .     A
C611   H613    1.083   .     S
C611   C623    1.400   .     A
C612   H614    1.083   .     S
C612   C624    1.407   .     A
C612   C616    1.406   .     A
C615   C635    1.437   .     S
C615   N617    1.380   .     A
C616   C637    1.439   .     S
C616   N618    1.370   .     A
N617   C619    1.388   .     A
N618   C620    1.376   .     A
C619   C621    1.423   .     A
C619   N639    1.431   .     S
C620   N642    1.431   .     S
C620   C622    1.419   .     A
C621   C645    1.449   .     S
C621   C623    1.411   .     A
C622   C647    1.448   .     S
C622   C624    1.416   .     A
C624   C191    1.524   1_556 S
C625   N626    1.158   .     T
C627   N628    1.156   .     T
N629   O631    1.302   .     A
N629   O630    1.302   .     A
N632   O634    1.301   .     A
N632   O633    1.301   .     A
C635   N636    1.158   .     T
C637   N638    1.158   .     T
N639   O641    1.299   .     A
N639   O640    1.302   .     A
N642   O644    1.300   .     A
N642   O643    1.301   .     A
N646   C213    1.158   1_556 S
C647   N648    1.158   .     T
O649   C653    1.307   .     A
O649   Cu661   1.972   .     S
O650   C654    1.302   .     A
O650   Cu662   1.972   .     S
O651   Cu662   1.969   .     S
O651   C653    1.304   .     A
O652   C654    1.304   .     A
O652   Cu661   1.969   .     S
C653   C673    1.487   .     S
C654   C674    1.478   .     S
O655   Cu661   1.953   .     S
O655   C659    1.289   .     A
O656   C660    1.292   .     A
O656   Cu662   1.953   .     S
O657   Cu662   1.955   .     S
O657   C659    1.296   .     A
O658   C660    1.294   .     A
O658   Cu661   1.955   .     S
C659   C663    1.432   .     S
C660   C664    1.434   .     S
Cu661  N690    2.026   .     S
Cu661  Cu662   2.697   .     S
Cu662  N689    2.026   .     S
C663   C808    1.335   1_455 S
C663   H809    1.084   1_455 S
C664   C735    1.335   .     S
C664   H738    1.087   .     S
H665   C735    1.084   .     S
H666   C808    1.087   1_455 S
C667   C671    1.395   .     A
C667   H669    1.085   .     S
C667   C681    1.394   .     A
C668   C682    1.394   .     A
C668   H670    1.085   .     S
C668   C672    1.386   .     A
C671   C697    1.446   .     S
C671   C673    1.426   .     A
C672   C699    1.441   .     S
C672   C674    1.418   .     A
C673   C675    1.424   .     A
C674   C676    1.423   .     A
C675   N701    1.435   .     S
C675   C677    1.390   .     A
C676   N704    1.438   .     S
C676   C678    1.401   .     A
C677   H679    1.084   .     S
C677   C681    1.396   .     A
C678   C682    1.397   .     A
C678   H680    1.083   .     S
C682   C465    1.469   1_565 S
C683   C687    1.407   .     A
C683   H685    1.083   .     S
C683   C695    1.400   .     A
C684   H686    1.083   .     S
C684   C696    1.407   .     A
C684   C688    1.406   .     A
C687   C707    1.437   .     S
C687   N689    1.380   .     A
C688   C709    1.439   .     S
C688   N690    1.370   .     A
N689   C691    1.388   .     A
N690   C692    1.376   .     A
C691   C693    1.423   .     A
C691   N711    1.431   .     S
C692   N714    1.431   .     S
C692   C694    1.419   .     A
C693   C717    1.449   .     S
C693   C695    1.411   .     A
C694   C719    1.448   .     S
C694   C696    1.416   .     A
C696   C263    1.524   1_556 S
C697   N698    1.158   .     T
C699   N700    1.156   .     T
N701   O703    1.302   .     A
N701   O702    1.302   .     A
N704   O706    1.301   .     A
N704   O705    1.301   .     A
C707   N708    1.158   .     T
C709   N710    1.158   .     T
N711   O713    1.299   .     A
N711   O712    1.302   .     A
N714   O716    1.300   .     A
N714   O715    1.301   .     A
N718   C285    1.158   1_556 S
C719   N720    1.158   .     T
O721   C725    1.307   .     A
O721   Cu733   1.972   .     S
O722   C726    1.302   .     A
O722   Cu734   1.972   .     S
O723   Cu734   1.969   .     S
O723   C725    1.304   .     A
O724   C726    1.304   .     A
O724   Cu733   1.969   .     S
C725   C745    1.487   .     S
C726   C746    1.478   .     S
O727   Cu733   1.953   .     S
O727   C731    1.289   .     A
O728   C732    1.292   .     A
O728   Cu734   1.953   .     S
O729   Cu734   1.955   .     S
O729   C731    1.296   .     A
O730   C732    1.294   .     A
O730   Cu733   1.955   .     S
C731   C735    1.432   .     S
C732   C736    1.434   .     S
Cu733  N762    2.026   .     S
Cu733  Cu734   2.697   .     S
Cu734  N761    2.026   .     S
C736   C807    1.335   .     S
C736   H810    1.087   .     S
H737   C807    1.084   .     S
C739   C743    1.395   .     A
C739   H741    1.085   .     S
C739   C753    1.394   .     A
C740   C754    1.394   .     A
C740   H742    1.085   .     S
C740   C744    1.386   .     A
C743   C769    1.446   .     S
C743   C745    1.426   .     A
C744   C771    1.441   .     S
C744   C746    1.418   .     A
C745   C747    1.424   .     A
C746   C748    1.423   .     A
C747   N773    1.435   .     S
C747   C749    1.390   .     A
C748   N776    1.438   .     S
C748   C750    1.401   .     A
C749   H751    1.084   .     S
C749   C753    1.396   .     A
C750   C754    1.397   .     A
C750   H752    1.083   .     S
C754   C537    1.469   1_565 S
C755   C759    1.407   .     A
C755   H757    1.083   .     S
C755   C767    1.400   .     A
C756   H758    1.083   .     S
C756   C768    1.407   .     A
C756   C760    1.406   .     A
C759   C779    1.437   .     S
C759   N761    1.380   .     A
C760   C781    1.439   .     S
C760   N762    1.370   .     A
N761   C763    1.388   .     A
N762   C764    1.376   .     A
C763   C765    1.423   .     A
C763   N783    1.431   .     S
C764   N786    1.431   .     S
C764   C766    1.419   .     A
C765   C789    1.449   .     S
C765   C767    1.411   .     A
C766   C791    1.448   .     S
C766   C768    1.416   .     A
C768   C335    1.524   1_556 S
C769   N770    1.158   .     T
C771   N772    1.156   .     T
N773   O775    1.302   .     A
N773   O774    1.302   .     A
N776   O778    1.301   .     A
N776   O777    1.301   .     A
C779   N780    1.158   .     T
C781   N782    1.158   .     T
N783   O785    1.299   .     A
N783   O784    1.302   .     A
N786   O788    1.300   .     A
N786   O787    1.301   .     A
N790   C357    1.158   1_556 S
C791   N792    1.158   .     T
O793   C797    1.307   .     A
O793   Cu805   1.972   .     S
O794   C798    1.302   .     A
O794   Cu806   1.972   .     S
O795   Cu806   1.969   .     S
O795   C797    1.304   .     A
O796   C798    1.304   .     A
O796   Cu805   1.969   .     S
C797   C817    1.487   .     S
C798   C818    1.478   .     S
O799   Cu805   1.953   .     S
O799   C803    1.289   .     A
O800   C804    1.292   .     A
O800   Cu806   1.953   .     S
O801   Cu806   1.955   .     S
O801   C803    1.296   .     A
O802   C804    1.294   .     A
O802   Cu805   1.955   .     S
C803   C807    1.432   .     S
C804   C808    1.434   .     S
Cu805  N834    2.026   .     S
Cu805  Cu806   2.697   .     S
Cu806  N833    2.026   .     S
C808   C663    1.335   1_655 S
C808   H666    1.087   1_655 S
H809   C663    1.084   1_655 S
C811   C815    1.395   .     A
C811   H813    1.085   .     S
C811   C825    1.394   .     A
C812   C826    1.394   .     A
C812   H814    1.085   .     S
C812   C816    1.386   .     A
C815   C841    1.446   .     S
C815   C817    1.426   .     A
C816   C843    1.441   .     S
C816   C818    1.418   .     A
C817   C819    1.424   .     A
C818   C820    1.423   .     A
C819   N845    1.435   .     S
C819   C821    1.390   .     A
C820   N848    1.438   .     S
C820   C822    1.401   .     A
C821   H823    1.084   .     S
C821   C825    1.396   .     A
C822   C826    1.397   .     A
C822   H824    1.083   .     S
C826   C609    1.469   1_565 S
C827   C831    1.407   .     A
C827   H829    1.083   .     S
C827   C839    1.400   .     A
C828   H830    1.083   .     S
C828   C840    1.407   .     A
C828   C832    1.406   .     A
C831   C851    1.437   .     S
C831   N833    1.380   .     A
C832   C853    1.439   .     S
C832   N834    1.370   .     A
N833   C835    1.388   .     A
N834   C836    1.376   .     A
C835   C837    1.423   .     A
C835   N855    1.431   .     S
C836   N858    1.431   .     S
C836   C838    1.419   .     A
C837   C861    1.449   .     S
C837   C839    1.411   .     A
C838   C863    1.448   .     S
C838   C840    1.416   .     A
C840   C407    1.524   1_556 S
C841   N842    1.158   .     T
C843   N844    1.156   .     T
N845   O847    1.302   .     A
N845   O846    1.302   .     A
N848   O850    1.301   .     A
N848   O849    1.301   .     A
C851   N852    1.158   .     T
C853   N854    1.158   .     T
N855   O857    1.299   .     A
N855   O856    1.302   .     A
N858   O860    1.300   .     A
N858   O859    1.301   .     A
N862   C429    1.158   1_556 S
C863   N864    1.158   .     T
