data_str_m2_o1_o10_pcu_sym.198
_audit_creation_date              2020-01-03
_audit_creation_method            'Materials Studio'
_symmetry_space_group_name_H-M    'P1'
_symmetry_Int_Tables_number       1
_symmetry_cell_setting            triclinic
loop_
_symmetry_equiv_pos_as_xyz
  x,y,z
_cell_length_a                    26.2362
_cell_length_b                    32.2687
_cell_length_c                    29.0129
_cell_angle_alpha                 89.4399
_cell_angle_beta                  97.6933
_cell_angle_gamma                 91.1578
loop_
_atom_site_label
_atom_site_type_symbol
_atom_site_fract_x
_atom_site_fract_y
_atom_site_fract_z
_atom_site_U_iso_or_equiv
_atom_site_adp_type
_atom_site_occupancy
C1     C     0.16687   0.08763   0.16688   0.00000  Uiso   1.00
C2     C     0.16607   0.24573   0.16643   0.00000  Uiso   1.00
C3     C     0.06815   0.16600   0.15481   0.00000  Uiso   1.00
C4     C     0.26521   0.16723   0.17858   0.00000  Uiso   1.00
C5     C     0.01291   0.16349   0.14879   0.00000  Uiso   1.00
C6     C     0.32051   0.16955   0.18481   0.00000  Uiso   1.00
C7     C     0.20696   0.02200   0.14962   0.00000  Uiso   1.00
C8     C     0.12578   0.31146   0.18400   0.00000  Uiso   1.00
C9     C     0.20514   0.31228   0.14884   0.00000  Uiso   1.00
C10    C     0.12756   0.02128   0.18477   0.00000  Uiso   1.00
C11    C     0.16511   0.29043   0.16599   0.00000  Uiso   1.00
C12    C     0.16759   0.04302   0.16744   0.00000  Uiso   1.00
C13    C     0.12398   0.15471   0.01904   0.00000  Uiso   1.00
C14    C     0.20643   0.18456   0.31298   0.00000  Uiso   1.00
C15    C     0.12700   0.14910   0.30402   0.00000  Uiso   1.00
C16    C     0.20794   0.18203   0.02912   0.00000  Uiso   1.00
Cu17   Cu    0.16667   0.16667   0.21355   0.00000  Uiso   1.00
Cu18   Cu    0.16667   0.16666   0.11978   0.00000  Uiso   1.00
H19    H     0.23611   0.29599   0.13651   0.00000  Uiso   1.00
H20    H     0.09679   0.03789   0.19730   0.00000  Uiso   1.00
N21    N     0.16668   0.16668   0.28403   0.00000  Uiso   1.00
N22    N     0.16665   0.16666   0.04931   0.00000  Uiso   1.00
O23    O     0.16666   0.10655   0.20625   0.00000  Uiso   1.00
O24    O     0.16667   0.22678   0.12709   0.00000  Uiso   1.00
O25    O     0.16666   0.10654   0.12706   0.00000  Uiso   1.00
O26    O     0.16667   0.22679   0.20628   0.00000  Uiso   1.00
O27    O     0.09161   0.16667   0.19712   0.00000  Uiso   1.00
O28    O     0.24172   0.16666   0.13621   0.00000  Uiso   1.00
O29    O     0.09161   0.16666   0.11793   0.00000  Uiso   1.00
O30    O     0.24172   0.16667   0.21540   0.00000  Uiso   1.00
H31    H     0.32676   0.15533   0.11476   0.00000  Uiso   1.00
H32    H     0.00670   0.17745   0.21901   0.00000  Uiso   1.00
N33    N     0.24889   0.04389   0.13348   0.00000  Uiso   1.00
H34    H     0.26298   0.02942   0.10638   0.00000  Uiso   1.00
C35    C     0.28961   0.05555   0.16999   0.00000  Uiso   1.00
H36    H     0.30716   0.02745   0.18743   0.00000  Uiso   1.00
H37    H     0.27456   0.07518   0.19616   0.00000  Uiso   1.00
H38    H     0.31991   0.07352   0.15482   0.00000  Uiso   1.00
N39    N     0.08409   0.28953   0.20048   0.00000  Uiso   1.00
H40    H     0.06992   0.30418   0.22742   0.00000  Uiso   1.00
C41    C     0.04341   0.27727   0.16420   0.00000  Uiso   1.00
H42    H     0.01336   0.25927   0.17970   0.00000  Uiso   1.00
H43    H     0.05858   0.25748   0.13824   0.00000  Uiso   1.00
H44    H     0.02549   0.30509   0.14642   0.00000  Uiso   1.00
N45    N     0.07463   0.15956   0.03246   0.00000  Uiso   1.00
H46    H     0.04686   0.13782   0.02039   0.00000  Uiso   1.00
C47    C     0.05753   0.20205   0.02717   0.00000  Uiso   1.00
H48    H     0.02969   0.20803   0.05149   0.00000  Uiso   1.00
H49    H     0.03993   0.20798   0.32413   0.00000  Uiso   1.00
H50    H     0.08999   0.22454   0.03621   0.00000  Uiso   1.00
N51    N     0.24727   0.20482   0.29352   0.00000  Uiso   1.00
H52    H     0.28380   0.19504   0.30544   0.00000  Uiso   1.00
C53    C     0.24311   0.24908   0.28545   0.00000  Uiso   1.00
H54    H     0.25118   0.25638   0.24966   0.00000  Uiso   1.00
H55    H     0.27229   0.26612   0.30960   0.00000  Uiso   1.00
H56    H     0.20423   0.26034   0.28972   0.00000  Uiso   1.00
N57    N     0.08700   0.12737   0.27586   0.00000  Uiso   1.00
H58    H     0.05116   0.13950   0.27671   0.00000  Uiso   1.00
C59    C     0.08705   0.08299   0.28323   0.00000  Uiso   1.00
H60    H     0.12464   0.07018   0.27748   0.00000  Uiso   1.00
H61    H     0.05624   0.06829   0.25841   0.00000  Uiso   1.00
H62    H     0.07961   0.07525   0.31916   0.00000  Uiso   1.00
N63    N     0.25340   0.19489   0.05735   0.00000  Uiso   1.00
H64    H     0.28609   0.18190   0.04852   0.00000  Uiso   1.00
C65    C     0.25848   0.23815   0.07001   0.00000  Uiso   1.00
H66    H     0.28944   0.25344   0.05319   0.00000  Uiso   1.00
H67    H     0.27014   0.24015   0.10804   0.00000  Uiso   1.00
H68    H     0.22197   0.25496   0.06026   0.00000  Uiso   1.00
C69    C     0.50021   0.08763   0.16688   0.00000  Uiso   1.00
C70    C     0.49941   0.24573   0.16643   0.00000  Uiso   1.00
C71    C     0.40148   0.16600   0.15481   0.00000  Uiso   1.00
C72    C     0.59855   0.16723   0.17858   0.00000  Uiso   1.00
C73    C     0.34624   0.16349   0.14879   0.00000  Uiso   1.00
C74    C     0.65384   0.16955   0.18481   0.00000  Uiso   1.00
C75    C     0.54029   0.02200   0.14962   0.00000  Uiso   1.00
C76    C     0.45911   0.31146   0.18400   0.00000  Uiso   1.00
C77    C     0.53848   0.31228   0.14884   0.00000  Uiso   1.00
C78    C     0.46090   0.02128   0.18477   0.00000  Uiso   1.00
C79    C     0.49844   0.29043   0.16599   0.00000  Uiso   1.00
C80    C     0.50092   0.04302   0.16744   0.00000  Uiso   1.00
C81    C     0.45731   0.15471   0.01904   0.00000  Uiso   1.00
C82    C     0.53976   0.18456   0.31298   0.00000  Uiso   1.00
C83    C     0.46034   0.14910   0.30402   0.00000  Uiso   1.00
C84    C     0.54127   0.18203   0.02912   0.00000  Uiso   1.00
Cu85   Cu    0.50000   0.16667   0.21355   0.00000  Uiso   1.00
Cu86   Cu    0.50000   0.16666   0.11978   0.00000  Uiso   1.00
H87    H     0.56944   0.29599   0.13651   0.00000  Uiso   1.00
H88    H     0.43012   0.03789   0.19730   0.00000  Uiso   1.00
N89    N     0.50001   0.16668   0.28403   0.00000  Uiso   1.00
N90    N     0.49999   0.16666   0.04931   0.00000  Uiso   1.00
O91    O     0.50000   0.10655   0.20625   0.00000  Uiso   1.00
O92    O     0.50000   0.22678   0.12709   0.00000  Uiso   1.00
O93    O     0.50000   0.10654   0.12706   0.00000  Uiso   1.00
O94    O     0.50000   0.22679   0.20628   0.00000  Uiso   1.00
O95    O     0.42495   0.16667   0.19712   0.00000  Uiso   1.00
O96    O     0.57505   0.16666   0.13621   0.00000  Uiso   1.00
O97    O     0.42494   0.16666   0.11793   0.00000  Uiso   1.00
O98    O     0.57506   0.16667   0.21540   0.00000  Uiso   1.00
H99    H     0.66009   0.15533   0.11476   0.00000  Uiso   1.00
H100   H     0.34004   0.17745   0.21901   0.00000  Uiso   1.00
N101   N     0.58222   0.04389   0.13348   0.00000  Uiso   1.00
H102   H     0.59631   0.02942   0.10638   0.00000  Uiso   1.00
C103   C     0.62294   0.05555   0.16999   0.00000  Uiso   1.00
H104   H     0.64049   0.02745   0.18743   0.00000  Uiso   1.00
H105   H     0.60790   0.07518   0.19616   0.00000  Uiso   1.00
H106   H     0.65324   0.07352   0.15482   0.00000  Uiso   1.00
N107   N     0.41742   0.28953   0.20048   0.00000  Uiso   1.00
H108   H     0.40325   0.30418   0.22742   0.00000  Uiso   1.00
C109   C     0.37674   0.27727   0.16420   0.00000  Uiso   1.00
H110   H     0.34669   0.25927   0.17970   0.00000  Uiso   1.00
H111   H     0.39191   0.25748   0.13824   0.00000  Uiso   1.00
H112   H     0.35882   0.30509   0.14642   0.00000  Uiso   1.00
N113   N     0.40796   0.15956   0.03246   0.00000  Uiso   1.00
H114   H     0.38019   0.13782   0.02039   0.00000  Uiso   1.00
C115   C     0.39087   0.20205   0.02717   0.00000  Uiso   1.00
H116   H     0.36302   0.20803   0.05149   0.00000  Uiso   1.00
H117   H     0.37326   0.20798   0.32413   0.00000  Uiso   1.00
H118   H     0.42333   0.22454   0.03621   0.00000  Uiso   1.00
N119   N     0.58060   0.20482   0.29352   0.00000  Uiso   1.00
H120   H     0.61713   0.19504   0.30544   0.00000  Uiso   1.00
C121   C     0.57645   0.24908   0.28545   0.00000  Uiso   1.00
H122   H     0.58451   0.25638   0.24966   0.00000  Uiso   1.00
H123   H     0.60563   0.26612   0.30960   0.00000  Uiso   1.00
H124   H     0.53756   0.26034   0.28972   0.00000  Uiso   1.00
N125   N     0.42033   0.12737   0.27586   0.00000  Uiso   1.00
H126   H     0.38449   0.13950   0.27671   0.00000  Uiso   1.00
C127   C     0.42038   0.08299   0.28323   0.00000  Uiso   1.00
H128   H     0.45798   0.07018   0.27748   0.00000  Uiso   1.00
H129   H     0.38957   0.06829   0.25841   0.00000  Uiso   1.00
H130   H     0.41294   0.07525   0.31916   0.00000  Uiso   1.00
N131   N     0.58674   0.19489   0.05735   0.00000  Uiso   1.00
H132   H     0.61943   0.18190   0.04852   0.00000  Uiso   1.00
C133   C     0.59181   0.23815   0.07001   0.00000  Uiso   1.00
H134   H     0.62278   0.25344   0.05319   0.00000  Uiso   1.00
H135   H     0.60347   0.24015   0.10804   0.00000  Uiso   1.00
H136   H     0.55531   0.25496   0.06026   0.00000  Uiso   1.00
C137   C     0.83354   0.08763   0.16688   0.00000  Uiso   1.00
C138   C     0.83274   0.24573   0.16643   0.00000  Uiso   1.00
C139   C     0.73481   0.16600   0.15481   0.00000  Uiso   1.00
C140   C     0.93188   0.16723   0.17858   0.00000  Uiso   1.00
C141   C     0.67958   0.16349   0.14879   0.00000  Uiso   1.00
C142   C     0.98718   0.16955   0.18481   0.00000  Uiso   1.00
C143   C     0.87362   0.02200   0.14962   0.00000  Uiso   1.00
C144   C     0.79244   0.31146   0.18400   0.00000  Uiso   1.00
C145   C     0.87181   0.31228   0.14884   0.00000  Uiso   1.00
C146   C     0.79423   0.02128   0.18477   0.00000  Uiso   1.00
C147   C     0.83178   0.29043   0.16599   0.00000  Uiso   1.00
C148   C     0.83425   0.04302   0.16744   0.00000  Uiso   1.00
C149   C     0.79065   0.15471   0.01904   0.00000  Uiso   1.00
C150   C     0.87309   0.18456   0.31298   0.00000  Uiso   1.00
C151   C     0.79367   0.14910   0.30402   0.00000  Uiso   1.00
C152   C     0.87461   0.18203   0.02912   0.00000  Uiso   1.00
Cu153  Cu    0.83333   0.16667   0.21355   0.00000  Uiso   1.00
Cu154  Cu    0.83333   0.16666   0.11978   0.00000  Uiso   1.00
H155   H     0.90277   0.29599   0.13651   0.00000  Uiso   1.00
H156   H     0.76345   0.03789   0.19730   0.00000  Uiso   1.00
N157   N     0.83335   0.16668   0.28403   0.00000  Uiso   1.00
N158   N     0.83332   0.16666   0.04931   0.00000  Uiso   1.00
O159   O     0.83333   0.10655   0.20625   0.00000  Uiso   1.00
O160   O     0.83334   0.22678   0.12709   0.00000  Uiso   1.00
O161   O     0.83333   0.10654   0.12706   0.00000  Uiso   1.00
O162   O     0.83334   0.22679   0.20628   0.00000  Uiso   1.00
O163   O     0.75828   0.16667   0.19712   0.00000  Uiso   1.00
O164   O     0.90839   0.16666   0.13621   0.00000  Uiso   1.00
O165   O     0.75828   0.16666   0.11793   0.00000  Uiso   1.00
O166   O     0.90839   0.16667   0.21540   0.00000  Uiso   1.00
H167   H     0.99342   0.15533   0.11476   0.00000  Uiso   1.00
H168   H     0.67337   0.17745   0.21901   0.00000  Uiso   1.00
N169   N     0.91555   0.04389   0.13348   0.00000  Uiso   1.00
H170   H     0.92964   0.02942   0.10638   0.00000  Uiso   1.00
C171   C     0.95628   0.05555   0.16999   0.00000  Uiso   1.00
H172   H     0.97383   0.02745   0.18743   0.00000  Uiso   1.00
H173   H     0.94123   0.07518   0.19616   0.00000  Uiso   1.00
H174   H     0.98658   0.07352   0.15482   0.00000  Uiso   1.00
N175   N     0.75076   0.28953   0.20048   0.00000  Uiso   1.00
H176   H     0.73659   0.30418   0.22742   0.00000  Uiso   1.00
C177   C     0.71007   0.27727   0.16420   0.00000  Uiso   1.00
H178   H     0.68003   0.25927   0.17970   0.00000  Uiso   1.00
H179   H     0.72524   0.25748   0.13824   0.00000  Uiso   1.00
H180   H     0.69215   0.30509   0.14642   0.00000  Uiso   1.00
N181   N     0.74130   0.15956   0.03246   0.00000  Uiso   1.00
H182   H     0.71353   0.13782   0.02039   0.00000  Uiso   1.00
C183   C     0.72420   0.20205   0.02717   0.00000  Uiso   1.00
H184   H     0.69636   0.20803   0.05149   0.00000  Uiso   1.00
H185   H     0.70659   0.20798   0.32413   0.00000  Uiso   1.00
H186   H     0.75666   0.22454   0.03621   0.00000  Uiso   1.00
N187   N     0.91394   0.20482   0.29352   0.00000  Uiso   1.00
H188   H     0.95046   0.19504   0.30544   0.00000  Uiso   1.00
C189   C     0.90978   0.24908   0.28545   0.00000  Uiso   1.00
H190   H     0.91784   0.25638   0.24966   0.00000  Uiso   1.00
H191   H     0.93896   0.26612   0.30960   0.00000  Uiso   1.00
H192   H     0.87089   0.26034   0.28972   0.00000  Uiso   1.00
N193   N     0.75366   0.12737   0.27586   0.00000  Uiso   1.00
H194   H     0.71783   0.13950   0.27671   0.00000  Uiso   1.00
C195   C     0.75372   0.08299   0.28323   0.00000  Uiso   1.00
H196   H     0.79131   0.07018   0.27748   0.00000  Uiso   1.00
H197   H     0.72291   0.06829   0.25841   0.00000  Uiso   1.00
H198   H     0.74627   0.07525   0.31916   0.00000  Uiso   1.00
N199   N     0.92007   0.19489   0.05735   0.00000  Uiso   1.00
H200   H     0.95276   0.18190   0.04852   0.00000  Uiso   1.00
C201   C     0.92514   0.23815   0.07001   0.00000  Uiso   1.00
H202   H     0.95611   0.25344   0.05319   0.00000  Uiso   1.00
H203   H     0.93681   0.24015   0.10804   0.00000  Uiso   1.00
H204   H     0.88864   0.25496   0.06026   0.00000  Uiso   1.00
C205   C     0.16687   0.42097   0.16688   0.00000  Uiso   1.00
C206   C     0.16607   0.57907   0.16643   0.00000  Uiso   1.00
C207   C     0.06815   0.49933   0.15481   0.00000  Uiso   1.00
C208   C     0.26521   0.50056   0.17858   0.00000  Uiso   1.00
C209   C     0.01291   0.49682   0.14879   0.00000  Uiso   1.00
C210   C     0.32051   0.50288   0.18481   0.00000  Uiso   1.00
C211   C     0.20696   0.35534   0.14962   0.00000  Uiso   1.00
C212   C     0.12578   0.64479   0.18400   0.00000  Uiso   1.00
C213   C     0.20514   0.64561   0.14884   0.00000  Uiso   1.00
C214   C     0.12756   0.35461   0.18477   0.00000  Uiso   1.00
C215   C     0.16511   0.62376   0.16599   0.00000  Uiso   1.00
C216   C     0.16759   0.37635   0.16744   0.00000  Uiso   1.00
C217   C     0.12398   0.48805   0.01904   0.00000  Uiso   1.00
C218   C     0.20643   0.51790   0.31298   0.00000  Uiso   1.00
C219   C     0.12700   0.48244   0.30402   0.00000  Uiso   1.00
C220   C     0.20794   0.51536   0.02912   0.00000  Uiso   1.00
Cu221  Cu    0.16667   0.50001   0.21355   0.00000  Uiso   1.00
Cu222  Cu    0.16667   0.49999   0.11978   0.00000  Uiso   1.00
H223   H     0.23611   0.62932   0.13651   0.00000  Uiso   1.00
H224   H     0.09679   0.37122   0.19730   0.00000  Uiso   1.00
N225   N     0.16668   0.50001   0.28403   0.00000  Uiso   1.00
N226   N     0.16665   0.49999   0.04931   0.00000  Uiso   1.00
O227   O     0.16666   0.43989   0.20625   0.00000  Uiso   1.00
O228   O     0.16667   0.56011   0.12709   0.00000  Uiso   1.00
O229   O     0.16666   0.43988   0.12706   0.00000  Uiso   1.00
O230   O     0.16667   0.56012   0.20628   0.00000  Uiso   1.00
O231   O     0.09161   0.50000   0.19712   0.00000  Uiso   1.00
O232   O     0.24172   0.50000   0.13621   0.00000  Uiso   1.00
O233   O     0.09161   0.49999   0.11793   0.00000  Uiso   1.00
O234   O     0.24172   0.50001   0.21540   0.00000  Uiso   1.00
H235   H     0.32676   0.48867   0.11476   0.00000  Uiso   1.00
H236   H     0.00670   0.51079   0.21901   0.00000  Uiso   1.00
N237   N     0.24889   0.37723   0.13348   0.00000  Uiso   1.00
H238   H     0.26298   0.36275   0.10638   0.00000  Uiso   1.00
C239   C     0.28961   0.38888   0.16999   0.00000  Uiso   1.00
H240   H     0.30716   0.36078   0.18743   0.00000  Uiso   1.00
H241   H     0.27456   0.40852   0.19616   0.00000  Uiso   1.00
H242   H     0.31991   0.40686   0.15482   0.00000  Uiso   1.00
N243   N     0.08409   0.62286   0.20048   0.00000  Uiso   1.00
H244   H     0.06992   0.63751   0.22742   0.00000  Uiso   1.00
C245   C     0.04341   0.61060   0.16420   0.00000  Uiso   1.00
H246   H     0.01336   0.59261   0.17970   0.00000  Uiso   1.00
H247   H     0.05858   0.59081   0.13824   0.00000  Uiso   1.00
H248   H     0.02549   0.63842   0.14642   0.00000  Uiso   1.00
N249   N     0.07463   0.49289   0.03246   0.00000  Uiso   1.00
H250   H     0.04686   0.47116   0.02039   0.00000  Uiso   1.00
C251   C     0.05753   0.53539   0.02717   0.00000  Uiso   1.00
H252   H     0.02969   0.54137   0.05149   0.00000  Uiso   1.00
H253   H     0.03993   0.54131   0.32413   0.00000  Uiso   1.00
H254   H     0.08999   0.55787   0.03621   0.00000  Uiso   1.00
N255   N     0.24727   0.53815   0.29352   0.00000  Uiso   1.00
H256   H     0.28380   0.52837   0.30544   0.00000  Uiso   1.00
C257   C     0.24311   0.58241   0.28545   0.00000  Uiso   1.00
H258   H     0.25118   0.58971   0.24966   0.00000  Uiso   1.00
H259   H     0.27229   0.59946   0.30960   0.00000  Uiso   1.00
H260   H     0.20423   0.59367   0.28972   0.00000  Uiso   1.00
N261   N     0.08700   0.46071   0.27586   0.00000  Uiso   1.00
H262   H     0.05116   0.47284   0.27671   0.00000  Uiso   1.00
C263   C     0.08705   0.41633   0.28323   0.00000  Uiso   1.00
H264   H     0.12464   0.40352   0.27748   0.00000  Uiso   1.00
H265   H     0.05624   0.40163   0.25841   0.00000  Uiso   1.00
H266   H     0.07961   0.40858   0.31916   0.00000  Uiso   1.00
N267   N     0.25340   0.52822   0.05735   0.00000  Uiso   1.00
H268   H     0.28609   0.51523   0.04852   0.00000  Uiso   1.00
C269   C     0.25848   0.57148   0.07001   0.00000  Uiso   1.00
H270   H     0.28944   0.58678   0.05319   0.00000  Uiso   1.00
H271   H     0.27014   0.57348   0.10804   0.00000  Uiso   1.00
H272   H     0.22197   0.58829   0.06026   0.00000  Uiso   1.00
C273   C     0.50021   0.42097   0.16688   0.00000  Uiso   1.00
C274   C     0.49941   0.57907   0.16643   0.00000  Uiso   1.00
C275   C     0.40148   0.49933   0.15481   0.00000  Uiso   1.00
C276   C     0.59855   0.50056   0.17858   0.00000  Uiso   1.00
C277   C     0.34624   0.49682   0.14879   0.00000  Uiso   1.00
C278   C     0.65384   0.50288   0.18481   0.00000  Uiso   1.00
C279   C     0.54029   0.35534   0.14962   0.00000  Uiso   1.00
C280   C     0.45911   0.64479   0.18400   0.00000  Uiso   1.00
C281   C     0.53848   0.64561   0.14884   0.00000  Uiso   1.00
C282   C     0.46090   0.35461   0.18477   0.00000  Uiso   1.00
C283   C     0.49844   0.62376   0.16599   0.00000  Uiso   1.00
C284   C     0.50092   0.37635   0.16744   0.00000  Uiso   1.00
C285   C     0.45731   0.48805   0.01904   0.00000  Uiso   1.00
C286   C     0.53976   0.51790   0.31298   0.00000  Uiso   1.00
C287   C     0.46034   0.48244   0.30402   0.00000  Uiso   1.00
C288   C     0.54127   0.51536   0.02912   0.00000  Uiso   1.00
Cu289  Cu    0.50000   0.50001   0.21355   0.00000  Uiso   1.00
Cu290  Cu    0.50000   0.49999   0.11978   0.00000  Uiso   1.00
H291   H     0.56944   0.62932   0.13651   0.00000  Uiso   1.00
H292   H     0.43012   0.37122   0.19730   0.00000  Uiso   1.00
N293   N     0.50001   0.50001   0.28403   0.00000  Uiso   1.00
N294   N     0.49999   0.49999   0.04931   0.00000  Uiso   1.00
O295   O     0.50000   0.43989   0.20625   0.00000  Uiso   1.00
O296   O     0.50000   0.56011   0.12709   0.00000  Uiso   1.00
O297   O     0.50000   0.43988   0.12706   0.00000  Uiso   1.00
O298   O     0.50000   0.56012   0.20628   0.00000  Uiso   1.00
O299   O     0.42495   0.50000   0.19712   0.00000  Uiso   1.00
O300   O     0.57505   0.50000   0.13621   0.00000  Uiso   1.00
O301   O     0.42494   0.49999   0.11793   0.00000  Uiso   1.00
O302   O     0.57506   0.50001   0.21540   0.00000  Uiso   1.00
H303   H     0.66009   0.48867   0.11476   0.00000  Uiso   1.00
H304   H     0.34004   0.51079   0.21901   0.00000  Uiso   1.00
N305   N     0.58222   0.37723   0.13348   0.00000  Uiso   1.00
H306   H     0.59631   0.36275   0.10638   0.00000  Uiso   1.00
C307   C     0.62294   0.38888   0.16999   0.00000  Uiso   1.00
H308   H     0.64049   0.36078   0.18743   0.00000  Uiso   1.00
H309   H     0.60790   0.40852   0.19616   0.00000  Uiso   1.00
H310   H     0.65324   0.40686   0.15482   0.00000  Uiso   1.00
N311   N     0.41742   0.62286   0.20048   0.00000  Uiso   1.00
H312   H     0.40325   0.63751   0.22742   0.00000  Uiso   1.00
C313   C     0.37674   0.61060   0.16420   0.00000  Uiso   1.00
H314   H     0.34669   0.59261   0.17970   0.00000  Uiso   1.00
H315   H     0.39191   0.59081   0.13824   0.00000  Uiso   1.00
H316   H     0.35882   0.63842   0.14642   0.00000  Uiso   1.00
N317   N     0.40796   0.49289   0.03246   0.00000  Uiso   1.00
H318   H     0.38019   0.47116   0.02039   0.00000  Uiso   1.00
C319   C     0.39087   0.53539   0.02717   0.00000  Uiso   1.00
H320   H     0.36302   0.54137   0.05149   0.00000  Uiso   1.00
H321   H     0.37326   0.54131   0.32413   0.00000  Uiso   1.00
H322   H     0.42333   0.55787   0.03621   0.00000  Uiso   1.00
N323   N     0.58060   0.53815   0.29352   0.00000  Uiso   1.00
H324   H     0.61713   0.52837   0.30544   0.00000  Uiso   1.00
C325   C     0.57645   0.58241   0.28545   0.00000  Uiso   1.00
H326   H     0.58451   0.58971   0.24966   0.00000  Uiso   1.00
H327   H     0.60563   0.59946   0.30960   0.00000  Uiso   1.00
H328   H     0.53756   0.59367   0.28972   0.00000  Uiso   1.00
N329   N     0.42033   0.46071   0.27586   0.00000  Uiso   1.00
H330   H     0.38449   0.47284   0.27671   0.00000  Uiso   1.00
C331   C     0.42038   0.41633   0.28323   0.00000  Uiso   1.00
H332   H     0.45798   0.40352   0.27748   0.00000  Uiso   1.00
H333   H     0.38957   0.40163   0.25841   0.00000  Uiso   1.00
H334   H     0.41294   0.40858   0.31916   0.00000  Uiso   1.00
N335   N     0.58674   0.52822   0.05735   0.00000  Uiso   1.00
H336   H     0.61943   0.51523   0.04852   0.00000  Uiso   1.00
C337   C     0.59181   0.57148   0.07001   0.00000  Uiso   1.00
H338   H     0.62278   0.58678   0.05319   0.00000  Uiso   1.00
H339   H     0.60347   0.57348   0.10804   0.00000  Uiso   1.00
H340   H     0.55531   0.58829   0.06026   0.00000  Uiso   1.00
C341   C     0.83354   0.42097   0.16688   0.00000  Uiso   1.00
C342   C     0.83274   0.57907   0.16643   0.00000  Uiso   1.00
C343   C     0.73481   0.49933   0.15481   0.00000  Uiso   1.00
C344   C     0.93188   0.50056   0.17858   0.00000  Uiso   1.00
C345   C     0.67958   0.49682   0.14879   0.00000  Uiso   1.00
C346   C     0.98718   0.50288   0.18481   0.00000  Uiso   1.00
C347   C     0.87362   0.35534   0.14962   0.00000  Uiso   1.00
C348   C     0.79244   0.64479   0.18400   0.00000  Uiso   1.00
C349   C     0.87181   0.64561   0.14884   0.00000  Uiso   1.00
C350   C     0.79423   0.35461   0.18477   0.00000  Uiso   1.00
C351   C     0.83178   0.62376   0.16599   0.00000  Uiso   1.00
C352   C     0.83425   0.37635   0.16744   0.00000  Uiso   1.00
C353   C     0.79065   0.48805   0.01904   0.00000  Uiso   1.00
C354   C     0.87309   0.51790   0.31298   0.00000  Uiso   1.00
C355   C     0.79367   0.48244   0.30402   0.00000  Uiso   1.00
C356   C     0.87461   0.51536   0.02912   0.00000  Uiso   1.00
Cu357  Cu    0.83333   0.50001   0.21355   0.00000  Uiso   1.00
Cu358  Cu    0.83333   0.49999   0.11978   0.00000  Uiso   1.00
H359   H     0.90277   0.62932   0.13651   0.00000  Uiso   1.00
H360   H     0.76345   0.37122   0.19730   0.00000  Uiso   1.00
N361   N     0.83335   0.50001   0.28403   0.00000  Uiso   1.00
N362   N     0.83332   0.49999   0.04931   0.00000  Uiso   1.00
O363   O     0.83333   0.43989   0.20625   0.00000  Uiso   1.00
O364   O     0.83334   0.56011   0.12709   0.00000  Uiso   1.00
O365   O     0.83333   0.43988   0.12706   0.00000  Uiso   1.00
O366   O     0.83334   0.56012   0.20628   0.00000  Uiso   1.00
O367   O     0.75828   0.50000   0.19712   0.00000  Uiso   1.00
O368   O     0.90839   0.50000   0.13621   0.00000  Uiso   1.00
O369   O     0.75828   0.49999   0.11793   0.00000  Uiso   1.00
O370   O     0.90839   0.50001   0.21540   0.00000  Uiso   1.00
H371   H     0.99342   0.48867   0.11476   0.00000  Uiso   1.00
H372   H     0.67337   0.51079   0.21901   0.00000  Uiso   1.00
N373   N     0.91555   0.37723   0.13348   0.00000  Uiso   1.00
H374   H     0.92964   0.36275   0.10638   0.00000  Uiso   1.00
C375   C     0.95628   0.38888   0.16999   0.00000  Uiso   1.00
H376   H     0.97383   0.36078   0.18743   0.00000  Uiso   1.00
H377   H     0.94123   0.40852   0.19616   0.00000  Uiso   1.00
H378   H     0.98658   0.40686   0.15482   0.00000  Uiso   1.00
N379   N     0.75076   0.62286   0.20048   0.00000  Uiso   1.00
H380   H     0.73659   0.63751   0.22742   0.00000  Uiso   1.00
C381   C     0.71007   0.61060   0.16420   0.00000  Uiso   1.00
H382   H     0.68003   0.59261   0.17970   0.00000  Uiso   1.00
H383   H     0.72524   0.59081   0.13824   0.00000  Uiso   1.00
H384   H     0.69215   0.63842   0.14642   0.00000  Uiso   1.00
N385   N     0.74130   0.49289   0.03246   0.00000  Uiso   1.00
H386   H     0.71353   0.47116   0.02039   0.00000  Uiso   1.00
C387   C     0.72420   0.53539   0.02717   0.00000  Uiso   1.00
H388   H     0.69636   0.54137   0.05149   0.00000  Uiso   1.00
H389   H     0.70659   0.54131   0.32413   0.00000  Uiso   1.00
H390   H     0.75666   0.55787   0.03621   0.00000  Uiso   1.00
N391   N     0.91394   0.53815   0.29352   0.00000  Uiso   1.00
H392   H     0.95046   0.52837   0.30544   0.00000  Uiso   1.00
C393   C     0.90978   0.58241   0.28545   0.00000  Uiso   1.00
H394   H     0.91784   0.58971   0.24966   0.00000  Uiso   1.00
H395   H     0.93896   0.59946   0.30960   0.00000  Uiso   1.00
H396   H     0.87089   0.59367   0.28972   0.00000  Uiso   1.00
N397   N     0.75366   0.46071   0.27586   0.00000  Uiso   1.00
H398   H     0.71783   0.47284   0.27671   0.00000  Uiso   1.00
C399   C     0.75372   0.41633   0.28323   0.00000  Uiso   1.00
H400   H     0.79131   0.40352   0.27748   0.00000  Uiso   1.00
H401   H     0.72291   0.40163   0.25841   0.00000  Uiso   1.00
H402   H     0.74627   0.40858   0.31916   0.00000  Uiso   1.00
N403   N     0.92007   0.52822   0.05735   0.00000  Uiso   1.00
H404   H     0.95276   0.51523   0.04852   0.00000  Uiso   1.00
C405   C     0.92514   0.57148   0.07001   0.00000  Uiso   1.00
H406   H     0.95611   0.58678   0.05319   0.00000  Uiso   1.00
H407   H     0.93681   0.57348   0.10804   0.00000  Uiso   1.00
H408   H     0.88864   0.58829   0.06026   0.00000  Uiso   1.00
C409   C     0.16687   0.75430   0.16688   0.00000  Uiso   1.00
C410   C     0.16607   0.91240   0.16643   0.00000  Uiso   1.00
C411   C     0.06815   0.83266   0.15481   0.00000  Uiso   1.00
C412   C     0.26521   0.83390   0.17858   0.00000  Uiso   1.00
C413   C     0.01291   0.83016   0.14879   0.00000  Uiso   1.00
C414   C     0.32051   0.83621   0.18481   0.00000  Uiso   1.00
C415   C     0.20696   0.68867   0.14962   0.00000  Uiso   1.00
C416   C     0.12578   0.97813   0.18400   0.00000  Uiso   1.00
C417   C     0.20514   0.97894   0.14884   0.00000  Uiso   1.00
C418   C     0.12756   0.68794   0.18477   0.00000  Uiso   1.00
C419   C     0.16511   0.95709   0.16599   0.00000  Uiso   1.00
C420   C     0.16759   0.70968   0.16744   0.00000  Uiso   1.00
C421   C     0.12398   0.82138   0.01904   0.00000  Uiso   1.00
C422   C     0.20643   0.85123   0.31298   0.00000  Uiso   1.00
C423   C     0.12700   0.81577   0.30402   0.00000  Uiso   1.00
C424   C     0.20794   0.84870   0.02912   0.00000  Uiso   1.00
Cu425  Cu    0.16667   0.83334   0.21355   0.00000  Uiso   1.00
Cu426  Cu    0.16667   0.83333   0.11978   0.00000  Uiso   1.00
H427   H     0.23611   0.96265   0.13651   0.00000  Uiso   1.00
H428   H     0.09679   0.70456   0.19730   0.00000  Uiso   1.00
N429   N     0.16668   0.83334   0.28403   0.00000  Uiso   1.00
N430   N     0.16665   0.83332   0.04931   0.00000  Uiso   1.00
O431   O     0.16666   0.77322   0.20625   0.00000  Uiso   1.00
O432   O     0.16667   0.89345   0.12709   0.00000  Uiso   1.00
O433   O     0.16666   0.77321   0.12706   0.00000  Uiso   1.00
O434   O     0.16667   0.89346   0.20628   0.00000  Uiso   1.00
O435   O     0.09161   0.83334   0.19712   0.00000  Uiso   1.00
O436   O     0.24172   0.83333   0.13621   0.00000  Uiso   1.00
O437   O     0.09161   0.83333   0.11793   0.00000  Uiso   1.00
O438   O     0.24172   0.83334   0.21540   0.00000  Uiso   1.00
H439   H     0.32676   0.82200   0.11476   0.00000  Uiso   1.00
H440   H     0.00670   0.84412   0.21901   0.00000  Uiso   1.00
N441   N     0.24889   0.71056   0.13348   0.00000  Uiso   1.00
H442   H     0.26298   0.69608   0.10638   0.00000  Uiso   1.00
C443   C     0.28961   0.72222   0.16999   0.00000  Uiso   1.00
H444   H     0.30716   0.69411   0.18743   0.00000  Uiso   1.00
H445   H     0.27456   0.74185   0.19616   0.00000  Uiso   1.00
H446   H     0.31991   0.74019   0.15482   0.00000  Uiso   1.00
N447   N     0.08409   0.95619   0.20048   0.00000  Uiso   1.00
H448   H     0.06992   0.97084   0.22742   0.00000  Uiso   1.00
C449   C     0.04341   0.94394   0.16420   0.00000  Uiso   1.00
H450   H     0.01336   0.92594   0.17970   0.00000  Uiso   1.00
H451   H     0.05858   0.92415   0.13824   0.00000  Uiso   1.00
H452   H     0.02549   0.97175   0.14642   0.00000  Uiso   1.00
N453   N     0.07463   0.82622   0.03246   0.00000  Uiso   1.00
H454   H     0.04686   0.80449   0.02039   0.00000  Uiso   1.00
C455   C     0.05753   0.86872   0.02717   0.00000  Uiso   1.00
H456   H     0.02969   0.87470   0.05149   0.00000  Uiso   1.00
H457   H     0.03993   0.87465   0.32413   0.00000  Uiso   1.00
H458   H     0.08999   0.89120   0.03621   0.00000  Uiso   1.00
N459   N     0.24727   0.87148   0.29352   0.00000  Uiso   1.00
H460   H     0.28380   0.86171   0.30544   0.00000  Uiso   1.00
C461   C     0.24311   0.91574   0.28545   0.00000  Uiso   1.00
H462   H     0.25118   0.92304   0.24966   0.00000  Uiso   1.00
H463   H     0.27229   0.93279   0.30960   0.00000  Uiso   1.00
H464   H     0.20423   0.92700   0.28972   0.00000  Uiso   1.00
N465   N     0.08700   0.79404   0.27586   0.00000  Uiso   1.00
H466   H     0.05116   0.80617   0.27671   0.00000  Uiso   1.00
C467   C     0.08705   0.74966   0.28323   0.00000  Uiso   1.00
H468   H     0.12464   0.73685   0.27748   0.00000  Uiso   1.00
H469   H     0.05624   0.73496   0.25841   0.00000  Uiso   1.00
H470   H     0.07961   0.74192   0.31916   0.00000  Uiso   1.00
N471   N     0.25340   0.86156   0.05735   0.00000  Uiso   1.00
H472   H     0.28609   0.84857   0.04852   0.00000  Uiso   1.00
C473   C     0.25848   0.90482   0.07001   0.00000  Uiso   1.00
H474   H     0.28944   0.92011   0.05319   0.00000  Uiso   1.00
H475   H     0.27014   0.90682   0.10804   0.00000  Uiso   1.00
H476   H     0.22197   0.92163   0.06026   0.00000  Uiso   1.00
C477   C     0.50021   0.75430   0.16688   0.00000  Uiso   1.00
C478   C     0.49941   0.91240   0.16643   0.00000  Uiso   1.00
C479   C     0.40148   0.83266   0.15481   0.00000  Uiso   1.00
C480   C     0.59855   0.83390   0.17858   0.00000  Uiso   1.00
C481   C     0.34624   0.83016   0.14879   0.00000  Uiso   1.00
C482   C     0.65384   0.83621   0.18481   0.00000  Uiso   1.00
C483   C     0.54029   0.68867   0.14962   0.00000  Uiso   1.00
C484   C     0.45911   0.97813   0.18400   0.00000  Uiso   1.00
C485   C     0.53848   0.97894   0.14884   0.00000  Uiso   1.00
C486   C     0.46090   0.68794   0.18477   0.00000  Uiso   1.00
C487   C     0.49844   0.95709   0.16599   0.00000  Uiso   1.00
C488   C     0.50092   0.70968   0.16744   0.00000  Uiso   1.00
C489   C     0.45731   0.82138   0.01904   0.00000  Uiso   1.00
C490   C     0.53976   0.85123   0.31298   0.00000  Uiso   1.00
C491   C     0.46034   0.81577   0.30402   0.00000  Uiso   1.00
C492   C     0.54127   0.84870   0.02912   0.00000  Uiso   1.00
Cu493  Cu    0.50000   0.83334   0.21355   0.00000  Uiso   1.00
Cu494  Cu    0.50000   0.83333   0.11978   0.00000  Uiso   1.00
H495   H     0.56944   0.96265   0.13651   0.00000  Uiso   1.00
H496   H     0.43012   0.70456   0.19730   0.00000  Uiso   1.00
N497   N     0.50001   0.83334   0.28403   0.00000  Uiso   1.00
N498   N     0.49999   0.83332   0.04931   0.00000  Uiso   1.00
O499   O     0.50000   0.77322   0.20625   0.00000  Uiso   1.00
O500   O     0.50000   0.89345   0.12709   0.00000  Uiso   1.00
O501   O     0.50000   0.77321   0.12706   0.00000  Uiso   1.00
O502   O     0.50000   0.89346   0.20628   0.00000  Uiso   1.00
O503   O     0.42495   0.83334   0.19712   0.00000  Uiso   1.00
O504   O     0.57505   0.83333   0.13621   0.00000  Uiso   1.00
O505   O     0.42494   0.83333   0.11793   0.00000  Uiso   1.00
O506   O     0.57506   0.83334   0.21540   0.00000  Uiso   1.00
H507   H     0.66009   0.82200   0.11476   0.00000  Uiso   1.00
H508   H     0.34004   0.84412   0.21901   0.00000  Uiso   1.00
N509   N     0.58222   0.71056   0.13348   0.00000  Uiso   1.00
H510   H     0.59631   0.69608   0.10638   0.00000  Uiso   1.00
C511   C     0.62294   0.72222   0.16999   0.00000  Uiso   1.00
H512   H     0.64049   0.69411   0.18743   0.00000  Uiso   1.00
H513   H     0.60790   0.74185   0.19616   0.00000  Uiso   1.00
H514   H     0.65324   0.74019   0.15482   0.00000  Uiso   1.00
N515   N     0.41742   0.95619   0.20048   0.00000  Uiso   1.00
H516   H     0.40325   0.97084   0.22742   0.00000  Uiso   1.00
C517   C     0.37674   0.94394   0.16420   0.00000  Uiso   1.00
H518   H     0.34669   0.92594   0.17970   0.00000  Uiso   1.00
H519   H     0.39191   0.92415   0.13824   0.00000  Uiso   1.00
H520   H     0.35882   0.97175   0.14642   0.00000  Uiso   1.00
N521   N     0.40796   0.82622   0.03246   0.00000  Uiso   1.00
H522   H     0.38019   0.80449   0.02039   0.00000  Uiso   1.00
C523   C     0.39087   0.86872   0.02717   0.00000  Uiso   1.00
H524   H     0.36302   0.87470   0.05149   0.00000  Uiso   1.00
H525   H     0.37326   0.87465   0.32413   0.00000  Uiso   1.00
H526   H     0.42333   0.89120   0.03621   0.00000  Uiso   1.00
N527   N     0.58060   0.87148   0.29352   0.00000  Uiso   1.00
H528   H     0.61713   0.86171   0.30544   0.00000  Uiso   1.00
C529   C     0.57645   0.91574   0.28545   0.00000  Uiso   1.00
H530   H     0.58451   0.92304   0.24966   0.00000  Uiso   1.00
H531   H     0.60563   0.93279   0.30960   0.00000  Uiso   1.00
H532   H     0.53756   0.92700   0.28972   0.00000  Uiso   1.00
N533   N     0.42033   0.79404   0.27586   0.00000  Uiso   1.00
H534   H     0.38449   0.80617   0.27671   0.00000  Uiso   1.00
C535   C     0.42038   0.74966   0.28323   0.00000  Uiso   1.00
H536   H     0.45798   0.73685   0.27748   0.00000  Uiso   1.00
H537   H     0.38957   0.73496   0.25841   0.00000  Uiso   1.00
H538   H     0.41294   0.74192   0.31916   0.00000  Uiso   1.00
N539   N     0.58674   0.86156   0.05735   0.00000  Uiso   1.00
H540   H     0.61943   0.84857   0.04852   0.00000  Uiso   1.00
C541   C     0.59181   0.90482   0.07001   0.00000  Uiso   1.00
H542   H     0.62278   0.92011   0.05319   0.00000  Uiso   1.00
H543   H     0.60347   0.90682   0.10804   0.00000  Uiso   1.00
H544   H     0.55531   0.92163   0.06026   0.00000  Uiso   1.00
C545   C     0.83354   0.75430   0.16688   0.00000  Uiso   1.00
C546   C     0.83274   0.91240   0.16643   0.00000  Uiso   1.00
C547   C     0.73481   0.83266   0.15481   0.00000  Uiso   1.00
C548   C     0.93188   0.83390   0.17858   0.00000  Uiso   1.00
C549   C     0.67958   0.83016   0.14879   0.00000  Uiso   1.00
C550   C     0.98718   0.83621   0.18481   0.00000  Uiso   1.00
C551   C     0.87362   0.68867   0.14962   0.00000  Uiso   1.00
C552   C     0.79244   0.97813   0.18400   0.00000  Uiso   1.00
C553   C     0.87181   0.97894   0.14884   0.00000  Uiso   1.00
C554   C     0.79423   0.68794   0.18477   0.00000  Uiso   1.00
C555   C     0.83178   0.95709   0.16599   0.00000  Uiso   1.00
C556   C     0.83425   0.70968   0.16744   0.00000  Uiso   1.00
C557   C     0.79065   0.82138   0.01904   0.00000  Uiso   1.00
C558   C     0.87309   0.85123   0.31298   0.00000  Uiso   1.00
C559   C     0.79367   0.81577   0.30402   0.00000  Uiso   1.00
C560   C     0.87461   0.84870   0.02912   0.00000  Uiso   1.00
Cu561  Cu    0.83333   0.83334   0.21355   0.00000  Uiso   1.00
Cu562  Cu    0.83333   0.83333   0.11978   0.00000  Uiso   1.00
H563   H     0.90277   0.96265   0.13651   0.00000  Uiso   1.00
H564   H     0.76345   0.70456   0.19730   0.00000  Uiso   1.00
N565   N     0.83335   0.83334   0.28403   0.00000  Uiso   1.00
N566   N     0.83332   0.83332   0.04931   0.00000  Uiso   1.00
O567   O     0.83333   0.77322   0.20625   0.00000  Uiso   1.00
O568   O     0.83334   0.89345   0.12709   0.00000  Uiso   1.00
O569   O     0.83333   0.77321   0.12706   0.00000  Uiso   1.00
O570   O     0.83334   0.89346   0.20628   0.00000  Uiso   1.00
O571   O     0.75828   0.83334   0.19712   0.00000  Uiso   1.00
O572   O     0.90839   0.83333   0.13621   0.00000  Uiso   1.00
O573   O     0.75828   0.83333   0.11793   0.00000  Uiso   1.00
O574   O     0.90839   0.83334   0.21540   0.00000  Uiso   1.00
H575   H     0.99342   0.82200   0.11476   0.00000  Uiso   1.00
H576   H     0.67337   0.84412   0.21901   0.00000  Uiso   1.00
N577   N     0.91555   0.71056   0.13348   0.00000  Uiso   1.00
H578   H     0.92964   0.69608   0.10638   0.00000  Uiso   1.00
C579   C     0.95628   0.72222   0.16999   0.00000  Uiso   1.00
H580   H     0.97383   0.69411   0.18743   0.00000  Uiso   1.00
H581   H     0.94123   0.74185   0.19616   0.00000  Uiso   1.00
H582   H     0.98658   0.74019   0.15482   0.00000  Uiso   1.00
N583   N     0.75076   0.95619   0.20048   0.00000  Uiso   1.00
H584   H     0.73659   0.97084   0.22742   0.00000  Uiso   1.00
C585   C     0.71007   0.94394   0.16420   0.00000  Uiso   1.00
H586   H     0.68003   0.92594   0.17970   0.00000  Uiso   1.00
H587   H     0.72524   0.92415   0.13824   0.00000  Uiso   1.00
H588   H     0.69215   0.97175   0.14642   0.00000  Uiso   1.00
N589   N     0.74130   0.82622   0.03246   0.00000  Uiso   1.00
H590   H     0.71353   0.80449   0.02039   0.00000  Uiso   1.00
C591   C     0.72420   0.86872   0.02717   0.00000  Uiso   1.00
H592   H     0.69636   0.87470   0.05149   0.00000  Uiso   1.00
H593   H     0.70659   0.87465   0.32413   0.00000  Uiso   1.00
H594   H     0.75666   0.89120   0.03621   0.00000  Uiso   1.00
N595   N     0.91394   0.87148   0.29352   0.00000  Uiso   1.00
H596   H     0.95046   0.86171   0.30544   0.00000  Uiso   1.00
C597   C     0.90978   0.91574   0.28545   0.00000  Uiso   1.00
H598   H     0.91784   0.92304   0.24966   0.00000  Uiso   1.00
H599   H     0.93896   0.93279   0.30960   0.00000  Uiso   1.00
H600   H     0.87089   0.92700   0.28972   0.00000  Uiso   1.00
N601   N     0.75366   0.79404   0.27586   0.00000  Uiso   1.00
H602   H     0.71783   0.80617   0.27671   0.00000  Uiso   1.00
C603   C     0.75372   0.74966   0.28323   0.00000  Uiso   1.00
H604   H     0.79131   0.73685   0.27748   0.00000  Uiso   1.00
H605   H     0.72291   0.73496   0.25841   0.00000  Uiso   1.00
H606   H     0.74627   0.74192   0.31916   0.00000  Uiso   1.00
N607   N     0.92007   0.86156   0.05735   0.00000  Uiso   1.00
H608   H     0.95276   0.84857   0.04852   0.00000  Uiso   1.00
C609   C     0.92514   0.90482   0.07001   0.00000  Uiso   1.00
H610   H     0.95611   0.92011   0.05319   0.00000  Uiso   1.00
H611   H     0.93681   0.90682   0.10804   0.00000  Uiso   1.00
H612   H     0.88864   0.92163   0.06026   0.00000  Uiso   1.00
C613   C     0.16687   0.08763   0.50021   0.00000  Uiso   1.00
C614   C     0.16607   0.24573   0.49977   0.00000  Uiso   1.00
C615   C     0.06815   0.16600   0.48815   0.00000  Uiso   1.00
C616   C     0.26521   0.16723   0.51191   0.00000  Uiso   1.00
C617   C     0.01291   0.16349   0.48212   0.00000  Uiso   1.00
C618   C     0.32051   0.16955   0.51815   0.00000  Uiso   1.00
C619   C     0.20696   0.02200   0.48295   0.00000  Uiso   1.00
C620   C     0.12578   0.31146   0.51734   0.00000  Uiso   1.00
C621   C     0.20514   0.31228   0.48217   0.00000  Uiso   1.00
C622   C     0.12756   0.02128   0.51810   0.00000  Uiso   1.00
C623   C     0.16511   0.29043   0.49932   0.00000  Uiso   1.00
C624   C     0.16759   0.04302   0.50077   0.00000  Uiso   1.00
C625   C     0.12398   0.15471   0.35237   0.00000  Uiso   1.00
C626   C     0.20643   0.18456   0.64631   0.00000  Uiso   1.00
C627   C     0.12700   0.14910   0.63735   0.00000  Uiso   1.00
C628   C     0.20794   0.18203   0.36245   0.00000  Uiso   1.00
Cu629  Cu    0.16667   0.16667   0.54689   0.00000  Uiso   1.00
Cu630  Cu    0.16667   0.16666   0.45311   0.00000  Uiso   1.00
H631   H     0.23611   0.29599   0.46984   0.00000  Uiso   1.00
H632   H     0.09679   0.03789   0.53063   0.00000  Uiso   1.00
N633   N     0.16668   0.16668   0.61736   0.00000  Uiso   1.00
N634   N     0.16665   0.16666   0.38264   0.00000  Uiso   1.00
O635   O     0.16666   0.10655   0.53958   0.00000  Uiso   1.00
O636   O     0.16667   0.22678   0.46042   0.00000  Uiso   1.00
O637   O     0.16666   0.10654   0.46039   0.00000  Uiso   1.00
O638   O     0.16667   0.22679   0.53961   0.00000  Uiso   1.00
O639   O     0.09161   0.16667   0.53046   0.00000  Uiso   1.00
O640   O     0.24172   0.16666   0.46954   0.00000  Uiso   1.00
O641   O     0.09161   0.16666   0.45127   0.00000  Uiso   1.00
O642   O     0.24172   0.16667   0.54873   0.00000  Uiso   1.00
H643   H     0.32676   0.15533   0.44810   0.00000  Uiso   1.00
H644   H     0.00670   0.17745   0.55234   0.00000  Uiso   1.00
N645   N     0.24889   0.04389   0.46681   0.00000  Uiso   1.00
H646   H     0.26298   0.02942   0.43971   0.00000  Uiso   1.00
C647   C     0.28961   0.05555   0.50332   0.00000  Uiso   1.00
H648   H     0.30716   0.02745   0.52077   0.00000  Uiso   1.00
H649   H     0.27456   0.07518   0.52949   0.00000  Uiso   1.00
H650   H     0.31991   0.07352   0.48815   0.00000  Uiso   1.00
N651   N     0.08409   0.28953   0.53381   0.00000  Uiso   1.00
H652   H     0.06992   0.30418   0.56076   0.00000  Uiso   1.00
C653   C     0.04341   0.27727   0.49753   0.00000  Uiso   1.00
H654   H     0.01336   0.25927   0.51303   0.00000  Uiso   1.00
H655   H     0.05858   0.25748   0.47157   0.00000  Uiso   1.00
H656   H     0.02549   0.30509   0.47975   0.00000  Uiso   1.00
N657   N     0.07463   0.15956   0.36579   0.00000  Uiso   1.00
H658   H     0.04686   0.13782   0.35372   0.00000  Uiso   1.00
C659   C     0.05753   0.20205   0.36050   0.00000  Uiso   1.00
H660   H     0.02969   0.20803   0.38482   0.00000  Uiso   1.00
H661   H     0.03993   0.20798   0.65746   0.00000  Uiso   1.00
H662   H     0.08999   0.22454   0.36954   0.00000  Uiso   1.00
N663   N     0.24727   0.20482   0.62685   0.00000  Uiso   1.00
H664   H     0.28380   0.19504   0.63877   0.00000  Uiso   1.00
C665   C     0.24311   0.24908   0.61878   0.00000  Uiso   1.00
H666   H     0.25118   0.25638   0.58299   0.00000  Uiso   1.00
H667   H     0.27229   0.26612   0.64294   0.00000  Uiso   1.00
H668   H     0.20423   0.26034   0.62305   0.00000  Uiso   1.00
N669   N     0.08700   0.12737   0.60919   0.00000  Uiso   1.00
H670   H     0.05116   0.13950   0.61005   0.00000  Uiso   1.00
C671   C     0.08705   0.08299   0.61657   0.00000  Uiso   1.00
H672   H     0.12464   0.07018   0.61081   0.00000  Uiso   1.00
H673   H     0.05624   0.06829   0.59175   0.00000  Uiso   1.00
H674   H     0.07961   0.07525   0.65249   0.00000  Uiso   1.00
N675   N     0.25340   0.19489   0.39069   0.00000  Uiso   1.00
H676   H     0.28609   0.18190   0.38185   0.00000  Uiso   1.00
C677   C     0.25848   0.23815   0.40335   0.00000  Uiso   1.00
H678   H     0.28944   0.25344   0.38652   0.00000  Uiso   1.00
H679   H     0.27014   0.24015   0.44137   0.00000  Uiso   1.00
H680   H     0.22197   0.25496   0.39360   0.00000  Uiso   1.00
C681   C     0.50021   0.08763   0.50021   0.00000  Uiso   1.00
C682   C     0.49941   0.24573   0.49977   0.00000  Uiso   1.00
C683   C     0.40148   0.16600   0.48815   0.00000  Uiso   1.00
C684   C     0.59855   0.16723   0.51191   0.00000  Uiso   1.00
C685   C     0.34624   0.16349   0.48212   0.00000  Uiso   1.00
C686   C     0.65384   0.16955   0.51815   0.00000  Uiso   1.00
C687   C     0.54029   0.02200   0.48295   0.00000  Uiso   1.00
C688   C     0.45911   0.31146   0.51734   0.00000  Uiso   1.00
C689   C     0.53848   0.31228   0.48217   0.00000  Uiso   1.00
C690   C     0.46090   0.02128   0.51810   0.00000  Uiso   1.00
C691   C     0.49844   0.29043   0.49932   0.00000  Uiso   1.00
C692   C     0.50092   0.04302   0.50077   0.00000  Uiso   1.00
C693   C     0.45731   0.15471   0.35237   0.00000  Uiso   1.00
C694   C     0.53976   0.18456   0.64631   0.00000  Uiso   1.00
C695   C     0.46034   0.14910   0.63735   0.00000  Uiso   1.00
C696   C     0.54127   0.18203   0.36245   0.00000  Uiso   1.00
Cu697  Cu    0.50000   0.16667   0.54689   0.00000  Uiso   1.00
Cu698  Cu    0.50000   0.16666   0.45311   0.00000  Uiso   1.00
H699   H     0.56944   0.29599   0.46984   0.00000  Uiso   1.00
H700   H     0.43012   0.03789   0.53063   0.00000  Uiso   1.00
N701   N     0.50001   0.16668   0.61736   0.00000  Uiso   1.00
N702   N     0.49999   0.16666   0.38264   0.00000  Uiso   1.00
O703   O     0.50000   0.10655   0.53958   0.00000  Uiso   1.00
O704   O     0.50000   0.22678   0.46042   0.00000  Uiso   1.00
O705   O     0.50000   0.10654   0.46039   0.00000  Uiso   1.00
O706   O     0.50000   0.22679   0.53961   0.00000  Uiso   1.00
O707   O     0.42495   0.16667   0.53046   0.00000  Uiso   1.00
O708   O     0.57505   0.16666   0.46954   0.00000  Uiso   1.00
O709   O     0.42494   0.16666   0.45127   0.00000  Uiso   1.00
O710   O     0.57506   0.16667   0.54873   0.00000  Uiso   1.00
H711   H     0.66009   0.15533   0.44810   0.00000  Uiso   1.00
H712   H     0.34004   0.17745   0.55234   0.00000  Uiso   1.00
N713   N     0.58222   0.04389   0.46681   0.00000  Uiso   1.00
H714   H     0.59631   0.02942   0.43971   0.00000  Uiso   1.00
C715   C     0.62294   0.05555   0.50332   0.00000  Uiso   1.00
H716   H     0.64049   0.02745   0.52077   0.00000  Uiso   1.00
H717   H     0.60790   0.07518   0.52949   0.00000  Uiso   1.00
H718   H     0.65324   0.07352   0.48815   0.00000  Uiso   1.00
N719   N     0.41742   0.28953   0.53381   0.00000  Uiso   1.00
H720   H     0.40325   0.30418   0.56076   0.00000  Uiso   1.00
C721   C     0.37674   0.27727   0.49753   0.00000  Uiso   1.00
H722   H     0.34669   0.25927   0.51303   0.00000  Uiso   1.00
H723   H     0.39191   0.25748   0.47157   0.00000  Uiso   1.00
H724   H     0.35882   0.30509   0.47975   0.00000  Uiso   1.00
N725   N     0.40796   0.15956   0.36579   0.00000  Uiso   1.00
H726   H     0.38019   0.13782   0.35372   0.00000  Uiso   1.00
C727   C     0.39087   0.20205   0.36050   0.00000  Uiso   1.00
H728   H     0.36302   0.20803   0.38482   0.00000  Uiso   1.00
H729   H     0.37326   0.20798   0.65746   0.00000  Uiso   1.00
H730   H     0.42333   0.22454   0.36954   0.00000  Uiso   1.00
N731   N     0.58060   0.20482   0.62685   0.00000  Uiso   1.00
H732   H     0.61713   0.19504   0.63877   0.00000  Uiso   1.00
C733   C     0.57645   0.24908   0.61878   0.00000  Uiso   1.00
H734   H     0.58451   0.25638   0.58299   0.00000  Uiso   1.00
H735   H     0.60563   0.26612   0.64294   0.00000  Uiso   1.00
H736   H     0.53756   0.26034   0.62305   0.00000  Uiso   1.00
N737   N     0.42033   0.12737   0.60919   0.00000  Uiso   1.00
H738   H     0.38449   0.13950   0.61005   0.00000  Uiso   1.00
C739   C     0.42038   0.08299   0.61657   0.00000  Uiso   1.00
H740   H     0.45798   0.07018   0.61081   0.00000  Uiso   1.00
H741   H     0.38957   0.06829   0.59175   0.00000  Uiso   1.00
H742   H     0.41294   0.07525   0.65249   0.00000  Uiso   1.00
N743   N     0.58674   0.19489   0.39069   0.00000  Uiso   1.00
H744   H     0.61943   0.18190   0.38185   0.00000  Uiso   1.00
C745   C     0.59181   0.23815   0.40335   0.00000  Uiso   1.00
H746   H     0.62278   0.25344   0.38652   0.00000  Uiso   1.00
H747   H     0.60347   0.24015   0.44137   0.00000  Uiso   1.00
H748   H     0.55531   0.25496   0.39360   0.00000  Uiso   1.00
C749   C     0.83354   0.08763   0.50021   0.00000  Uiso   1.00
C750   C     0.83274   0.24573   0.49977   0.00000  Uiso   1.00
C751   C     0.73481   0.16600   0.48815   0.00000  Uiso   1.00
C752   C     0.93188   0.16723   0.51191   0.00000  Uiso   1.00
C753   C     0.67958   0.16349   0.48212   0.00000  Uiso   1.00
C754   C     0.98718   0.16955   0.51815   0.00000  Uiso   1.00
C755   C     0.87362   0.02200   0.48295   0.00000  Uiso   1.00
C756   C     0.79244   0.31146   0.51734   0.00000  Uiso   1.00
C757   C     0.87181   0.31228   0.48217   0.00000  Uiso   1.00
C758   C     0.79423   0.02128   0.51810   0.00000  Uiso   1.00
C759   C     0.83178   0.29043   0.49932   0.00000  Uiso   1.00
C760   C     0.83425   0.04302   0.50077   0.00000  Uiso   1.00
C761   C     0.79065   0.15471   0.35237   0.00000  Uiso   1.00
C762   C     0.87309   0.18456   0.64631   0.00000  Uiso   1.00
C763   C     0.79367   0.14910   0.63735   0.00000  Uiso   1.00
C764   C     0.87461   0.18203   0.36245   0.00000  Uiso   1.00
Cu765  Cu    0.83333   0.16667   0.54689   0.00000  Uiso   1.00
Cu766  Cu    0.83333   0.16666   0.45311   0.00000  Uiso   1.00
H767   H     0.90277   0.29599   0.46984   0.00000  Uiso   1.00
H768   H     0.76345   0.03789   0.53063   0.00000  Uiso   1.00
N769   N     0.83335   0.16668   0.61736   0.00000  Uiso   1.00
N770   N     0.83332   0.16666   0.38264   0.00000  Uiso   1.00
O771   O     0.83333   0.10655   0.53958   0.00000  Uiso   1.00
O772   O     0.83334   0.22678   0.46042   0.00000  Uiso   1.00
O773   O     0.83333   0.10654   0.46039   0.00000  Uiso   1.00
O774   O     0.83334   0.22679   0.53961   0.00000  Uiso   1.00
O775   O     0.75828   0.16667   0.53046   0.00000  Uiso   1.00
O776   O     0.90839   0.16666   0.46954   0.00000  Uiso   1.00
O777   O     0.75828   0.16666   0.45127   0.00000  Uiso   1.00
O778   O     0.90839   0.16667   0.54873   0.00000  Uiso   1.00
H779   H     0.99342   0.15533   0.44810   0.00000  Uiso   1.00
H780   H     0.67337   0.17745   0.55234   0.00000  Uiso   1.00
N781   N     0.91555   0.04389   0.46681   0.00000  Uiso   1.00
H782   H     0.92964   0.02942   0.43971   0.00000  Uiso   1.00
C783   C     0.95628   0.05555   0.50332   0.00000  Uiso   1.00
H784   H     0.97383   0.02745   0.52077   0.00000  Uiso   1.00
H785   H     0.94123   0.07518   0.52949   0.00000  Uiso   1.00
H786   H     0.98658   0.07352   0.48815   0.00000  Uiso   1.00
N787   N     0.75076   0.28953   0.53381   0.00000  Uiso   1.00
H788   H     0.73659   0.30418   0.56076   0.00000  Uiso   1.00
C789   C     0.71007   0.27727   0.49753   0.00000  Uiso   1.00
H790   H     0.68003   0.25927   0.51303   0.00000  Uiso   1.00
H791   H     0.72524   0.25748   0.47157   0.00000  Uiso   1.00
H792   H     0.69215   0.30509   0.47975   0.00000  Uiso   1.00
N793   N     0.74130   0.15956   0.36579   0.00000  Uiso   1.00
H794   H     0.71353   0.13782   0.35372   0.00000  Uiso   1.00
C795   C     0.72420   0.20205   0.36050   0.00000  Uiso   1.00
H796   H     0.69636   0.20803   0.38482   0.00000  Uiso   1.00
H797   H     0.70659   0.20798   0.65746   0.00000  Uiso   1.00
H798   H     0.75666   0.22454   0.36954   0.00000  Uiso   1.00
N799   N     0.91394   0.20482   0.62685   0.00000  Uiso   1.00
H800   H     0.95046   0.19504   0.63877   0.00000  Uiso   1.00
C801   C     0.90978   0.24908   0.61878   0.00000  Uiso   1.00
H802   H     0.91784   0.25638   0.58299   0.00000  Uiso   1.00
H803   H     0.93896   0.26612   0.64294   0.00000  Uiso   1.00
H804   H     0.87089   0.26034   0.62305   0.00000  Uiso   1.00
N805   N     0.75366   0.12737   0.60919   0.00000  Uiso   1.00
H806   H     0.71783   0.13950   0.61005   0.00000  Uiso   1.00
C807   C     0.75372   0.08299   0.61657   0.00000  Uiso   1.00
H808   H     0.79131   0.07018   0.61081   0.00000  Uiso   1.00
H809   H     0.72291   0.06829   0.59175   0.00000  Uiso   1.00
H810   H     0.74627   0.07525   0.65249   0.00000  Uiso   1.00
N811   N     0.92007   0.19489   0.39069   0.00000  Uiso   1.00
H812   H     0.95276   0.18190   0.38185   0.00000  Uiso   1.00
C813   C     0.92514   0.23815   0.40335   0.00000  Uiso   1.00
H814   H     0.95611   0.25344   0.38652   0.00000  Uiso   1.00
H815   H     0.93681   0.24015   0.44137   0.00000  Uiso   1.00
H816   H     0.88864   0.25496   0.39360   0.00000  Uiso   1.00
C817   C     0.16687   0.42097   0.50021   0.00000  Uiso   1.00
C818   C     0.16607   0.57907   0.49977   0.00000  Uiso   1.00
C819   C     0.06815   0.49933   0.48815   0.00000  Uiso   1.00
C820   C     0.26521   0.50056   0.51191   0.00000  Uiso   1.00
C821   C     0.01291   0.49682   0.48212   0.00000  Uiso   1.00
C822   C     0.32051   0.50288   0.51815   0.00000  Uiso   1.00
C823   C     0.20696   0.35534   0.48295   0.00000  Uiso   1.00
C824   C     0.12578   0.64479   0.51734   0.00000  Uiso   1.00
C825   C     0.20514   0.64561   0.48217   0.00000  Uiso   1.00
C826   C     0.12756   0.35461   0.51810   0.00000  Uiso   1.00
C827   C     0.16511   0.62376   0.49932   0.00000  Uiso   1.00
C828   C     0.16759   0.37635   0.50077   0.00000  Uiso   1.00
C829   C     0.12398   0.48805   0.35237   0.00000  Uiso   1.00
C830   C     0.20643   0.51790   0.64631   0.00000  Uiso   1.00
C831   C     0.12700   0.48244   0.63735   0.00000  Uiso   1.00
C832   C     0.20794   0.51536   0.36245   0.00000  Uiso   1.00
Cu833  Cu    0.16667   0.50001   0.54689   0.00000  Uiso   1.00
Cu834  Cu    0.16667   0.49999   0.45311   0.00000  Uiso   1.00
H835   H     0.23611   0.62932   0.46984   0.00000  Uiso   1.00
H836   H     0.09679   0.37122   0.53063   0.00000  Uiso   1.00
N837   N     0.16668   0.50001   0.61736   0.00000  Uiso   1.00
N838   N     0.16665   0.49999   0.38264   0.00000  Uiso   1.00
O839   O     0.16666   0.43989   0.53958   0.00000  Uiso   1.00
O840   O     0.16667   0.56011   0.46042   0.00000  Uiso   1.00
O841   O     0.16666   0.43988   0.46039   0.00000  Uiso   1.00
O842   O     0.16667   0.56012   0.53961   0.00000  Uiso   1.00
O843   O     0.09161   0.50000   0.53046   0.00000  Uiso   1.00
O844   O     0.24172   0.50000   0.46954   0.00000  Uiso   1.00
O845   O     0.09161   0.49999   0.45127   0.00000  Uiso   1.00
O846   O     0.24172   0.50001   0.54873   0.00000  Uiso   1.00
H847   H     0.32676   0.48867   0.44810   0.00000  Uiso   1.00
H848   H     0.00670   0.51079   0.55234   0.00000  Uiso   1.00
N849   N     0.24889   0.37723   0.46681   0.00000  Uiso   1.00
H850   H     0.26298   0.36275   0.43971   0.00000  Uiso   1.00
C851   C     0.28961   0.38888   0.50332   0.00000  Uiso   1.00
H852   H     0.30716   0.36078   0.52077   0.00000  Uiso   1.00
H853   H     0.27456   0.40852   0.52949   0.00000  Uiso   1.00
H854   H     0.31991   0.40686   0.48815   0.00000  Uiso   1.00
N855   N     0.08409   0.62286   0.53381   0.00000  Uiso   1.00
H856   H     0.06992   0.63751   0.56076   0.00000  Uiso   1.00
C857   C     0.04341   0.61060   0.49753   0.00000  Uiso   1.00
H858   H     0.01336   0.59261   0.51303   0.00000  Uiso   1.00
H859   H     0.05858   0.59081   0.47157   0.00000  Uiso   1.00
H860   H     0.02549   0.63842   0.47975   0.00000  Uiso   1.00
N861   N     0.07463   0.49289   0.36579   0.00000  Uiso   1.00
H862   H     0.04686   0.47116   0.35372   0.00000  Uiso   1.00
C863   C     0.05753   0.53539   0.36050   0.00000  Uiso   1.00
H864   H     0.02969   0.54137   0.38482   0.00000  Uiso   1.00
H865   H     0.03993   0.54131   0.65746   0.00000  Uiso   1.00
H866   H     0.08999   0.55787   0.36954   0.00000  Uiso   1.00
N867   N     0.24727   0.53815   0.62685   0.00000  Uiso   1.00
H868   H     0.28380   0.52837   0.63877   0.00000  Uiso   1.00
C869   C     0.24311   0.58241   0.61878   0.00000  Uiso   1.00
H870   H     0.25118   0.58971   0.58299   0.00000  Uiso   1.00
H871   H     0.27229   0.59946   0.64294   0.00000  Uiso   1.00
H872   H     0.20423   0.59367   0.62305   0.00000  Uiso   1.00
N873   N     0.08700   0.46071   0.60919   0.00000  Uiso   1.00
H874   H     0.05116   0.47284   0.61005   0.00000  Uiso   1.00
C875   C     0.08705   0.41633   0.61657   0.00000  Uiso   1.00
H876   H     0.12464   0.40352   0.61081   0.00000  Uiso   1.00
H877   H     0.05624   0.40163   0.59175   0.00000  Uiso   1.00
H878   H     0.07961   0.40858   0.65249   0.00000  Uiso   1.00
N879   N     0.25340   0.52822   0.39069   0.00000  Uiso   1.00
H880   H     0.28609   0.51523   0.38185   0.00000  Uiso   1.00
C881   C     0.25848   0.57148   0.40335   0.00000  Uiso   1.00
H882   H     0.28944   0.58678   0.38652   0.00000  Uiso   1.00
H883   H     0.27014   0.57348   0.44137   0.00000  Uiso   1.00
H884   H     0.22197   0.58829   0.39360   0.00000  Uiso   1.00
C885   C     0.50021   0.42097   0.50021   0.00000  Uiso   1.00
C886   C     0.49941   0.57907   0.49977   0.00000  Uiso   1.00
C887   C     0.40148   0.49933   0.48815   0.00000  Uiso   1.00
C888   C     0.59855   0.50056   0.51191   0.00000  Uiso   1.00
C889   C     0.34624   0.49682   0.48212   0.00000  Uiso   1.00
C890   C     0.65384   0.50288   0.51815   0.00000  Uiso   1.00
C891   C     0.54029   0.35534   0.48295   0.00000  Uiso   1.00
C892   C     0.45911   0.64479   0.51734   0.00000  Uiso   1.00
C893   C     0.53848   0.64561   0.48217   0.00000  Uiso   1.00
C894   C     0.46090   0.35461   0.51810   0.00000  Uiso   1.00
C895   C     0.49844   0.62376   0.49932   0.00000  Uiso   1.00
C896   C     0.50092   0.37635   0.50077   0.00000  Uiso   1.00
C897   C     0.45731   0.48805   0.35237   0.00000  Uiso   1.00
C898   C     0.53976   0.51790   0.64631   0.00000  Uiso   1.00
C899   C     0.46034   0.48244   0.63735   0.00000  Uiso   1.00
C900   C     0.54127   0.51536   0.36245   0.00000  Uiso   1.00
Cu901  Cu    0.50000   0.50001   0.54689   0.00000  Uiso   1.00
Cu902  Cu    0.50000   0.49999   0.45311   0.00000  Uiso   1.00
H903   H     0.56944   0.62932   0.46984   0.00000  Uiso   1.00
H904   H     0.43012   0.37122   0.53063   0.00000  Uiso   1.00
N905   N     0.50001   0.50001   0.61736   0.00000  Uiso   1.00
N906   N     0.49999   0.49999   0.38264   0.00000  Uiso   1.00
O907   O     0.50000   0.43989   0.53958   0.00000  Uiso   1.00
O908   O     0.50000   0.56011   0.46042   0.00000  Uiso   1.00
O909   O     0.50000   0.43988   0.46039   0.00000  Uiso   1.00
O910   O     0.50000   0.56012   0.53961   0.00000  Uiso   1.00
O911   O     0.42495   0.50000   0.53046   0.00000  Uiso   1.00
O912   O     0.57505   0.50000   0.46954   0.00000  Uiso   1.00
O913   O     0.42494   0.49999   0.45127   0.00000  Uiso   1.00
O914   O     0.57506   0.50001   0.54873   0.00000  Uiso   1.00
H915   H     0.66009   0.48867   0.44810   0.00000  Uiso   1.00
H916   H     0.34004   0.51079   0.55234   0.00000  Uiso   1.00
N917   N     0.58222   0.37723   0.46681   0.00000  Uiso   1.00
H918   H     0.59631   0.36275   0.43971   0.00000  Uiso   1.00
C919   C     0.62294   0.38888   0.50332   0.00000  Uiso   1.00
H920   H     0.64049   0.36078   0.52077   0.00000  Uiso   1.00
H921   H     0.60790   0.40852   0.52949   0.00000  Uiso   1.00
H922   H     0.65324   0.40686   0.48815   0.00000  Uiso   1.00
N923   N     0.41742   0.62286   0.53381   0.00000  Uiso   1.00
H924   H     0.40325   0.63751   0.56076   0.00000  Uiso   1.00
C925   C     0.37674   0.61060   0.49753   0.00000  Uiso   1.00
H926   H     0.34669   0.59261   0.51303   0.00000  Uiso   1.00
H927   H     0.39191   0.59081   0.47157   0.00000  Uiso   1.00
H928   H     0.35882   0.63842   0.47975   0.00000  Uiso   1.00
N929   N     0.40796   0.49289   0.36579   0.00000  Uiso   1.00
H930   H     0.38019   0.47116   0.35372   0.00000  Uiso   1.00
C931   C     0.39087   0.53539   0.36050   0.00000  Uiso   1.00
H932   H     0.36302   0.54137   0.38482   0.00000  Uiso   1.00
H933   H     0.37326   0.54131   0.65746   0.00000  Uiso   1.00
H934   H     0.42333   0.55787   0.36954   0.00000  Uiso   1.00
N935   N     0.58060   0.53815   0.62685   0.00000  Uiso   1.00
H936   H     0.61713   0.52837   0.63877   0.00000  Uiso   1.00
C937   C     0.57645   0.58241   0.61878   0.00000  Uiso   1.00
H938   H     0.58451   0.58971   0.58299   0.00000  Uiso   1.00
H939   H     0.60563   0.59946   0.64294   0.00000  Uiso   1.00
H940   H     0.53756   0.59367   0.62305   0.00000  Uiso   1.00
N941   N     0.42033   0.46071   0.60919   0.00000  Uiso   1.00
H942   H     0.38449   0.47284   0.61005   0.00000  Uiso   1.00
C943   C     0.42038   0.41633   0.61657   0.00000  Uiso   1.00
H944   H     0.45798   0.40352   0.61081   0.00000  Uiso   1.00
H945   H     0.38957   0.40163   0.59175   0.00000  Uiso   1.00
H946   H     0.41294   0.40858   0.65249   0.00000  Uiso   1.00
N947   N     0.58674   0.52822   0.39069   0.00000  Uiso   1.00
H948   H     0.61943   0.51523   0.38185   0.00000  Uiso   1.00
C949   C     0.59181   0.57148   0.40335   0.00000  Uiso   1.00
H950   H     0.62278   0.58678   0.38652   0.00000  Uiso   1.00
H951   H     0.60347   0.57348   0.44137   0.00000  Uiso   1.00
H952   H     0.55531   0.58829   0.39360   0.00000  Uiso   1.00
C953   C     0.83354   0.42097   0.50021   0.00000  Uiso   1.00
C954   C     0.83274   0.57907   0.49977   0.00000  Uiso   1.00
C955   C     0.73481   0.49933   0.48815   0.00000  Uiso   1.00
C956   C     0.93188   0.50056   0.51191   0.00000  Uiso   1.00
C957   C     0.67958   0.49682   0.48212   0.00000  Uiso   1.00
C958   C     0.98718   0.50288   0.51815   0.00000  Uiso   1.00
C959   C     0.87362   0.35534   0.48295   0.00000  Uiso   1.00
C960   C     0.79244   0.64479   0.51734   0.00000  Uiso   1.00
C961   C     0.87181   0.64561   0.48217   0.00000  Uiso   1.00
C962   C     0.79423   0.35461   0.51810   0.00000  Uiso   1.00
C963   C     0.83178   0.62376   0.49932   0.00000  Uiso   1.00
C964   C     0.83425   0.37635   0.50077   0.00000  Uiso   1.00
C965   C     0.79065   0.48805   0.35237   0.00000  Uiso   1.00
C966   C     0.87309   0.51790   0.64631   0.00000  Uiso   1.00
C967   C     0.79367   0.48244   0.63735   0.00000  Uiso   1.00
C968   C     0.87461   0.51536   0.36245   0.00000  Uiso   1.00
Cu969  Cu    0.83333   0.50001   0.54689   0.00000  Uiso   1.00
Cu970  Cu    0.83333   0.49999   0.45311   0.00000  Uiso   1.00
H971   H     0.90277   0.62932   0.46984   0.00000  Uiso   1.00
H972   H     0.76345   0.37122   0.53063   0.00000  Uiso   1.00
N973   N     0.83335   0.50001   0.61736   0.00000  Uiso   1.00
N974   N     0.83332   0.49999   0.38264   0.00000  Uiso   1.00
O975   O     0.83333   0.43989   0.53958   0.00000  Uiso   1.00
O976   O     0.83334   0.56011   0.46042   0.00000  Uiso   1.00
O977   O     0.83333   0.43988   0.46039   0.00000  Uiso   1.00
O978   O     0.83334   0.56012   0.53961   0.00000  Uiso   1.00
O979   O     0.75828   0.50000   0.53046   0.00000  Uiso   1.00
O980   O     0.90839   0.50000   0.46954   0.00000  Uiso   1.00
O981   O     0.75828   0.49999   0.45127   0.00000  Uiso   1.00
O982   O     0.90839   0.50001   0.54873   0.00000  Uiso   1.00
H983   H     0.99342   0.48867   0.44810   0.00000  Uiso   1.00
H984   H     0.67337   0.51079   0.55234   0.00000  Uiso   1.00
N985   N     0.91555   0.37723   0.46681   0.00000  Uiso   1.00
H986   H     0.92964   0.36275   0.43971   0.00000  Uiso   1.00
C987   C     0.95628   0.38888   0.50332   0.00000  Uiso   1.00
H988   H     0.97383   0.36078   0.52077   0.00000  Uiso   1.00
H989   H     0.94123   0.40852   0.52949   0.00000  Uiso   1.00
H990   H     0.98658   0.40686   0.48815   0.00000  Uiso   1.00
N991   N     0.75076   0.62286   0.53381   0.00000  Uiso   1.00
H992   H     0.73659   0.63751   0.56076   0.00000  Uiso   1.00
C993   C     0.71007   0.61060   0.49753   0.00000  Uiso   1.00
H994   H     0.68003   0.59261   0.51303   0.00000  Uiso   1.00
H995   H     0.72524   0.59081   0.47157   0.00000  Uiso   1.00
H996   H     0.69215   0.63842   0.47975   0.00000  Uiso   1.00
N997   N     0.74130   0.49289   0.36579   0.00000  Uiso   1.00
H998   H     0.71353   0.47116   0.35372   0.00000  Uiso   1.00
C999   C     0.72420   0.53539   0.36050   0.00000  Uiso   1.00
H1000  H     0.69636   0.54137   0.38482   0.00000  Uiso   1.00
H1001  H     0.70659   0.54131   0.65746   0.00000  Uiso   1.00
H1002  H     0.75666   0.55787   0.36954   0.00000  Uiso   1.00
N1003  N     0.91394   0.53815   0.62685   0.00000  Uiso   1.00
H1004  H     0.95046   0.52837   0.63877   0.00000  Uiso   1.00
C1005  C     0.90978   0.58241   0.61878   0.00000  Uiso   1.00
H1006  H     0.91784   0.58971   0.58299   0.00000  Uiso   1.00
H1007  H     0.93896   0.59946   0.64294   0.00000  Uiso   1.00
H1008  H     0.87089   0.59367   0.62305   0.00000  Uiso   1.00
N1009  N     0.75366   0.46071   0.60919   0.00000  Uiso   1.00
H1010  H     0.71783   0.47284   0.61005   0.00000  Uiso   1.00
C1011  C     0.75372   0.41633   0.61657   0.00000  Uiso   1.00
H1012  H     0.79131   0.40352   0.61081   0.00000  Uiso   1.00
H1013  H     0.72291   0.40163   0.59175   0.00000  Uiso   1.00
H1014  H     0.74627   0.40858   0.65249   0.00000  Uiso   1.00
N1015  N     0.92007   0.52822   0.39069   0.00000  Uiso   1.00
H1016  H     0.95276   0.51523   0.38185   0.00000  Uiso   1.00
C1017  C     0.92514   0.57148   0.40335   0.00000  Uiso   1.00
H1018  H     0.95611   0.58678   0.38652   0.00000  Uiso   1.00
H1019  H     0.93681   0.57348   0.44137   0.00000  Uiso   1.00
H1020  H     0.88864   0.58829   0.39360   0.00000  Uiso   1.00
C1021  C     0.16687   0.75430   0.50021   0.00000  Uiso   1.00
C1022  C     0.16607   0.91240   0.49977   0.00000  Uiso   1.00
C1023  C     0.06815   0.83266   0.48815   0.00000  Uiso   1.00
C1024  C     0.26521   0.83390   0.51191   0.00000  Uiso   1.00
C1025  C     0.01291   0.83016   0.48212   0.00000  Uiso   1.00
C1026  C     0.32051   0.83621   0.51815   0.00000  Uiso   1.00
C1027  C     0.20696   0.68867   0.48295   0.00000  Uiso   1.00
C1028  C     0.12578   0.97813   0.51734   0.00000  Uiso   1.00
C1029  C     0.20514   0.97894   0.48217   0.00000  Uiso   1.00
C1030  C     0.12756   0.68794   0.51810   0.00000  Uiso   1.00
C1031  C     0.16511   0.95709   0.49932   0.00000  Uiso   1.00
C1032  C     0.16759   0.70968   0.50077   0.00000  Uiso   1.00
C1033  C     0.12398   0.82138   0.35237   0.00000  Uiso   1.00
C1034  C     0.20643   0.85123   0.64631   0.00000  Uiso   1.00
C1035  C     0.12700   0.81577   0.63735   0.00000  Uiso   1.00
C1036  C     0.20794   0.84870   0.36245   0.00000  Uiso   1.00
Cu1037 Cu    0.16667   0.83334   0.54689   0.00000  Uiso   1.00
Cu1038 Cu    0.16667   0.83333   0.45311   0.00000  Uiso   1.00
H1039  H     0.23611   0.96265   0.46984   0.00000  Uiso   1.00
H1040  H     0.09679   0.70456   0.53063   0.00000  Uiso   1.00
N1041  N     0.16668   0.83334   0.61736   0.00000  Uiso   1.00
N1042  N     0.16665   0.83332   0.38264   0.00000  Uiso   1.00
O1043  O     0.16666   0.77322   0.53958   0.00000  Uiso   1.00
O1044  O     0.16667   0.89345   0.46042   0.00000  Uiso   1.00
O1045  O     0.16666   0.77321   0.46039   0.00000  Uiso   1.00
O1046  O     0.16667   0.89346   0.53961   0.00000  Uiso   1.00
O1047  O     0.09161   0.83334   0.53046   0.00000  Uiso   1.00
O1048  O     0.24172   0.83333   0.46954   0.00000  Uiso   1.00
O1049  O     0.09161   0.83333   0.45127   0.00000  Uiso   1.00
O1050  O     0.24172   0.83334   0.54873   0.00000  Uiso   1.00
H1051  H     0.32676   0.82200   0.44810   0.00000  Uiso   1.00
H1052  H     0.00670   0.84412   0.55234   0.00000  Uiso   1.00
N1053  N     0.24889   0.71056   0.46681   0.00000  Uiso   1.00
H1054  H     0.26298   0.69608   0.43971   0.00000  Uiso   1.00
C1055  C     0.28961   0.72222   0.50332   0.00000  Uiso   1.00
H1056  H     0.30716   0.69411   0.52077   0.00000  Uiso   1.00
H1057  H     0.27456   0.74185   0.52949   0.00000  Uiso   1.00
H1058  H     0.31991   0.74019   0.48815   0.00000  Uiso   1.00
N1059  N     0.08409   0.95619   0.53381   0.00000  Uiso   1.00
H1060  H     0.06992   0.97084   0.56076   0.00000  Uiso   1.00
C1061  C     0.04341   0.94394   0.49753   0.00000  Uiso   1.00
H1062  H     0.01336   0.92594   0.51303   0.00000  Uiso   1.00
H1063  H     0.05858   0.92415   0.47157   0.00000  Uiso   1.00
H1064  H     0.02549   0.97175   0.47975   0.00000  Uiso   1.00
N1065  N     0.07463   0.82622   0.36579   0.00000  Uiso   1.00
H1066  H     0.04686   0.80449   0.35372   0.00000  Uiso   1.00
C1067  C     0.05753   0.86872   0.36050   0.00000  Uiso   1.00
H1068  H     0.02969   0.87470   0.38482   0.00000  Uiso   1.00
H1069  H     0.03993   0.87465   0.65746   0.00000  Uiso   1.00
H1070  H     0.08999   0.89120   0.36954   0.00000  Uiso   1.00
N1071  N     0.24727   0.87148   0.62685   0.00000  Uiso   1.00
H1072  H     0.28380   0.86171   0.63877   0.00000  Uiso   1.00
C1073  C     0.24311   0.91574   0.61878   0.00000  Uiso   1.00
H1074  H     0.25118   0.92304   0.58299   0.00000  Uiso   1.00
H1075  H     0.27229   0.93279   0.64294   0.00000  Uiso   1.00
H1076  H     0.20423   0.92700   0.62305   0.00000  Uiso   1.00
N1077  N     0.08700   0.79404   0.60919   0.00000  Uiso   1.00
H1078  H     0.05116   0.80617   0.61005   0.00000  Uiso   1.00
C1079  C     0.08705   0.74966   0.61657   0.00000  Uiso   1.00
H1080  H     0.12464   0.73685   0.61081   0.00000  Uiso   1.00
H1081  H     0.05624   0.73496   0.59175   0.00000  Uiso   1.00
H1082  H     0.07961   0.74192   0.65249   0.00000  Uiso   1.00
N1083  N     0.25340   0.86156   0.39069   0.00000  Uiso   1.00
H1084  H     0.28609   0.84857   0.38185   0.00000  Uiso   1.00
C1085  C     0.25848   0.90482   0.40335   0.00000  Uiso   1.00
H1086  H     0.28944   0.92011   0.38652   0.00000  Uiso   1.00
H1087  H     0.27014   0.90682   0.44137   0.00000  Uiso   1.00
H1088  H     0.22197   0.92163   0.39360   0.00000  Uiso   1.00
C1089  C     0.50021   0.75430   0.50021   0.00000  Uiso   1.00
C1090  C     0.49941   0.91240   0.49977   0.00000  Uiso   1.00
C1091  C     0.40148   0.83266   0.48815   0.00000  Uiso   1.00
C1092  C     0.59855   0.83390   0.51191   0.00000  Uiso   1.00
C1093  C     0.34624   0.83016   0.48212   0.00000  Uiso   1.00
C1094  C     0.65384   0.83621   0.51815   0.00000  Uiso   1.00
C1095  C     0.54029   0.68867   0.48295   0.00000  Uiso   1.00
C1096  C     0.45911   0.97813   0.51734   0.00000  Uiso   1.00
C1097  C     0.53848   0.97894   0.48217   0.00000  Uiso   1.00
C1098  C     0.46090   0.68794   0.51810   0.00000  Uiso   1.00
C1099  C     0.49844   0.95709   0.49932   0.00000  Uiso   1.00
C1100  C     0.50092   0.70968   0.50077   0.00000  Uiso   1.00
C1101  C     0.45731   0.82138   0.35237   0.00000  Uiso   1.00
C1102  C     0.53976   0.85123   0.64631   0.00000  Uiso   1.00
C1103  C     0.46034   0.81577   0.63735   0.00000  Uiso   1.00
C1104  C     0.54127   0.84870   0.36245   0.00000  Uiso   1.00
Cu1105 Cu    0.50000   0.83334   0.54689   0.00000  Uiso   1.00
Cu1106 Cu    0.50000   0.83333   0.45311   0.00000  Uiso   1.00
H1107  H     0.56944   0.96265   0.46984   0.00000  Uiso   1.00
H1108  H     0.43012   0.70456   0.53063   0.00000  Uiso   1.00
N1109  N     0.50001   0.83334   0.61736   0.00000  Uiso   1.00
N1110  N     0.49999   0.83332   0.38264   0.00000  Uiso   1.00
O1111  O     0.50000   0.77322   0.53958   0.00000  Uiso   1.00
O1112  O     0.50000   0.89345   0.46042   0.00000  Uiso   1.00
O1113  O     0.50000   0.77321   0.46039   0.00000  Uiso   1.00
O1114  O     0.50000   0.89346   0.53961   0.00000  Uiso   1.00
O1115  O     0.42495   0.83334   0.53046   0.00000  Uiso   1.00
O1116  O     0.57505   0.83333   0.46954   0.00000  Uiso   1.00
O1117  O     0.42494   0.83333   0.45127   0.00000  Uiso   1.00
O1118  O     0.57506   0.83334   0.54873   0.00000  Uiso   1.00
H1119  H     0.66009   0.82200   0.44810   0.00000  Uiso   1.00
H1120  H     0.34004   0.84412   0.55234   0.00000  Uiso   1.00
N1121  N     0.58222   0.71056   0.46681   0.00000  Uiso   1.00
H1122  H     0.59631   0.69608   0.43971   0.00000  Uiso   1.00
C1123  C     0.62294   0.72222   0.50332   0.00000  Uiso   1.00
H1124  H     0.64049   0.69411   0.52077   0.00000  Uiso   1.00
H1125  H     0.60790   0.74185   0.52949   0.00000  Uiso   1.00
H1126  H     0.65324   0.74019   0.48815   0.00000  Uiso   1.00
N1127  N     0.41742   0.95619   0.53381   0.00000  Uiso   1.00
H1128  H     0.40325   0.97084   0.56076   0.00000  Uiso   1.00
C1129  C     0.37674   0.94394   0.49753   0.00000  Uiso   1.00
H1130  H     0.34669   0.92594   0.51303   0.00000  Uiso   1.00
H1131  H     0.39191   0.92415   0.47157   0.00000  Uiso   1.00
H1132  H     0.35882   0.97175   0.47975   0.00000  Uiso   1.00
N1133  N     0.40796   0.82622   0.36579   0.00000  Uiso   1.00
H1134  H     0.38019   0.80449   0.35372   0.00000  Uiso   1.00
C1135  C     0.39087   0.86872   0.36050   0.00000  Uiso   1.00
H1136  H     0.36302   0.87470   0.38482   0.00000  Uiso   1.00
H1137  H     0.37326   0.87465   0.65746   0.00000  Uiso   1.00
H1138  H     0.42333   0.89120   0.36954   0.00000  Uiso   1.00
N1139  N     0.58060   0.87148   0.62685   0.00000  Uiso   1.00
H1140  H     0.61713   0.86171   0.63877   0.00000  Uiso   1.00
C1141  C     0.57645   0.91574   0.61878   0.00000  Uiso   1.00
H1142  H     0.58451   0.92304   0.58299   0.00000  Uiso   1.00
H1143  H     0.60563   0.93279   0.64294   0.00000  Uiso   1.00
H1144  H     0.53756   0.92700   0.62305   0.00000  Uiso   1.00
N1145  N     0.42033   0.79404   0.60919   0.00000  Uiso   1.00
H1146  H     0.38449   0.80617   0.61005   0.00000  Uiso   1.00
C1147  C     0.42038   0.74966   0.61657   0.00000  Uiso   1.00
H1148  H     0.45798   0.73685   0.61081   0.00000  Uiso   1.00
H1149  H     0.38957   0.73496   0.59175   0.00000  Uiso   1.00
H1150  H     0.41294   0.74192   0.65249   0.00000  Uiso   1.00
N1151  N     0.58674   0.86156   0.39069   0.00000  Uiso   1.00
H1152  H     0.61943   0.84857   0.38185   0.00000  Uiso   1.00
C1153  C     0.59181   0.90482   0.40335   0.00000  Uiso   1.00
H1154  H     0.62278   0.92011   0.38652   0.00000  Uiso   1.00
H1155  H     0.60347   0.90682   0.44137   0.00000  Uiso   1.00
H1156  H     0.55531   0.92163   0.39360   0.00000  Uiso   1.00
C1157  C     0.83354   0.75430   0.50021   0.00000  Uiso   1.00
C1158  C     0.83274   0.91240   0.49977   0.00000  Uiso   1.00
C1159  C     0.73481   0.83266   0.48815   0.00000  Uiso   1.00
C1160  C     0.93188   0.83390   0.51191   0.00000  Uiso   1.00
C1161  C     0.67958   0.83016   0.48212   0.00000  Uiso   1.00
C1162  C     0.98718   0.83621   0.51815   0.00000  Uiso   1.00
C1163  C     0.87362   0.68867   0.48295   0.00000  Uiso   1.00
C1164  C     0.79244   0.97813   0.51734   0.00000  Uiso   1.00
C1165  C     0.87181   0.97894   0.48217   0.00000  Uiso   1.00
C1166  C     0.79423   0.68794   0.51810   0.00000  Uiso   1.00
C1167  C     0.83178   0.95709   0.49932   0.00000  Uiso   1.00
C1168  C     0.83425   0.70968   0.50077   0.00000  Uiso   1.00
C1169  C     0.79065   0.82138   0.35237   0.00000  Uiso   1.00
C1170  C     0.87309   0.85123   0.64631   0.00000  Uiso   1.00
C1171  C     0.79367   0.81577   0.63735   0.00000  Uiso   1.00
C1172  C     0.87461   0.84870   0.36245   0.00000  Uiso   1.00
Cu1173 Cu    0.83333   0.83334   0.54689   0.00000  Uiso   1.00
Cu1174 Cu    0.83333   0.83333   0.45311   0.00000  Uiso   1.00
H1175  H     0.90277   0.96265   0.46984   0.00000  Uiso   1.00
H1176  H     0.76345   0.70456   0.53063   0.00000  Uiso   1.00
N1177  N     0.83335   0.83334   0.61736   0.00000  Uiso   1.00
N1178  N     0.83332   0.83332   0.38264   0.00000  Uiso   1.00
O1179  O     0.83333   0.77322   0.53958   0.00000  Uiso   1.00
O1180  O     0.83334   0.89345   0.46042   0.00000  Uiso   1.00
O1181  O     0.83333   0.77321   0.46039   0.00000  Uiso   1.00
O1182  O     0.83334   0.89346   0.53961   0.00000  Uiso   1.00
O1183  O     0.75828   0.83334   0.53046   0.00000  Uiso   1.00
O1184  O     0.90839   0.83333   0.46954   0.00000  Uiso   1.00
O1185  O     0.75828   0.83333   0.45127   0.00000  Uiso   1.00
O1186  O     0.90839   0.83334   0.54873   0.00000  Uiso   1.00
H1187  H     0.99342   0.82200   0.44810   0.00000  Uiso   1.00
H1188  H     0.67337   0.84412   0.55234   0.00000  Uiso   1.00
N1189  N     0.91555   0.71056   0.46681   0.00000  Uiso   1.00
H1190  H     0.92964   0.69608   0.43971   0.00000  Uiso   1.00
C1191  C     0.95628   0.72222   0.50332   0.00000  Uiso   1.00
H1192  H     0.97383   0.69411   0.52077   0.00000  Uiso   1.00
H1193  H     0.94123   0.74185   0.52949   0.00000  Uiso   1.00
H1194  H     0.98658   0.74019   0.48815   0.00000  Uiso   1.00
N1195  N     0.75076   0.95619   0.53381   0.00000  Uiso   1.00
H1196  H     0.73659   0.97084   0.56076   0.00000  Uiso   1.00
C1197  C     0.71007   0.94394   0.49753   0.00000  Uiso   1.00
H1198  H     0.68003   0.92594   0.51303   0.00000  Uiso   1.00
H1199  H     0.72524   0.92415   0.47157   0.00000  Uiso   1.00
H1200  H     0.69215   0.97175   0.47975   0.00000  Uiso   1.00
N1201  N     0.74130   0.82622   0.36579   0.00000  Uiso   1.00
H1202  H     0.71353   0.80449   0.35372   0.00000  Uiso   1.00
C1203  C     0.72420   0.86872   0.36050   0.00000  Uiso   1.00
H1204  H     0.69636   0.87470   0.38482   0.00000  Uiso   1.00
H1205  H     0.70659   0.87465   0.65746   0.00000  Uiso   1.00
H1206  H     0.75666   0.89120   0.36954   0.00000  Uiso   1.00
N1207  N     0.91394   0.87148   0.62685   0.00000  Uiso   1.00
H1208  H     0.95046   0.86171   0.63877   0.00000  Uiso   1.00
C1209  C     0.90978   0.91574   0.61878   0.00000  Uiso   1.00
H1210  H     0.91784   0.92304   0.58299   0.00000  Uiso   1.00
H1211  H     0.93896   0.93279   0.64294   0.00000  Uiso   1.00
H1212  H     0.87089   0.92700   0.62305   0.00000  Uiso   1.00
N1213  N     0.75366   0.79404   0.60919   0.00000  Uiso   1.00
H1214  H     0.71783   0.80617   0.61005   0.00000  Uiso   1.00
C1215  C     0.75372   0.74966   0.61657   0.00000  Uiso   1.00
H1216  H     0.79131   0.73685   0.61081   0.00000  Uiso   1.00
H1217  H     0.72291   0.73496   0.59175   0.00000  Uiso   1.00
H1218  H     0.74627   0.74192   0.65249   0.00000  Uiso   1.00
N1219  N     0.92007   0.86156   0.39069   0.00000  Uiso   1.00
H1220  H     0.95276   0.84857   0.38185   0.00000  Uiso   1.00
C1221  C     0.92514   0.90482   0.40335   0.00000  Uiso   1.00
H1222  H     0.95611   0.92011   0.38652   0.00000  Uiso   1.00
H1223  H     0.93681   0.90682   0.44137   0.00000  Uiso   1.00
H1224  H     0.88864   0.92163   0.39360   0.00000  Uiso   1.00
C1225  C     0.16687   0.08763   0.83355   0.00000  Uiso   1.00
C1226  C     0.16607   0.24573   0.83310   0.00000  Uiso   1.00
C1227  C     0.06815   0.16600   0.82148   0.00000  Uiso   1.00
C1228  C     0.26521   0.16723   0.84524   0.00000  Uiso   1.00
C1229  C     0.01291   0.16349   0.81546   0.00000  Uiso   1.00
C1230  C     0.32051   0.16955   0.85148   0.00000  Uiso   1.00
C1231  C     0.20696   0.02200   0.81629   0.00000  Uiso   1.00
C1232  C     0.12578   0.31146   0.85067   0.00000  Uiso   1.00
C1233  C     0.20514   0.31228   0.81551   0.00000  Uiso   1.00
C1234  C     0.12756   0.02128   0.85143   0.00000  Uiso   1.00
C1235  C     0.16511   0.29043   0.83266   0.00000  Uiso   1.00
C1236  C     0.16759   0.04302   0.83411   0.00000  Uiso   1.00
C1237  C     0.12398   0.15471   0.68570   0.00000  Uiso   1.00
C1238  C     0.20643   0.18456   0.97964   0.00000  Uiso   1.00
C1239  C     0.12700   0.14910   0.97069   0.00000  Uiso   1.00
C1240  C     0.20794   0.18203   0.69579   0.00000  Uiso   1.00
Cu1241 Cu    0.16667   0.16667   0.88022   0.00000  Uiso   1.00
Cu1242 Cu    0.16667   0.16666   0.78645   0.00000  Uiso   1.00
H1243  H     0.23611   0.29599   0.80317   0.00000  Uiso   1.00
H1244  H     0.09679   0.03789   0.86396   0.00000  Uiso   1.00
N1245  N     0.16668   0.16668   0.95069   0.00000  Uiso   1.00
N1246  N     0.16665   0.16666   0.71597   0.00000  Uiso   1.00
O1247  O     0.16666   0.10655   0.87291   0.00000  Uiso   1.00
O1248  O     0.16667   0.22678   0.79375   0.00000  Uiso   1.00
O1249  O     0.16666   0.10654   0.79372   0.00000  Uiso   1.00
O1250  O     0.16667   0.22679   0.87294   0.00000  Uiso   1.00
O1251  O     0.09161   0.16667   0.86379   0.00000  Uiso   1.00
O1252  O     0.24172   0.16666   0.80288   0.00000  Uiso   1.00
O1253  O     0.09161   0.16666   0.78460   0.00000  Uiso   1.00
O1254  O     0.24172   0.16667   0.88207   0.00000  Uiso   1.00
H1255  H     0.32676   0.15533   0.78143   0.00000  Uiso   1.00
H1256  H     0.00670   0.17745   0.88568   0.00000  Uiso   1.00
N1257  N     0.24889   0.04389   0.80015   0.00000  Uiso   1.00
H1258  H     0.26298   0.02942   0.77305   0.00000  Uiso   1.00
C1259  C     0.28961   0.05555   0.83666   0.00000  Uiso   1.00
H1260  H     0.30716   0.02745   0.85410   0.00000  Uiso   1.00
H1261  H     0.27456   0.07518   0.86282   0.00000  Uiso   1.00
H1262  H     0.31991   0.07352   0.82148   0.00000  Uiso   1.00
N1263  N     0.08409   0.28953   0.86714   0.00000  Uiso   1.00
H1264  H     0.06992   0.30418   0.89409   0.00000  Uiso   1.00
C1265  C     0.04341   0.27727   0.83086   0.00000  Uiso   1.00
H1266  H     0.01336   0.25927   0.84637   0.00000  Uiso   1.00
H1267  H     0.05858   0.25748   0.80490   0.00000  Uiso   1.00
H1268  H     0.02549   0.30509   0.81309   0.00000  Uiso   1.00
N1269  N     0.07463   0.15956   0.69913   0.00000  Uiso   1.00
H1270  H     0.04686   0.13782   0.68705   0.00000  Uiso   1.00
C1271  C     0.05753   0.20205   0.69383   0.00000  Uiso   1.00
H1272  H     0.02969   0.20803   0.71815   0.00000  Uiso   1.00
H1273  H     0.03993   0.20798   0.99079   0.00000  Uiso   1.00
H1274  H     0.08999   0.22454   0.70287   0.00000  Uiso   1.00
N1275  N     0.24727   0.20482   0.96019   0.00000  Uiso   1.00
H1276  H     0.28380   0.19504   0.97211   0.00000  Uiso   1.00
C1277  C     0.24311   0.24908   0.95212   0.00000  Uiso   1.00
H1278  H     0.25118   0.25638   0.91633   0.00000  Uiso   1.00
H1279  H     0.27229   0.26612   0.97627   0.00000  Uiso   1.00
H1280  H     0.20423   0.26034   0.95638   0.00000  Uiso   1.00
N1281  N     0.08700   0.12737   0.94253   0.00000  Uiso   1.00
H1282  H     0.05116   0.13950   0.94338   0.00000  Uiso   1.00
C1283  C     0.08705   0.08299   0.94990   0.00000  Uiso   1.00
H1284  H     0.12464   0.07018   0.94414   0.00000  Uiso   1.00
H1285  H     0.05624   0.06829   0.92508   0.00000  Uiso   1.00
H1286  H     0.07961   0.07525   0.98582   0.00000  Uiso   1.00
N1287  N     0.25340   0.19489   0.72402   0.00000  Uiso   1.00
H1288  H     0.28609   0.18190   0.71518   0.00000  Uiso   1.00
C1289  C     0.25848   0.23815   0.73668   0.00000  Uiso   1.00
H1290  H     0.28944   0.25344   0.71986   0.00000  Uiso   1.00
H1291  H     0.27014   0.24015   0.77470   0.00000  Uiso   1.00
H1292  H     0.22197   0.25496   0.72693   0.00000  Uiso   1.00
C1293  C     0.50021   0.08763   0.83355   0.00000  Uiso   1.00
C1294  C     0.49941   0.24573   0.83310   0.00000  Uiso   1.00
C1295  C     0.40148   0.16600   0.82148   0.00000  Uiso   1.00
C1296  C     0.59855   0.16723   0.84524   0.00000  Uiso   1.00
C1297  C     0.34624   0.16349   0.81546   0.00000  Uiso   1.00
C1298  C     0.65384   0.16955   0.85148   0.00000  Uiso   1.00
C1299  C     0.54029   0.02200   0.81629   0.00000  Uiso   1.00
C1300  C     0.45911   0.31146   0.85067   0.00000  Uiso   1.00
C1301  C     0.53848   0.31228   0.81551   0.00000  Uiso   1.00
C1302  C     0.46090   0.02128   0.85143   0.00000  Uiso   1.00
C1303  C     0.49844   0.29043   0.83266   0.00000  Uiso   1.00
C1304  C     0.50092   0.04302   0.83411   0.00000  Uiso   1.00
C1305  C     0.45731   0.15471   0.68570   0.00000  Uiso   1.00
C1306  C     0.53976   0.18456   0.97964   0.00000  Uiso   1.00
C1307  C     0.46034   0.14910   0.97069   0.00000  Uiso   1.00
C1308  C     0.54127   0.18203   0.69579   0.00000  Uiso   1.00
Cu1309 Cu    0.50000   0.16667   0.88022   0.00000  Uiso   1.00
Cu1310 Cu    0.50000   0.16666   0.78645   0.00000  Uiso   1.00
H1311  H     0.56944   0.29599   0.80317   0.00000  Uiso   1.00
H1312  H     0.43012   0.03789   0.86396   0.00000  Uiso   1.00
N1313  N     0.50001   0.16668   0.95069   0.00000  Uiso   1.00
N1314  N     0.49999   0.16666   0.71597   0.00000  Uiso   1.00
O1315  O     0.50000   0.10655   0.87291   0.00000  Uiso   1.00
O1316  O     0.50000   0.22678   0.79375   0.00000  Uiso   1.00
O1317  O     0.50000   0.10654   0.79372   0.00000  Uiso   1.00
O1318  O     0.50000   0.22679   0.87294   0.00000  Uiso   1.00
O1319  O     0.42495   0.16667   0.86379   0.00000  Uiso   1.00
O1320  O     0.57505   0.16666   0.80288   0.00000  Uiso   1.00
O1321  O     0.42494   0.16666   0.78460   0.00000  Uiso   1.00
O1322  O     0.57506   0.16667   0.88207   0.00000  Uiso   1.00
H1323  H     0.66009   0.15533   0.78143   0.00000  Uiso   1.00
H1324  H     0.34004   0.17745   0.88568   0.00000  Uiso   1.00
N1325  N     0.58222   0.04389   0.80015   0.00000  Uiso   1.00
H1326  H     0.59631   0.02942   0.77305   0.00000  Uiso   1.00
C1327  C     0.62294   0.05555   0.83666   0.00000  Uiso   1.00
H1328  H     0.64049   0.02745   0.85410   0.00000  Uiso   1.00
H1329  H     0.60790   0.07518   0.86282   0.00000  Uiso   1.00
H1330  H     0.65324   0.07352   0.82148   0.00000  Uiso   1.00
N1331  N     0.41742   0.28953   0.86714   0.00000  Uiso   1.00
H1332  H     0.40325   0.30418   0.89409   0.00000  Uiso   1.00
C1333  C     0.37674   0.27727   0.83086   0.00000  Uiso   1.00
H1334  H     0.34669   0.25927   0.84637   0.00000  Uiso   1.00
H1335  H     0.39191   0.25748   0.80490   0.00000  Uiso   1.00
H1336  H     0.35882   0.30509   0.81309   0.00000  Uiso   1.00
N1337  N     0.40796   0.15956   0.69913   0.00000  Uiso   1.00
H1338  H     0.38019   0.13782   0.68705   0.00000  Uiso   1.00
C1339  C     0.39087   0.20205   0.69383   0.00000  Uiso   1.00
H1340  H     0.36302   0.20803   0.71815   0.00000  Uiso   1.00
H1341  H     0.37326   0.20798   0.99079   0.00000  Uiso   1.00
H1342  H     0.42333   0.22454   0.70287   0.00000  Uiso   1.00
N1343  N     0.58060   0.20482   0.96019   0.00000  Uiso   1.00
H1344  H     0.61713   0.19504   0.97211   0.00000  Uiso   1.00
C1345  C     0.57645   0.24908   0.95212   0.00000  Uiso   1.00
H1346  H     0.58451   0.25638   0.91633   0.00000  Uiso   1.00
H1347  H     0.60563   0.26612   0.97627   0.00000  Uiso   1.00
H1348  H     0.53756   0.26034   0.95638   0.00000  Uiso   1.00
N1349  N     0.42033   0.12737   0.94253   0.00000  Uiso   1.00
H1350  H     0.38449   0.13950   0.94338   0.00000  Uiso   1.00
C1351  C     0.42038   0.08299   0.94990   0.00000  Uiso   1.00
H1352  H     0.45798   0.07018   0.94414   0.00000  Uiso   1.00
H1353  H     0.38957   0.06829   0.92508   0.00000  Uiso   1.00
H1354  H     0.41294   0.07525   0.98582   0.00000  Uiso   1.00
N1355  N     0.58674   0.19489   0.72402   0.00000  Uiso   1.00
H1356  H     0.61943   0.18190   0.71518   0.00000  Uiso   1.00
C1357  C     0.59181   0.23815   0.73668   0.00000  Uiso   1.00
H1358  H     0.62278   0.25344   0.71986   0.00000  Uiso   1.00
H1359  H     0.60347   0.24015   0.77470   0.00000  Uiso   1.00
H1360  H     0.55531   0.25496   0.72693   0.00000  Uiso   1.00
C1361  C     0.83354   0.08763   0.83355   0.00000  Uiso   1.00
C1362  C     0.83274   0.24573   0.83310   0.00000  Uiso   1.00
C1363  C     0.73481   0.16600   0.82148   0.00000  Uiso   1.00
C1364  C     0.93188   0.16723   0.84524   0.00000  Uiso   1.00
C1365  C     0.67958   0.16349   0.81546   0.00000  Uiso   1.00
C1366  C     0.98718   0.16955   0.85148   0.00000  Uiso   1.00
C1367  C     0.87362   0.02200   0.81629   0.00000  Uiso   1.00
C1368  C     0.79244   0.31146   0.85067   0.00000  Uiso   1.00
C1369  C     0.87181   0.31228   0.81551   0.00000  Uiso   1.00
C1370  C     0.79423   0.02128   0.85143   0.00000  Uiso   1.00
C1371  C     0.83178   0.29043   0.83266   0.00000  Uiso   1.00
C1372  C     0.83425   0.04302   0.83411   0.00000  Uiso   1.00
C1373  C     0.79065   0.15471   0.68570   0.00000  Uiso   1.00
C1374  C     0.87309   0.18456   0.97964   0.00000  Uiso   1.00
C1375  C     0.79367   0.14910   0.97069   0.00000  Uiso   1.00
C1376  C     0.87461   0.18203   0.69579   0.00000  Uiso   1.00
Cu1377 Cu    0.83333   0.16667   0.88022   0.00000  Uiso   1.00
Cu1378 Cu    0.83333   0.16666   0.78645   0.00000  Uiso   1.00
H1379  H     0.90277   0.29599   0.80317   0.00000  Uiso   1.00
H1380  H     0.76345   0.03789   0.86396   0.00000  Uiso   1.00
N1381  N     0.83335   0.16668   0.95069   0.00000  Uiso   1.00
N1382  N     0.83332   0.16666   0.71597   0.00000  Uiso   1.00
O1383  O     0.83333   0.10655   0.87291   0.00000  Uiso   1.00
O1384  O     0.83334   0.22678   0.79375   0.00000  Uiso   1.00
O1385  O     0.83333   0.10654   0.79372   0.00000  Uiso   1.00
O1386  O     0.83334   0.22679   0.87294   0.00000  Uiso   1.00
O1387  O     0.75828   0.16667   0.86379   0.00000  Uiso   1.00
O1388  O     0.90839   0.16666   0.80288   0.00000  Uiso   1.00
O1389  O     0.75828   0.16666   0.78460   0.00000  Uiso   1.00
O1390  O     0.90839   0.16667   0.88207   0.00000  Uiso   1.00
H1391  H     0.99342   0.15533   0.78143   0.00000  Uiso   1.00
H1392  H     0.67337   0.17745   0.88568   0.00000  Uiso   1.00
N1393  N     0.91555   0.04389   0.80015   0.00000  Uiso   1.00
H1394  H     0.92964   0.02942   0.77305   0.00000  Uiso   1.00
C1395  C     0.95628   0.05555   0.83666   0.00000  Uiso   1.00
H1396  H     0.97383   0.02745   0.85410   0.00000  Uiso   1.00
H1397  H     0.94123   0.07518   0.86282   0.00000  Uiso   1.00
H1398  H     0.98658   0.07352   0.82148   0.00000  Uiso   1.00
N1399  N     0.75076   0.28953   0.86714   0.00000  Uiso   1.00
H1400  H     0.73659   0.30418   0.89409   0.00000  Uiso   1.00
C1401  C     0.71007   0.27727   0.83086   0.00000  Uiso   1.00
H1402  H     0.68003   0.25927   0.84637   0.00000  Uiso   1.00
H1403  H     0.72524   0.25748   0.80490   0.00000  Uiso   1.00
H1404  H     0.69215   0.30509   0.81309   0.00000  Uiso   1.00
N1405  N     0.74130   0.15956   0.69913   0.00000  Uiso   1.00
H1406  H     0.71353   0.13782   0.68705   0.00000  Uiso   1.00
C1407  C     0.72420   0.20205   0.69383   0.00000  Uiso   1.00
H1408  H     0.69636   0.20803   0.71815   0.00000  Uiso   1.00
H1409  H     0.70659   0.20798   0.99079   0.00000  Uiso   1.00
H1410  H     0.75666   0.22454   0.70287   0.00000  Uiso   1.00
N1411  N     0.91394   0.20482   0.96019   0.00000  Uiso   1.00
H1412  H     0.95046   0.19504   0.97211   0.00000  Uiso   1.00
C1413  C     0.90978   0.24908   0.95212   0.00000  Uiso   1.00
H1414  H     0.91784   0.25638   0.91633   0.00000  Uiso   1.00
H1415  H     0.93896   0.26612   0.97627   0.00000  Uiso   1.00
H1416  H     0.87089   0.26034   0.95638   0.00000  Uiso   1.00
N1417  N     0.75366   0.12737   0.94253   0.00000  Uiso   1.00
H1418  H     0.71783   0.13950   0.94338   0.00000  Uiso   1.00
C1419  C     0.75372   0.08299   0.94990   0.00000  Uiso   1.00
H1420  H     0.79131   0.07018   0.94414   0.00000  Uiso   1.00
H1421  H     0.72291   0.06829   0.92508   0.00000  Uiso   1.00
H1422  H     0.74627   0.07525   0.98582   0.00000  Uiso   1.00
N1423  N     0.92007   0.19489   0.72402   0.00000  Uiso   1.00
H1424  H     0.95276   0.18190   0.71518   0.00000  Uiso   1.00
C1425  C     0.92514   0.23815   0.73668   0.00000  Uiso   1.00
H1426  H     0.95611   0.25344   0.71986   0.00000  Uiso   1.00
H1427  H     0.93681   0.24015   0.77470   0.00000  Uiso   1.00
H1428  H     0.88864   0.25496   0.72693   0.00000  Uiso   1.00
C1429  C     0.16687   0.42097   0.83355   0.00000  Uiso   1.00
C1430  C     0.16607   0.57907   0.83310   0.00000  Uiso   1.00
C1431  C     0.06815   0.49933   0.82148   0.00000  Uiso   1.00
C1432  C     0.26521   0.50056   0.84524   0.00000  Uiso   1.00
C1433  C     0.01291   0.49682   0.81546   0.00000  Uiso   1.00
C1434  C     0.32051   0.50288   0.85148   0.00000  Uiso   1.00
C1435  C     0.20696   0.35534   0.81629   0.00000  Uiso   1.00
C1436  C     0.12578   0.64479   0.85067   0.00000  Uiso   1.00
C1437  C     0.20514   0.64561   0.81551   0.00000  Uiso   1.00
C1438  C     0.12756   0.35461   0.85143   0.00000  Uiso   1.00
C1439  C     0.16511   0.62376   0.83266   0.00000  Uiso   1.00
C1440  C     0.16759   0.37635   0.83411   0.00000  Uiso   1.00
C1441  C     0.12398   0.48805   0.68570   0.00000  Uiso   1.00
C1442  C     0.20643   0.51790   0.97964   0.00000  Uiso   1.00
C1443  C     0.12700   0.48244   0.97069   0.00000  Uiso   1.00
C1444  C     0.20794   0.51536   0.69579   0.00000  Uiso   1.00
Cu1445 Cu    0.16667   0.50001   0.88022   0.00000  Uiso   1.00
Cu1446 Cu    0.16667   0.49999   0.78645   0.00000  Uiso   1.00
H1447  H     0.23611   0.62932   0.80317   0.00000  Uiso   1.00
H1448  H     0.09679   0.37122   0.86396   0.00000  Uiso   1.00
N1449  N     0.16668   0.50001   0.95069   0.00000  Uiso   1.00
N1450  N     0.16665   0.49999   0.71597   0.00000  Uiso   1.00
O1451  O     0.16666   0.43989   0.87291   0.00000  Uiso   1.00
O1452  O     0.16667   0.56011   0.79375   0.00000  Uiso   1.00
O1453  O     0.16666   0.43988   0.79372   0.00000  Uiso   1.00
O1454  O     0.16667   0.56012   0.87294   0.00000  Uiso   1.00
O1455  O     0.09161   0.50000   0.86379   0.00000  Uiso   1.00
O1456  O     0.24172   0.50000   0.80288   0.00000  Uiso   1.00
O1457  O     0.09161   0.49999   0.78460   0.00000  Uiso   1.00
O1458  O     0.24172   0.50001   0.88207   0.00000  Uiso   1.00
H1459  H     0.32676   0.48867   0.78143   0.00000  Uiso   1.00
H1460  H     0.00670   0.51079   0.88568   0.00000  Uiso   1.00
N1461  N     0.24889   0.37723   0.80015   0.00000  Uiso   1.00
H1462  H     0.26298   0.36275   0.77305   0.00000  Uiso   1.00
C1463  C     0.28961   0.38888   0.83666   0.00000  Uiso   1.00
H1464  H     0.30716   0.36078   0.85410   0.00000  Uiso   1.00
H1465  H     0.27456   0.40852   0.86282   0.00000  Uiso   1.00
H1466  H     0.31991   0.40686   0.82148   0.00000  Uiso   1.00
N1467  N     0.08409   0.62286   0.86714   0.00000  Uiso   1.00
H1468  H     0.06992   0.63751   0.89409   0.00000  Uiso   1.00
C1469  C     0.04341   0.61060   0.83086   0.00000  Uiso   1.00
H1470  H     0.01336   0.59261   0.84637   0.00000  Uiso   1.00
H1471  H     0.05858   0.59081   0.80490   0.00000  Uiso   1.00
H1472  H     0.02549   0.63842   0.81309   0.00000  Uiso   1.00
N1473  N     0.07463   0.49289   0.69913   0.00000  Uiso   1.00
H1474  H     0.04686   0.47116   0.68705   0.00000  Uiso   1.00
C1475  C     0.05753   0.53539   0.69383   0.00000  Uiso   1.00
H1476  H     0.02969   0.54137   0.71815   0.00000  Uiso   1.00
H1477  H     0.03993   0.54131   0.99079   0.00000  Uiso   1.00
H1478  H     0.08999   0.55787   0.70287   0.00000  Uiso   1.00
N1479  N     0.24727   0.53815   0.96019   0.00000  Uiso   1.00
H1480  H     0.28380   0.52837   0.97211   0.00000  Uiso   1.00
C1481  C     0.24311   0.58241   0.95212   0.00000  Uiso   1.00
H1482  H     0.25118   0.58971   0.91633   0.00000  Uiso   1.00
H1483  H     0.27229   0.59946   0.97627   0.00000  Uiso   1.00
H1484  H     0.20423   0.59367   0.95638   0.00000  Uiso   1.00
N1485  N     0.08700   0.46071   0.94253   0.00000  Uiso   1.00
H1486  H     0.05116   0.47284   0.94338   0.00000  Uiso   1.00
C1487  C     0.08705   0.41633   0.94990   0.00000  Uiso   1.00
H1488  H     0.12464   0.40352   0.94414   0.00000  Uiso   1.00
H1489  H     0.05624   0.40163   0.92508   0.00000  Uiso   1.00
H1490  H     0.07961   0.40858   0.98582   0.00000  Uiso   1.00
N1491  N     0.25340   0.52822   0.72402   0.00000  Uiso   1.00
H1492  H     0.28609   0.51523   0.71518   0.00000  Uiso   1.00
C1493  C     0.25848   0.57148   0.73668   0.00000  Uiso   1.00
H1494  H     0.28944   0.58678   0.71986   0.00000  Uiso   1.00
H1495  H     0.27014   0.57348   0.77470   0.00000  Uiso   1.00
H1496  H     0.22197   0.58829   0.72693   0.00000  Uiso   1.00
C1497  C     0.50021   0.42097   0.83355   0.00000  Uiso   1.00
C1498  C     0.49941   0.57907   0.83310   0.00000  Uiso   1.00
C1499  C     0.40148   0.49933   0.82148   0.00000  Uiso   1.00
C1500  C     0.59855   0.50056   0.84524   0.00000  Uiso   1.00
C1501  C     0.34624   0.49682   0.81546   0.00000  Uiso   1.00
C1502  C     0.65384   0.50288   0.85148   0.00000  Uiso   1.00
C1503  C     0.54029   0.35534   0.81629   0.00000  Uiso   1.00
C1504  C     0.45911   0.64479   0.85067   0.00000  Uiso   1.00
C1505  C     0.53848   0.64561   0.81551   0.00000  Uiso   1.00
C1506  C     0.46090   0.35461   0.85143   0.00000  Uiso   1.00
C1507  C     0.49844   0.62376   0.83266   0.00000  Uiso   1.00
C1508  C     0.50092   0.37635   0.83411   0.00000  Uiso   1.00
C1509  C     0.45731   0.48805   0.68570   0.00000  Uiso   1.00
C1510  C     0.53976   0.51790   0.97964   0.00000  Uiso   1.00
C1511  C     0.46034   0.48244   0.97069   0.00000  Uiso   1.00
C1512  C     0.54127   0.51536   0.69579   0.00000  Uiso   1.00
Cu1513 Cu    0.50000   0.50001   0.88022   0.00000  Uiso   1.00
Cu1514 Cu    0.50000   0.49999   0.78645   0.00000  Uiso   1.00
H1515  H     0.56944   0.62932   0.80317   0.00000  Uiso   1.00
H1516  H     0.43012   0.37122   0.86396   0.00000  Uiso   1.00
N1517  N     0.50001   0.50001   0.95069   0.00000  Uiso   1.00
N1518  N     0.49999   0.49999   0.71597   0.00000  Uiso   1.00
O1519  O     0.50000   0.43989   0.87291   0.00000  Uiso   1.00
O1520  O     0.50000   0.56011   0.79375   0.00000  Uiso   1.00
O1521  O     0.50000   0.43988   0.79372   0.00000  Uiso   1.00
O1522  O     0.50000   0.56012   0.87294   0.00000  Uiso   1.00
O1523  O     0.42495   0.50000   0.86379   0.00000  Uiso   1.00
O1524  O     0.57505   0.50000   0.80288   0.00000  Uiso   1.00
O1525  O     0.42494   0.49999   0.78460   0.00000  Uiso   1.00
O1526  O     0.57506   0.50001   0.88207   0.00000  Uiso   1.00
H1527  H     0.66009   0.48867   0.78143   0.00000  Uiso   1.00
H1528  H     0.34004   0.51079   0.88568   0.00000  Uiso   1.00
N1529  N     0.58222   0.37723   0.80015   0.00000  Uiso   1.00
H1530  H     0.59631   0.36275   0.77305   0.00000  Uiso   1.00
C1531  C     0.62294   0.38888   0.83666   0.00000  Uiso   1.00
H1532  H     0.64049   0.36078   0.85410   0.00000  Uiso   1.00
H1533  H     0.60790   0.40852   0.86282   0.00000  Uiso   1.00
H1534  H     0.65324   0.40686   0.82148   0.00000  Uiso   1.00
N1535  N     0.41742   0.62286   0.86714   0.00000  Uiso   1.00
H1536  H     0.40325   0.63751   0.89409   0.00000  Uiso   1.00
C1537  C     0.37674   0.61060   0.83086   0.00000  Uiso   1.00
H1538  H     0.34669   0.59261   0.84637   0.00000  Uiso   1.00
H1539  H     0.39191   0.59081   0.80490   0.00000  Uiso   1.00
H1540  H     0.35882   0.63842   0.81309   0.00000  Uiso   1.00
N1541  N     0.40796   0.49289   0.69913   0.00000  Uiso   1.00
H1542  H     0.38019   0.47116   0.68705   0.00000  Uiso   1.00
C1543  C     0.39087   0.53539   0.69383   0.00000  Uiso   1.00
H1544  H     0.36302   0.54137   0.71815   0.00000  Uiso   1.00
H1545  H     0.37326   0.54131   0.99079   0.00000  Uiso   1.00
H1546  H     0.42333   0.55787   0.70287   0.00000  Uiso   1.00
N1547  N     0.58060   0.53815   0.96019   0.00000  Uiso   1.00
H1548  H     0.61713   0.52837   0.97211   0.00000  Uiso   1.00
C1549  C     0.57645   0.58241   0.95212   0.00000  Uiso   1.00
H1550  H     0.58451   0.58971   0.91633   0.00000  Uiso   1.00
H1551  H     0.60563   0.59946   0.97627   0.00000  Uiso   1.00
H1552  H     0.53756   0.59367   0.95638   0.00000  Uiso   1.00
N1553  N     0.42033   0.46071   0.94253   0.00000  Uiso   1.00
H1554  H     0.38449   0.47284   0.94338   0.00000  Uiso   1.00
C1555  C     0.42038   0.41633   0.94990   0.00000  Uiso   1.00
H1556  H     0.45798   0.40352   0.94414   0.00000  Uiso   1.00
H1557  H     0.38957   0.40163   0.92508   0.00000  Uiso   1.00
H1558  H     0.41294   0.40858   0.98582   0.00000  Uiso   1.00
N1559  N     0.58674   0.52822   0.72402   0.00000  Uiso   1.00
H1560  H     0.61943   0.51523   0.71518   0.00000  Uiso   1.00
C1561  C     0.59181   0.57148   0.73668   0.00000  Uiso   1.00
H1562  H     0.62278   0.58678   0.71986   0.00000  Uiso   1.00
H1563  H     0.60347   0.57348   0.77470   0.00000  Uiso   1.00
H1564  H     0.55531   0.58829   0.72693   0.00000  Uiso   1.00
C1565  C     0.83354   0.42097   0.83355   0.00000  Uiso   1.00
C1566  C     0.83274   0.57907   0.83310   0.00000  Uiso   1.00
C1567  C     0.73481   0.49933   0.82148   0.00000  Uiso   1.00
C1568  C     0.93188   0.50056   0.84524   0.00000  Uiso   1.00
C1569  C     0.67958   0.49682   0.81546   0.00000  Uiso   1.00
C1570  C     0.98718   0.50288   0.85148   0.00000  Uiso   1.00
C1571  C     0.87362   0.35534   0.81629   0.00000  Uiso   1.00
C1572  C     0.79244   0.64479   0.85067   0.00000  Uiso   1.00
C1573  C     0.87181   0.64561   0.81551   0.00000  Uiso   1.00
C1574  C     0.79423   0.35461   0.85143   0.00000  Uiso   1.00
C1575  C     0.83178   0.62376   0.83266   0.00000  Uiso   1.00
C1576  C     0.83425   0.37635   0.83411   0.00000  Uiso   1.00
C1577  C     0.79065   0.48805   0.68570   0.00000  Uiso   1.00
C1578  C     0.87309   0.51790   0.97964   0.00000  Uiso   1.00
C1579  C     0.79367   0.48244   0.97069   0.00000  Uiso   1.00
C1580  C     0.87461   0.51536   0.69579   0.00000  Uiso   1.00
Cu1581 Cu    0.83333   0.50001   0.88022   0.00000  Uiso   1.00
Cu1582 Cu    0.83333   0.49999   0.78645   0.00000  Uiso   1.00
H1583  H     0.90277   0.62932   0.80317   0.00000  Uiso   1.00
H1584  H     0.76345   0.37122   0.86396   0.00000  Uiso   1.00
N1585  N     0.83335   0.50001   0.95069   0.00000  Uiso   1.00
N1586  N     0.83332   0.49999   0.71597   0.00000  Uiso   1.00
O1587  O     0.83333   0.43989   0.87291   0.00000  Uiso   1.00
O1588  O     0.83334   0.56011   0.79375   0.00000  Uiso   1.00
O1589  O     0.83333   0.43988   0.79372   0.00000  Uiso   1.00
O1590  O     0.83334   0.56012   0.87294   0.00000  Uiso   1.00
O1591  O     0.75828   0.50000   0.86379   0.00000  Uiso   1.00
O1592  O     0.90839   0.50000   0.80288   0.00000  Uiso   1.00
O1593  O     0.75828   0.49999   0.78460   0.00000  Uiso   1.00
O1594  O     0.90839   0.50001   0.88207   0.00000  Uiso   1.00
H1595  H     0.99342   0.48867   0.78143   0.00000  Uiso   1.00
H1596  H     0.67337   0.51079   0.88568   0.00000  Uiso   1.00
N1597  N     0.91555   0.37723   0.80015   0.00000  Uiso   1.00
H1598  H     0.92964   0.36275   0.77305   0.00000  Uiso   1.00
C1599  C     0.95628   0.38888   0.83666   0.00000  Uiso   1.00
H1600  H     0.97383   0.36078   0.85410   0.00000  Uiso   1.00
H1601  H     0.94123   0.40852   0.86282   0.00000  Uiso   1.00
H1602  H     0.98658   0.40686   0.82148   0.00000  Uiso   1.00
N1603  N     0.75076   0.62286   0.86714   0.00000  Uiso   1.00
H1604  H     0.73659   0.63751   0.89409   0.00000  Uiso   1.00
C1605  C     0.71007   0.61060   0.83086   0.00000  Uiso   1.00
H1606  H     0.68003   0.59261   0.84637   0.00000  Uiso   1.00
H1607  H     0.72524   0.59081   0.80490   0.00000  Uiso   1.00
H1608  H     0.69215   0.63842   0.81309   0.00000  Uiso   1.00
N1609  N     0.74130   0.49289   0.69913   0.00000  Uiso   1.00
H1610  H     0.71353   0.47116   0.68705   0.00000  Uiso   1.00
C1611  C     0.72420   0.53539   0.69383   0.00000  Uiso   1.00
H1612  H     0.69636   0.54137   0.71815   0.00000  Uiso   1.00
H1613  H     0.70659   0.54131   0.99079   0.00000  Uiso   1.00
H1614  H     0.75666   0.55787   0.70287   0.00000  Uiso   1.00
N1615  N     0.91394   0.53815   0.96019   0.00000  Uiso   1.00
H1616  H     0.95046   0.52837   0.97211   0.00000  Uiso   1.00
C1617  C     0.90978   0.58241   0.95212   0.00000  Uiso   1.00
H1618  H     0.91784   0.58971   0.91633   0.00000  Uiso   1.00
H1619  H     0.93896   0.59946   0.97627   0.00000  Uiso   1.00
H1620  H     0.87089   0.59367   0.95638   0.00000  Uiso   1.00
N1621  N     0.75366   0.46071   0.94253   0.00000  Uiso   1.00
H1622  H     0.71783   0.47284   0.94338   0.00000  Uiso   1.00
C1623  C     0.75372   0.41633   0.94990   0.00000  Uiso   1.00
H1624  H     0.79131   0.40352   0.94414   0.00000  Uiso   1.00
H1625  H     0.72291   0.40163   0.92508   0.00000  Uiso   1.00
H1626  H     0.74627   0.40858   0.98582   0.00000  Uiso   1.00
N1627  N     0.92007   0.52822   0.72402   0.00000  Uiso   1.00
H1628  H     0.95276   0.51523   0.71518   0.00000  Uiso   1.00
C1629  C     0.92514   0.57148   0.73668   0.00000  Uiso   1.00
H1630  H     0.95611   0.58678   0.71986   0.00000  Uiso   1.00
H1631  H     0.93681   0.57348   0.77470   0.00000  Uiso   1.00
H1632  H     0.88864   0.58829   0.72693   0.00000  Uiso   1.00
C1633  C     0.16687   0.75430   0.83355   0.00000  Uiso   1.00
C1634  C     0.16607   0.91240   0.83310   0.00000  Uiso   1.00
C1635  C     0.06815   0.83266   0.82148   0.00000  Uiso   1.00
C1636  C     0.26521   0.83390   0.84524   0.00000  Uiso   1.00
C1637  C     0.01291   0.83016   0.81546   0.00000  Uiso   1.00
C1638  C     0.32051   0.83621   0.85148   0.00000  Uiso   1.00
C1639  C     0.20696   0.68867   0.81629   0.00000  Uiso   1.00
C1640  C     0.12578   0.97813   0.85067   0.00000  Uiso   1.00
C1641  C     0.20514   0.97894   0.81551   0.00000  Uiso   1.00
C1642  C     0.12756   0.68794   0.85143   0.00000  Uiso   1.00
C1643  C     0.16511   0.95709   0.83266   0.00000  Uiso   1.00
C1644  C     0.16759   0.70968   0.83411   0.00000  Uiso   1.00
C1645  C     0.12398   0.82138   0.68570   0.00000  Uiso   1.00
C1646  C     0.20643   0.85123   0.97964   0.00000  Uiso   1.00
C1647  C     0.12700   0.81577   0.97069   0.00000  Uiso   1.00
C1648  C     0.20794   0.84870   0.69579   0.00000  Uiso   1.00
Cu1649 Cu    0.16667   0.83334   0.88022   0.00000  Uiso   1.00
Cu1650 Cu    0.16667   0.83333   0.78645   0.00000  Uiso   1.00
H1651  H     0.23611   0.96265   0.80317   0.00000  Uiso   1.00
H1652  H     0.09679   0.70456   0.86396   0.00000  Uiso   1.00
N1653  N     0.16668   0.83334   0.95069   0.00000  Uiso   1.00
N1654  N     0.16665   0.83332   0.71597   0.00000  Uiso   1.00
O1655  O     0.16666   0.77322   0.87291   0.00000  Uiso   1.00
O1656  O     0.16667   0.89345   0.79375   0.00000  Uiso   1.00
O1657  O     0.16666   0.77321   0.79372   0.00000  Uiso   1.00
O1658  O     0.16667   0.89346   0.87294   0.00000  Uiso   1.00
O1659  O     0.09161   0.83334   0.86379   0.00000  Uiso   1.00
O1660  O     0.24172   0.83333   0.80288   0.00000  Uiso   1.00
O1661  O     0.09161   0.83333   0.78460   0.00000  Uiso   1.00
O1662  O     0.24172   0.83334   0.88207   0.00000  Uiso   1.00
H1663  H     0.32676   0.82200   0.78143   0.00000  Uiso   1.00
H1664  H     0.00670   0.84412   0.88568   0.00000  Uiso   1.00
N1665  N     0.24889   0.71056   0.80015   0.00000  Uiso   1.00
H1666  H     0.26298   0.69608   0.77305   0.00000  Uiso   1.00
C1667  C     0.28961   0.72222   0.83666   0.00000  Uiso   1.00
H1668  H     0.30716   0.69411   0.85410   0.00000  Uiso   1.00
H1669  H     0.27456   0.74185   0.86282   0.00000  Uiso   1.00
H1670  H     0.31991   0.74019   0.82148   0.00000  Uiso   1.00
N1671  N     0.08409   0.95619   0.86714   0.00000  Uiso   1.00
H1672  H     0.06992   0.97084   0.89409   0.00000  Uiso   1.00
C1673  C     0.04341   0.94394   0.83086   0.00000  Uiso   1.00
H1674  H     0.01336   0.92594   0.84637   0.00000  Uiso   1.00
H1675  H     0.05858   0.92415   0.80490   0.00000  Uiso   1.00
H1676  H     0.02549   0.97175   0.81309   0.00000  Uiso   1.00
N1677  N     0.07463   0.82622   0.69913   0.00000  Uiso   1.00
H1678  H     0.04686   0.80449   0.68705   0.00000  Uiso   1.00
C1679  C     0.05753   0.86872   0.69383   0.00000  Uiso   1.00
H1680  H     0.02969   0.87470   0.71815   0.00000  Uiso   1.00
H1681  H     0.03993   0.87465   0.99079   0.00000  Uiso   1.00
H1682  H     0.08999   0.89120   0.70287   0.00000  Uiso   1.00
N1683  N     0.24727   0.87148   0.96019   0.00000  Uiso   1.00
H1684  H     0.28380   0.86171   0.97211   0.00000  Uiso   1.00
C1685  C     0.24311   0.91574   0.95212   0.00000  Uiso   1.00
H1686  H     0.25118   0.92304   0.91633   0.00000  Uiso   1.00
H1687  H     0.27229   0.93279   0.97627   0.00000  Uiso   1.00
H1688  H     0.20423   0.92700   0.95638   0.00000  Uiso   1.00
N1689  N     0.08700   0.79404   0.94253   0.00000  Uiso   1.00
H1690  H     0.05116   0.80617   0.94338   0.00000  Uiso   1.00
C1691  C     0.08705   0.74966   0.94990   0.00000  Uiso   1.00
H1692  H     0.12464   0.73685   0.94414   0.00000  Uiso   1.00
H1693  H     0.05624   0.73496   0.92508   0.00000  Uiso   1.00
H1694  H     0.07961   0.74192   0.98582   0.00000  Uiso   1.00
N1695  N     0.25340   0.86156   0.72402   0.00000  Uiso   1.00
H1696  H     0.28609   0.84857   0.71518   0.00000  Uiso   1.00
C1697  C     0.25848   0.90482   0.73668   0.00000  Uiso   1.00
H1698  H     0.28944   0.92011   0.71986   0.00000  Uiso   1.00
H1699  H     0.27014   0.90682   0.77470   0.00000  Uiso   1.00
H1700  H     0.22197   0.92163   0.72693   0.00000  Uiso   1.00
C1701  C     0.50021   0.75430   0.83355   0.00000  Uiso   1.00
C1702  C     0.49941   0.91240   0.83310   0.00000  Uiso   1.00
C1703  C     0.40148   0.83266   0.82148   0.00000  Uiso   1.00
C1704  C     0.59855   0.83390   0.84524   0.00000  Uiso   1.00
C1705  C     0.34624   0.83016   0.81546   0.00000  Uiso   1.00
C1706  C     0.65384   0.83621   0.85148   0.00000  Uiso   1.00
C1707  C     0.54029   0.68867   0.81629   0.00000  Uiso   1.00
C1708  C     0.45911   0.97813   0.85067   0.00000  Uiso   1.00
C1709  C     0.53848   0.97894   0.81551   0.00000  Uiso   1.00
C1710  C     0.46090   0.68794   0.85143   0.00000  Uiso   1.00
C1711  C     0.49844   0.95709   0.83266   0.00000  Uiso   1.00
C1712  C     0.50092   0.70968   0.83411   0.00000  Uiso   1.00
C1713  C     0.45731   0.82138   0.68570   0.00000  Uiso   1.00
C1714  C     0.53976   0.85123   0.97964   0.00000  Uiso   1.00
C1715  C     0.46034   0.81577   0.97069   0.00000  Uiso   1.00
C1716  C     0.54127   0.84870   0.69579   0.00000  Uiso   1.00
Cu1717 Cu    0.50000   0.83334   0.88022   0.00000  Uiso   1.00
Cu1718 Cu    0.50000   0.83333   0.78645   0.00000  Uiso   1.00
H1719  H     0.56944   0.96265   0.80317   0.00000  Uiso   1.00
H1720  H     0.43012   0.70456   0.86396   0.00000  Uiso   1.00
N1721  N     0.50001   0.83334   0.95069   0.00000  Uiso   1.00
N1722  N     0.49999   0.83332   0.71597   0.00000  Uiso   1.00
O1723  O     0.50000   0.77322   0.87291   0.00000  Uiso   1.00
O1724  O     0.50000   0.89345   0.79375   0.00000  Uiso   1.00
O1725  O     0.50000   0.77321   0.79372   0.00000  Uiso   1.00
O1726  O     0.50000   0.89346   0.87294   0.00000  Uiso   1.00
O1727  O     0.42495   0.83334   0.86379   0.00000  Uiso   1.00
O1728  O     0.57505   0.83333   0.80288   0.00000  Uiso   1.00
O1729  O     0.42494   0.83333   0.78460   0.00000  Uiso   1.00
O1730  O     0.57506   0.83334   0.88207   0.00000  Uiso   1.00
H1731  H     0.66009   0.82200   0.78143   0.00000  Uiso   1.00
H1732  H     0.34004   0.84412   0.88568   0.00000  Uiso   1.00
N1733  N     0.58222   0.71056   0.80015   0.00000  Uiso   1.00
H1734  H     0.59631   0.69608   0.77305   0.00000  Uiso   1.00
C1735  C     0.62294   0.72222   0.83666   0.00000  Uiso   1.00
H1736  H     0.64049   0.69411   0.85410   0.00000  Uiso   1.00
H1737  H     0.60790   0.74185   0.86282   0.00000  Uiso   1.00
H1738  H     0.65324   0.74019   0.82148   0.00000  Uiso   1.00
N1739  N     0.41742   0.95619   0.86714   0.00000  Uiso   1.00
H1740  H     0.40325   0.97084   0.89409   0.00000  Uiso   1.00
C1741  C     0.37674   0.94394   0.83086   0.00000  Uiso   1.00
H1742  H     0.34669   0.92594   0.84637   0.00000  Uiso   1.00
H1743  H     0.39191   0.92415   0.80490   0.00000  Uiso   1.00
H1744  H     0.35882   0.97175   0.81309   0.00000  Uiso   1.00
N1745  N     0.40796   0.82622   0.69913   0.00000  Uiso   1.00
H1746  H     0.38019   0.80449   0.68705   0.00000  Uiso   1.00
C1747  C     0.39087   0.86872   0.69383   0.00000  Uiso   1.00
H1748  H     0.36302   0.87470   0.71815   0.00000  Uiso   1.00
H1749  H     0.37326   0.87465   0.99079   0.00000  Uiso   1.00
H1750  H     0.42333   0.89120   0.70287   0.00000  Uiso   1.00
N1751  N     0.58060   0.87148   0.96019   0.00000  Uiso   1.00
H1752  H     0.61713   0.86171   0.97211   0.00000  Uiso   1.00
C1753  C     0.57645   0.91574   0.95212   0.00000  Uiso   1.00
H1754  H     0.58451   0.92304   0.91633   0.00000  Uiso   1.00
H1755  H     0.60563   0.93279   0.97627   0.00000  Uiso   1.00
H1756  H     0.53756   0.92700   0.95638   0.00000  Uiso   1.00
N1757  N     0.42033   0.79404   0.94253   0.00000  Uiso   1.00
H1758  H     0.38449   0.80617   0.94338   0.00000  Uiso   1.00
C1759  C     0.42038   0.74966   0.94990   0.00000  Uiso   1.00
H1760  H     0.45798   0.73685   0.94414   0.00000  Uiso   1.00
H1761  H     0.38957   0.73496   0.92508   0.00000  Uiso   1.00
H1762  H     0.41294   0.74192   0.98582   0.00000  Uiso   1.00
N1763  N     0.58674   0.86156   0.72402   0.00000  Uiso   1.00
H1764  H     0.61943   0.84857   0.71518   0.00000  Uiso   1.00
C1765  C     0.59181   0.90482   0.73668   0.00000  Uiso   1.00
H1766  H     0.62278   0.92011   0.71986   0.00000  Uiso   1.00
H1767  H     0.60347   0.90682   0.77470   0.00000  Uiso   1.00
H1768  H     0.55531   0.92163   0.72693   0.00000  Uiso   1.00
C1769  C     0.83354   0.75430   0.83355   0.00000  Uiso   1.00
C1770  C     0.83274   0.91240   0.83310   0.00000  Uiso   1.00
C1771  C     0.73481   0.83266   0.82148   0.00000  Uiso   1.00
C1772  C     0.93188   0.83390   0.84524   0.00000  Uiso   1.00
C1773  C     0.67958   0.83016   0.81546   0.00000  Uiso   1.00
C1774  C     0.98718   0.83621   0.85148   0.00000  Uiso   1.00
C1775  C     0.87362   0.68867   0.81629   0.00000  Uiso   1.00
C1776  C     0.79244   0.97813   0.85067   0.00000  Uiso   1.00
C1777  C     0.87181   0.97894   0.81551   0.00000  Uiso   1.00
C1778  C     0.79423   0.68794   0.85143   0.00000  Uiso   1.00
C1779  C     0.83178   0.95709   0.83266   0.00000  Uiso   1.00
C1780  C     0.83425   0.70968   0.83411   0.00000  Uiso   1.00
C1781  C     0.79065   0.82138   0.68570   0.00000  Uiso   1.00
C1782  C     0.87309   0.85123   0.97964   0.00000  Uiso   1.00
C1783  C     0.79367   0.81577   0.97069   0.00000  Uiso   1.00
C1784  C     0.87461   0.84870   0.69579   0.00000  Uiso   1.00
Cu1785 Cu    0.83333   0.83334   0.88022   0.00000  Uiso   1.00
Cu1786 Cu    0.83333   0.83333   0.78645   0.00000  Uiso   1.00
H1787  H     0.90277   0.96265   0.80317   0.00000  Uiso   1.00
H1788  H     0.76345   0.70456   0.86396   0.00000  Uiso   1.00
N1789  N     0.83335   0.83334   0.95069   0.00000  Uiso   1.00
N1790  N     0.83332   0.83332   0.71597   0.00000  Uiso   1.00
O1791  O     0.83333   0.77322   0.87291   0.00000  Uiso   1.00
O1792  O     0.83334   0.89345   0.79375   0.00000  Uiso   1.00
O1793  O     0.83333   0.77321   0.79372   0.00000  Uiso   1.00
O1794  O     0.83334   0.89346   0.87294   0.00000  Uiso   1.00
O1795  O     0.75828   0.83334   0.86379   0.00000  Uiso   1.00
O1796  O     0.90839   0.83333   0.80288   0.00000  Uiso   1.00
O1797  O     0.75828   0.83333   0.78460   0.00000  Uiso   1.00
O1798  O     0.90839   0.83334   0.88207   0.00000  Uiso   1.00
H1799  H     0.99342   0.82200   0.78143   0.00000  Uiso   1.00
H1800  H     0.67337   0.84412   0.88568   0.00000  Uiso   1.00
N1801  N     0.91555   0.71056   0.80015   0.00000  Uiso   1.00
H1802  H     0.92964   0.69608   0.77305   0.00000  Uiso   1.00
C1803  C     0.95628   0.72222   0.83666   0.00000  Uiso   1.00
H1804  H     0.97383   0.69411   0.85410   0.00000  Uiso   1.00
H1805  H     0.94123   0.74185   0.86282   0.00000  Uiso   1.00
H1806  H     0.98658   0.74019   0.82148   0.00000  Uiso   1.00
N1807  N     0.75076   0.95619   0.86714   0.00000  Uiso   1.00
H1808  H     0.73659   0.97084   0.89409   0.00000  Uiso   1.00
C1809  C     0.71007   0.94394   0.83086   0.00000  Uiso   1.00
H1810  H     0.68003   0.92594   0.84637   0.00000  Uiso   1.00
H1811  H     0.72524   0.92415   0.80490   0.00000  Uiso   1.00
H1812  H     0.69215   0.97175   0.81309   0.00000  Uiso   1.00
N1813  N     0.74130   0.82622   0.69913   0.00000  Uiso   1.00
H1814  H     0.71353   0.80449   0.68705   0.00000  Uiso   1.00
C1815  C     0.72420   0.86872   0.69383   0.00000  Uiso   1.00
H1816  H     0.69636   0.87470   0.71815   0.00000  Uiso   1.00
H1817  H     0.70659   0.87465   0.99079   0.00000  Uiso   1.00
H1818  H     0.75666   0.89120   0.70287   0.00000  Uiso   1.00
N1819  N     0.91394   0.87148   0.96019   0.00000  Uiso   1.00
H1820  H     0.95046   0.86171   0.97211   0.00000  Uiso   1.00
C1821  C     0.90978   0.91574   0.95212   0.00000  Uiso   1.00
H1822  H     0.91784   0.92304   0.91633   0.00000  Uiso   1.00
H1823  H     0.93896   0.93279   0.97627   0.00000  Uiso   1.00
H1824  H     0.87089   0.92700   0.95638   0.00000  Uiso   1.00
N1825  N     0.75366   0.79404   0.94253   0.00000  Uiso   1.00
H1826  H     0.71783   0.80617   0.94338   0.00000  Uiso   1.00
C1827  C     0.75372   0.74966   0.94990   0.00000  Uiso   1.00
H1828  H     0.79131   0.73685   0.94414   0.00000  Uiso   1.00
H1829  H     0.72291   0.73496   0.92508   0.00000  Uiso   1.00
H1830  H     0.74627   0.74192   0.98582   0.00000  Uiso   1.00
N1831  N     0.92007   0.86156   0.72402   0.00000  Uiso   1.00
H1832  H     0.95276   0.84857   0.71518   0.00000  Uiso   1.00
C1833  C     0.92514   0.90482   0.73668   0.00000  Uiso   1.00
H1834  H     0.95611   0.92011   0.71986   0.00000  Uiso   1.00
H1835  H     0.93681   0.90682   0.77470   0.00000  Uiso   1.00
H1836  H     0.88864   0.92163   0.72693   0.00000  Uiso   1.00
loop_
_geom_bond_atom_site_label_1
_geom_bond_atom_site_label_2
_geom_bond_distance
_geom_bond_site_symmetry_2
_ccdc_geom_bond_type
C1     O23     1.301   .     A
C1     C12     1.440   .     S
C1     O25     1.301   .     A
C2     C11     1.443   .     S
C2     O24     1.302   .     A
C2     O26     1.301   .     A
C3     C5      1.437   .     S
C3     O27     1.298   .     A
C3     O29     1.304   .     A
C4     C6      1.438   .     S
C4     O28     1.299   .     A
C4     O30     1.303   .     A
C5     C142    1.336   1_455 S
C5     H167    1.082   1_455 S
C6     C73     1.336   .     S
C6     H100    1.084   .     S
C7     C12     1.404   .     A
C7     N33     1.424   .     S
C7     C417    1.390   1_545 S
C8     C11     1.406   .     A
C8     N39     1.424   .     S
C8     C214    1.393   .     S
C9     C11     1.397   .     A
C9     H19     1.078   .     S
C9     C211    1.390   .     S
C10    C12     1.397   .     A
C10    H20     1.082   .     S
C10    C416    1.393   1_545 S
C13    N45     1.413   .     S
C13    N22     1.378   .     A
C13    C1239   1.429   1_554 S
C14    N21     1.370   .     A
C14    N51     1.421   .     S
C14    C628    1.432   .     S
C15    N57     1.419   .     S
C15    N21     1.369   .     A
C15    C625    1.429   .     S
C16    N63     1.411   .     S
C16    N22     1.380   .     A
C16    C1238   1.432   1_554 S
Cu17   Cu18    2.721   .     S
Cu17   O30     1.963   .     S
Cu17   O23     1.954   .     S
Cu17   O26     1.949   .     S
Cu17   O27     1.963   .     S
Cu17   N21     2.045   .     S
Cu18   O29     1.963   .     S
Cu18   N22     2.045   .     S
Cu18   O25     1.949   .     S
Cu18   O24     1.954   .     S
Cu18   O28     1.963   .     S
H31    C73     1.082   .     S
H32    C142    1.084   1_455 S
N33    H34     1.032   .     S
N33    C35     1.447   .     S
C35    H36     1.112   .     S
C35    H38     1.110   .     S
C35    H37     1.111   .     S
N39    C41     1.447   .     S
N39    H40     1.032   .     S
C41    H42     1.110   .     S
C41    H43     1.111   .     S
C41    H44     1.112   .     S
N45    C47     1.452   .     S
N45    H46     1.030   .     S
C47    H50     1.113   .     S
C47    H48     1.102   .     S
C47    H1273   1.110   1_554 S
H49    C659    1.110   .     S
N51    C53     1.449   .     S
N51    H52     1.029   .     S
C53    H54     1.109   .     S
C53    H55     1.107   .     S
C53    H56     1.113   .     S
N57    H58     1.029   .     S
N57    C59     1.446   .     S
C59    H60     1.111   .     S
C59    H61     1.110   .     S
C59    H62     1.111   .     S
N63    C65     1.446   .     S
N63    H64     1.026   .     S
C65    H68     1.112   .     S
C65    H66     1.108   .     S
C65    H67     1.107   .     S
C69    O91     1.301   .     A
C69    C80     1.440   .     S
C69    O93     1.301   .     A
C70    C79     1.443   .     S
C70    O92     1.302   .     A
C70    O94     1.301   .     A
C71    C73     1.437   .     S
C71    O95     1.298   .     A
C71    O97     1.304   .     A
C72    C74     1.438   .     S
C72    O96     1.299   .     A
C72    O98     1.303   .     A
C74    C141    1.336   .     S
C74    H168    1.084   .     S
C75    C80     1.404   .     A
C75    N101    1.424   .     S
C75    C485    1.390   1_545 S
C76    C79     1.406   .     A
C76    N107    1.424   .     S
C76    C282    1.393   .     S
C77    C79     1.397   .     A
C77    H87     1.078   .     S
C77    C279    1.390   .     S
C78    C80     1.397   .     A
C78    H88     1.082   .     S
C78    C484    1.393   1_545 S
C81    N113    1.413   .     S
C81    N90     1.378   .     A
C81    C1307   1.429   1_554 S
C82    N89     1.370   .     A
C82    N119    1.421   .     S
C82    C696    1.432   .     S
C83    N125    1.419   .     S
C83    N89     1.369   .     A
C83    C693    1.429   .     S
C84    N131    1.411   .     S
C84    N90     1.380   .     A
C84    C1306   1.432   1_554 S
Cu85   Cu86    2.721   .     S
Cu85   O98     1.963   .     S
Cu85   O91     1.954   .     S
Cu85   O94     1.949   .     S
Cu85   O95     1.963   .     S
Cu85   N89     2.045   .     S
Cu86   O97     1.963   .     S
Cu86   N90     2.045   .     S
Cu86   O93     1.949   .     S
Cu86   O92     1.954   .     S
Cu86   O96     1.963   .     S
H99    C141    1.082   .     S
N101   H102    1.032   .     S
N101   C103    1.447   .     S
C103   H104    1.112   .     S
C103   H106    1.110   .     S
C103   H105    1.111   .     S
N107   C109    1.447   .     S
N107   H108    1.032   .     S
C109   H110    1.110   .     S
C109   H111    1.111   .     S
C109   H112    1.112   .     S
N113   C115    1.452   .     S
N113   H114    1.030   .     S
C115   H118    1.113   .     S
C115   H116    1.102   .     S
C115   H1341   1.110   1_554 S
H117   C727    1.110   .     S
N119   C121    1.449   .     S
N119   H120    1.029   .     S
C121   H122    1.109   .     S
C121   H123    1.107   .     S
C121   H124    1.113   .     S
N125   H126    1.029   .     S
N125   C127    1.446   .     S
C127   H128    1.111   .     S
C127   H129    1.110   .     S
C127   H130    1.111   .     S
N131   C133    1.446   .     S
N131   H132    1.026   .     S
C133   H136    1.112   .     S
C133   H134    1.108   .     S
C133   H135    1.107   .     S
C137   O159    1.301   .     A
C137   C148    1.440   .     S
C137   O161    1.301   .     A
C138   C147    1.443   .     S
C138   O160    1.302   .     A
C138   O162    1.301   .     A
C139   C141    1.437   .     S
C139   O163    1.298   .     A
C139   O165    1.304   .     A
C140   C142    1.438   .     S
C140   O164    1.299   .     A
C140   O166    1.303   .     A
C142   C5      1.336   1_655 S
C142   H32     1.084   1_655 S
C143   C148    1.404   .     A
C143   N169    1.424   .     S
C143   C553    1.390   1_545 S
C144   C147    1.406   .     A
C144   N175    1.424   .     S
C144   C350    1.393   .     S
C145   C147    1.397   .     A
C145   H155    1.078   .     S
C145   C347    1.390   .     S
C146   C148    1.397   .     A
C146   H156    1.082   .     S
C146   C552    1.393   1_545 S
C149   N181    1.413   .     S
C149   N158    1.378   .     A
C149   C1375   1.429   1_554 S
C150   N157    1.370   .     A
C150   N187    1.421   .     S
C150   C764    1.432   .     S
C151   N193    1.419   .     S
C151   N157    1.369   .     A
C151   C761    1.429   .     S
C152   N199    1.411   .     S
C152   N158    1.380   .     A
C152   C1374   1.432   1_554 S
Cu153  Cu154   2.721   .     S
Cu153  O166    1.963   .     S
Cu153  O159    1.954   .     S
Cu153  O162    1.949   .     S
Cu153  O163    1.963   .     S
Cu153  N157    2.045   .     S
Cu154  O165    1.963   .     S
Cu154  N158    2.045   .     S
Cu154  O161    1.949   .     S
Cu154  O160    1.954   .     S
Cu154  O164    1.963   .     S
H167   C5      1.082   1_655 S
N169   H170    1.032   .     S
N169   C171    1.447   .     S
C171   H172    1.112   .     S
C171   H174    1.110   .     S
C171   H173    1.111   .     S
N175   C177    1.447   .     S
N175   H176    1.032   .     S
C177   H178    1.110   .     S
C177   H179    1.111   .     S
C177   H180    1.112   .     S
N181   C183    1.452   .     S
N181   H182    1.030   .     S
C183   H186    1.113   .     S
C183   H184    1.102   .     S
C183   H1409   1.110   1_554 S
H185   C795    1.110   .     S
N187   C189    1.449   .     S
N187   H188    1.029   .     S
C189   H190    1.109   .     S
C189   H191    1.107   .     S
C189   H192    1.113   .     S
N193   H194    1.029   .     S
N193   C195    1.446   .     S
C195   H196    1.111   .     S
C195   H197    1.110   .     S
C195   H198    1.111   .     S
N199   C201    1.446   .     S
N199   H200    1.026   .     S
C201   H204    1.112   .     S
C201   H202    1.108   .     S
C201   H203    1.107   .     S
C205   O227    1.301   .     A
C205   C216    1.440   .     S
C205   O229    1.301   .     A
C206   C215    1.443   .     S
C206   O228    1.302   .     A
C206   O230    1.301   .     A
C207   C209    1.437   .     S
C207   O231    1.298   .     A
C207   O233    1.304   .     A
C208   C210    1.438   .     S
C208   O232    1.299   .     A
C208   O234    1.303   .     A
C209   C346    1.336   1_455 S
C209   H371    1.082   1_455 S
C210   C277    1.336   .     S
C210   H304    1.084   .     S
C211   C216    1.404   .     A
C211   N237    1.424   .     S
C212   C215    1.406   .     A
C212   N243    1.424   .     S
C212   C418    1.393   .     S
C213   C215    1.397   .     A
C213   H223    1.078   .     S
C213   C415    1.390   .     S
C214   C216    1.397   .     A
C214   H224    1.082   .     S
C217   N249    1.413   .     S
C217   N226    1.378   .     A
C217   C1443   1.429   1_554 S
C218   N225    1.370   .     A
C218   N255    1.421   .     S
C218   C832    1.432   .     S
C219   N261    1.419   .     S
C219   N225    1.369   .     A
C219   C829    1.429   .     S
C220   N267    1.411   .     S
C220   N226    1.380   .     A
C220   C1442   1.432   1_554 S
Cu221  Cu222   2.721   .     S
Cu221  O234    1.963   .     S
Cu221  O227    1.954   .     S
Cu221  O230    1.949   .     S
Cu221  O231    1.963   .     S
Cu221  N225    2.045   .     S
Cu222  O233    1.963   .     S
Cu222  N226    2.045   .     S
Cu222  O229    1.949   .     S
Cu222  O228    1.954   .     S
Cu222  O232    1.963   .     S
H235   C277    1.082   .     S
H236   C346    1.084   1_455 S
N237   H238    1.032   .     S
N237   C239    1.447   .     S
C239   H240    1.112   .     S
C239   H242    1.110   .     S
C239   H241    1.111   .     S
N243   C245    1.447   .     S
N243   H244    1.032   .     S
C245   H246    1.110   .     S
C245   H247    1.111   .     S
C245   H248    1.112   .     S
N249   C251    1.452   .     S
N249   H250    1.030   .     S
C251   H254    1.113   .     S
C251   H252    1.102   .     S
C251   H1477   1.110   1_554 S
H253   C863    1.110   .     S
N255   C257    1.449   .     S
N255   H256    1.029   .     S
C257   H258    1.109   .     S
C257   H259    1.107   .     S
C257   H260    1.113   .     S
N261   H262    1.029   .     S
N261   C263    1.446   .     S
C263   H264    1.111   .     S
C263   H265    1.110   .     S
C263   H266    1.111   .     S
N267   C269    1.446   .     S
N267   H268    1.026   .     S
C269   H272    1.112   .     S
C269   H270    1.108   .     S
C269   H271    1.107   .     S
C273   O295    1.301   .     A
C273   C284    1.440   .     S
C273   O297    1.301   .     A
C274   C283    1.443   .     S
C274   O296    1.302   .     A
C274   O298    1.301   .     A
C275   C277    1.437   .     S
C275   O299    1.298   .     A
C275   O301    1.304   .     A
C276   C278    1.438   .     S
C276   O300    1.299   .     A
C276   O302    1.303   .     A
C278   C345    1.336   .     S
C278   H372    1.084   .     S
C279   C284    1.404   .     A
C279   N305    1.424   .     S
C280   C283    1.406   .     A
C280   N311    1.424   .     S
C280   C486    1.393   .     S
C281   C283    1.397   .     A
C281   H291    1.078   .     S
C281   C483    1.390   .     S
C282   C284    1.397   .     A
C282   H292    1.082   .     S
C285   N317    1.413   .     S
C285   N294    1.378   .     A
C285   C1511   1.429   1_554 S
C286   N293    1.370   .     A
C286   N323    1.421   .     S
C286   C900    1.432   .     S
C287   N329    1.419   .     S
C287   N293    1.369   .     A
C287   C897    1.429   .     S
C288   N335    1.411   .     S
C288   N294    1.380   .     A
C288   C1510   1.432   1_554 S
Cu289  Cu290   2.721   .     S
Cu289  O302    1.963   .     S
Cu289  O295    1.954   .     S
Cu289  O298    1.949   .     S
Cu289  O299    1.963   .     S
Cu289  N293    2.045   .     S
Cu290  O301    1.963   .     S
Cu290  N294    2.045   .     S
Cu290  O297    1.949   .     S
Cu290  O296    1.954   .     S
Cu290  O300    1.963   .     S
H303   C345    1.082   .     S
N305   H306    1.032   .     S
N305   C307    1.447   .     S
C307   H308    1.112   .     S
C307   H310    1.110   .     S
C307   H309    1.111   .     S
N311   C313    1.447   .     S
N311   H312    1.032   .     S
C313   H314    1.110   .     S
C313   H315    1.111   .     S
C313   H316    1.112   .     S
N317   C319    1.452   .     S
N317   H318    1.030   .     S
C319   H322    1.113   .     S
C319   H320    1.102   .     S
C319   H1545   1.110   1_554 S
H321   C931    1.110   .     S
N323   C325    1.449   .     S
N323   H324    1.029   .     S
C325   H326    1.109   .     S
C325   H327    1.107   .     S
C325   H328    1.113   .     S
N329   H330    1.029   .     S
N329   C331    1.446   .     S
C331   H332    1.111   .     S
C331   H333    1.110   .     S
C331   H334    1.111   .     S
N335   C337    1.446   .     S
N335   H336    1.026   .     S
C337   H340    1.112   .     S
C337   H338    1.108   .     S
C337   H339    1.107   .     S
C341   O363    1.301   .     A
C341   C352    1.440   .     S
C341   O365    1.301   .     A
C342   C351    1.443   .     S
C342   O364    1.302   .     A
C342   O366    1.301   .     A
C343   C345    1.437   .     S
C343   O367    1.298   .     A
C343   O369    1.304   .     A
C344   C346    1.438   .     S
C344   O368    1.299   .     A
C344   O370    1.303   .     A
C346   C209    1.336   1_655 S
C346   H236    1.084   1_655 S
C347   C352    1.404   .     A
C347   N373    1.424   .     S
C348   C351    1.406   .     A
C348   N379    1.424   .     S
C348   C554    1.393   .     S
C349   C351    1.397   .     A
C349   H359    1.078   .     S
C349   C551    1.390   .     S
C350   C352    1.397   .     A
C350   H360    1.082   .     S
C353   N385    1.413   .     S
C353   N362    1.378   .     A
C353   C1579   1.429   1_554 S
C354   N361    1.370   .     A
C354   N391    1.421   .     S
C354   C968    1.432   .     S
C355   N397    1.419   .     S
C355   N361    1.369   .     A
C355   C965    1.429   .     S
C356   N403    1.411   .     S
C356   N362    1.380   .     A
C356   C1578   1.432   1_554 S
Cu357  Cu358   2.721   .     S
Cu357  O370    1.963   .     S
Cu357  O363    1.954   .     S
Cu357  O366    1.949   .     S
Cu357  O367    1.963   .     S
Cu357  N361    2.045   .     S
Cu358  O369    1.963   .     S
Cu358  N362    2.045   .     S
Cu358  O365    1.949   .     S
Cu358  O364    1.954   .     S
Cu358  O368    1.963   .     S
H371   C209    1.082   1_655 S
N373   H374    1.032   .     S
N373   C375    1.447   .     S
C375   H376    1.112   .     S
C375   H378    1.110   .     S
C375   H377    1.111   .     S
N379   C381    1.447   .     S
N379   H380    1.032   .     S
C381   H382    1.110   .     S
C381   H383    1.111   .     S
C381   H384    1.112   .     S
N385   C387    1.452   .     S
N385   H386    1.030   .     S
C387   H390    1.113   .     S
C387   H388    1.102   .     S
C387   H1613   1.110   1_554 S
H389   C999    1.110   .     S
N391   C393    1.449   .     S
N391   H392    1.029   .     S
C393   H394    1.109   .     S
C393   H395    1.107   .     S
C393   H396    1.113   .     S
N397   H398    1.029   .     S
N397   C399    1.446   .     S
C399   H400    1.111   .     S
C399   H401    1.110   .     S
C399   H402    1.111   .     S
N403   C405    1.446   .     S
N403   H404    1.026   .     S
C405   H408    1.112   .     S
C405   H406    1.108   .     S
C405   H407    1.107   .     S
C409   O431    1.301   .     A
C409   C420    1.440   .     S
C409   O433    1.301   .     A
C410   C419    1.443   .     S
C410   O432    1.302   .     A
C410   O434    1.301   .     A
C411   C413    1.437   .     S
C411   O435    1.298   .     A
C411   O437    1.304   .     A
C412   C414    1.438   .     S
C412   O436    1.299   .     A
C412   O438    1.303   .     A
C413   C550    1.336   1_455 S
C413   H575    1.082   1_455 S
C414   C481    1.336   .     S
C414   H508    1.084   .     S
C415   C420    1.404   .     A
C415   N441    1.424   .     S
C416   C419    1.406   .     A
C416   N447    1.424   .     S
C416   C10     1.393   1_565 S
C417   C419    1.397   .     A
C417   H427    1.078   .     S
C417   C7      1.390   1_565 S
C418   C420    1.397   .     A
C418   H428    1.082   .     S
C421   N453    1.413   .     S
C421   N430    1.378   .     A
C421   C1647   1.429   1_554 S
C422   N429    1.370   .     A
C422   N459    1.421   .     S
C422   C1036   1.432   .     S
C423   N465    1.419   .     S
C423   N429    1.369   .     A
C423   C1033   1.429   .     S
C424   N471    1.411   .     S
C424   N430    1.380   .     A
C424   C1646   1.432   1_554 S
Cu425  Cu426   2.721   .     S
Cu425  O438    1.963   .     S
Cu425  O431    1.954   .     S
Cu425  O434    1.949   .     S
Cu425  O435    1.963   .     S
Cu425  N429    2.045   .     S
Cu426  O437    1.963   .     S
Cu426  N430    2.045   .     S
Cu426  O433    1.949   .     S
Cu426  O432    1.954   .     S
Cu426  O436    1.963   .     S
H439   C481    1.082   .     S
H440   C550    1.084   1_455 S
N441   H442    1.032   .     S
N441   C443    1.447   .     S
C443   H444    1.112   .     S
C443   H446    1.110   .     S
C443   H445    1.111   .     S
N447   C449    1.447   .     S
N447   H448    1.032   .     S
C449   H450    1.110   .     S
C449   H451    1.111   .     S
C449   H452    1.112   .     S
N453   C455    1.452   .     S
N453   H454    1.030   .     S
C455   H458    1.113   .     S
C455   H456    1.102   .     S
C455   H1681   1.110   1_554 S
H457   C1067   1.110   .     S
N459   C461    1.449   .     S
N459   H460    1.029   .     S
C461   H462    1.109   .     S
C461   H463    1.107   .     S
C461   H464    1.113   .     S
N465   H466    1.029   .     S
N465   C467    1.446   .     S
C467   H468    1.111   .     S
C467   H469    1.110   .     S
C467   H470    1.111   .     S
N471   C473    1.446   .     S
N471   H472    1.026   .     S
C473   H476    1.112   .     S
C473   H474    1.108   .     S
C473   H475    1.107   .     S
C477   O499    1.301   .     A
C477   C488    1.440   .     S
C477   O501    1.301   .     A
C478   C487    1.443   .     S
C478   O500    1.302   .     A
C478   O502    1.301   .     A
C479   C481    1.437   .     S
C479   O503    1.298   .     A
C479   O505    1.304   .     A
C480   C482    1.438   .     S
C480   O504    1.299   .     A
C480   O506    1.303   .     A
C482   C549    1.336   .     S
C482   H576    1.084   .     S
C483   C488    1.404   .     A
C483   N509    1.424   .     S
C484   C487    1.406   .     A
C484   N515    1.424   .     S
C484   C78     1.393   1_565 S
C485   C487    1.397   .     A
C485   H495    1.078   .     S
C485   C75     1.390   1_565 S
C486   C488    1.397   .     A
C486   H496    1.082   .     S
C489   N521    1.413   .     S
C489   N498    1.378   .     A
C489   C1715   1.429   1_554 S
C490   N497    1.370   .     A
C490   N527    1.421   .     S
C490   C1104   1.432   .     S
C491   N533    1.419   .     S
C491   N497    1.369   .     A
C491   C1101   1.429   .     S
C492   N539    1.411   .     S
C492   N498    1.380   .     A
C492   C1714   1.432   1_554 S
Cu493  Cu494   2.721   .     S
Cu493  O506    1.963   .     S
Cu493  O499    1.954   .     S
Cu493  O502    1.949   .     S
Cu493  O503    1.963   .     S
Cu493  N497    2.045   .     S
Cu494  O505    1.963   .     S
Cu494  N498    2.045   .     S
Cu494  O501    1.949   .     S
Cu494  O500    1.954   .     S
Cu494  O504    1.963   .     S
H507   C549    1.082   .     S
N509   H510    1.032   .     S
N509   C511    1.447   .     S
C511   H512    1.112   .     S
C511   H514    1.110   .     S
C511   H513    1.111   .     S
N515   C517    1.447   .     S
N515   H516    1.032   .     S
C517   H518    1.110   .     S
C517   H519    1.111   .     S
C517   H520    1.112   .     S
N521   C523    1.452   .     S
N521   H522    1.030   .     S
C523   H526    1.113   .     S
C523   H524    1.102   .     S
C523   H1749   1.110   1_554 S
H525   C1135   1.110   .     S
N527   C529    1.449   .     S
N527   H528    1.029   .     S
C529   H530    1.109   .     S
C529   H531    1.107   .     S
C529   H532    1.113   .     S
N533   H534    1.029   .     S
N533   C535    1.446   .     S
C535   H536    1.111   .     S
C535   H537    1.110   .     S
C535   H538    1.111   .     S
N539   C541    1.446   .     S
N539   H540    1.026   .     S
C541   H544    1.112   .     S
C541   H542    1.108   .     S
C541   H543    1.107   .     S
C545   O567    1.301   .     A
C545   C556    1.440   .     S
C545   O569    1.301   .     A
C546   C555    1.443   .     S
C546   O568    1.302   .     A
C546   O570    1.301   .     A
C547   C549    1.437   .     S
C547   O571    1.298   .     A
C547   O573    1.304   .     A
C548   C550    1.438   .     S
C548   O572    1.299   .     A
C548   O574    1.303   .     A
C550   C413    1.336   1_655 S
C550   H440    1.084   1_655 S
C551   C556    1.404   .     A
C551   N577    1.424   .     S
C552   C555    1.406   .     A
C552   N583    1.424   .     S
C552   C146    1.393   1_565 S
C553   C555    1.397   .     A
C553   H563    1.078   .     S
C553   C143    1.390   1_565 S
C554   C556    1.397   .     A
C554   H564    1.082   .     S
C557   N589    1.413   .     S
C557   N566    1.378   .     A
C557   C1783   1.429   1_554 S
C558   N565    1.370   .     A
C558   N595    1.421   .     S
C558   C1172   1.432   .     S
C559   N601    1.419   .     S
C559   N565    1.369   .     A
C559   C1169   1.429   .     S
C560   N607    1.411   .     S
C560   N566    1.380   .     A
C560   C1782   1.432   1_554 S
Cu561  Cu562   2.721   .     S
Cu561  O574    1.963   .     S
Cu561  O567    1.954   .     S
Cu561  O570    1.949   .     S
Cu561  O571    1.963   .     S
Cu561  N565    2.045   .     S
Cu562  O573    1.963   .     S
Cu562  N566    2.045   .     S
Cu562  O569    1.949   .     S
Cu562  O568    1.954   .     S
Cu562  O572    1.963   .     S
H575   C413    1.082   1_655 S
N577   H578    1.032   .     S
N577   C579    1.447   .     S
C579   H580    1.112   .     S
C579   H582    1.110   .     S
C579   H581    1.111   .     S
N583   C585    1.447   .     S
N583   H584    1.032   .     S
C585   H586    1.110   .     S
C585   H587    1.111   .     S
C585   H588    1.112   .     S
N589   C591    1.452   .     S
N589   H590    1.030   .     S
C591   H594    1.113   .     S
C591   H592    1.102   .     S
C591   H1817   1.110   1_554 S
H593   C1203   1.110   .     S
N595   C597    1.449   .     S
N595   H596    1.029   .     S
C597   H598    1.109   .     S
C597   H599    1.107   .     S
C597   H600    1.113   .     S
N601   H602    1.029   .     S
N601   C603    1.446   .     S
C603   H604    1.111   .     S
C603   H605    1.110   .     S
C603   H606    1.111   .     S
N607   C609    1.446   .     S
N607   H608    1.026   .     S
C609   H612    1.112   .     S
C609   H610    1.108   .     S
C609   H611    1.107   .     S
C613   O635    1.301   .     A
C613   C624    1.440   .     S
C613   O637    1.301   .     A
C614   C623    1.443   .     S
C614   O636    1.302   .     A
C614   O638    1.301   .     A
C615   C617    1.437   .     S
C615   O639    1.298   .     A
C615   O641    1.304   .     A
C616   C618    1.438   .     S
C616   O640    1.299   .     A
C616   O642    1.303   .     A
C617   C754    1.336   1_455 S
C617   H779    1.082   1_455 S
C618   C685    1.336   .     S
C618   H712    1.084   .     S
C619   C624    1.404   .     A
C619   N645    1.424   .     S
C619   C1029   1.390   1_545 S
C620   C623    1.406   .     A
C620   N651    1.424   .     S
C620   C826    1.393   .     S
C621   C623    1.397   .     A
C621   H631    1.078   .     S
C621   C823    1.390   .     S
C622   C624    1.397   .     A
C622   H632    1.082   .     S
C622   C1028   1.393   1_545 S
C625   N657    1.413   .     S
C625   N634    1.378   .     A
C626   N633    1.370   .     A
C626   N663    1.421   .     S
C626   C1240   1.432   .     S
C627   N669    1.419   .     S
C627   N633    1.369   .     A
C627   C1237   1.429   .     S
C628   N675    1.411   .     S
C628   N634    1.380   .     A
Cu629  Cu630   2.721   .     S
Cu629  O642    1.963   .     S
Cu629  O635    1.954   .     S
Cu629  O638    1.949   .     S
Cu629  O639    1.963   .     S
Cu629  N633    2.045   .     S
Cu630  O641    1.963   .     S
Cu630  N634    2.045   .     S
Cu630  O637    1.949   .     S
Cu630  O636    1.954   .     S
Cu630  O640    1.963   .     S
H643   C685    1.082   .     S
H644   C754    1.084   1_455 S
N645   H646    1.032   .     S
N645   C647    1.447   .     S
C647   H648    1.112   .     S
C647   H650    1.110   .     S
C647   H649    1.111   .     S
N651   C653    1.447   .     S
N651   H652    1.032   .     S
C653   H654    1.110   .     S
C653   H655    1.111   .     S
C653   H656    1.112   .     S
N657   C659    1.452   .     S
N657   H658    1.030   .     S
C659   H662    1.113   .     S
C659   H660    1.102   .     S
H661   C1271   1.110   .     S
N663   C665    1.449   .     S
N663   H664    1.029   .     S
C665   H666    1.109   .     S
C665   H667    1.107   .     S
C665   H668    1.113   .     S
N669   H670    1.029   .     S
N669   C671    1.446   .     S
C671   H672    1.111   .     S
C671   H673    1.110   .     S
C671   H674    1.111   .     S
N675   C677    1.446   .     S
N675   H676    1.026   .     S
C677   H680    1.112   .     S
C677   H678    1.108   .     S
C677   H679    1.107   .     S
C681   O703    1.301   .     A
C681   C692    1.440   .     S
C681   O705    1.301   .     A
C682   C691    1.443   .     S
C682   O704    1.302   .     A
C682   O706    1.301   .     A
C683   C685    1.437   .     S
C683   O707    1.298   .     A
C683   O709    1.304   .     A
C684   C686    1.438   .     S
C684   O708    1.299   .     A
C684   O710    1.303   .     A
C686   C753    1.336   .     S
C686   H780    1.084   .     S
C687   C692    1.404   .     A
C687   N713    1.424   .     S
C687   C1097   1.390   1_545 S
C688   C691    1.406   .     A
C688   N719    1.424   .     S
C688   C894    1.393   .     S
C689   C691    1.397   .     A
C689   H699    1.078   .     S
C689   C891    1.390   .     S
C690   C692    1.397   .     A
C690   H700    1.082   .     S
C690   C1096   1.393   1_545 S
C693   N725    1.413   .     S
C693   N702    1.378   .     A
C694   N701    1.370   .     A
C694   N731    1.421   .     S
C694   C1308   1.432   .     S
C695   N737    1.419   .     S
C695   N701    1.369   .     A
C695   C1305   1.429   .     S
C696   N743    1.411   .     S
C696   N702    1.380   .     A
Cu697  Cu698   2.721   .     S
Cu697  O710    1.963   .     S
Cu697  O703    1.954   .     S
Cu697  O706    1.949   .     S
Cu697  O707    1.963   .     S
Cu697  N701    2.045   .     S
Cu698  O709    1.963   .     S
Cu698  N702    2.045   .     S
Cu698  O705    1.949   .     S
Cu698  O704    1.954   .     S
Cu698  O708    1.963   .     S
H711   C753    1.082   .     S
N713   H714    1.032   .     S
N713   C715    1.447   .     S
C715   H716    1.112   .     S
C715   H718    1.110   .     S
C715   H717    1.111   .     S
N719   C721    1.447   .     S
N719   H720    1.032   .     S
C721   H722    1.110   .     S
C721   H723    1.111   .     S
C721   H724    1.112   .     S
N725   C727    1.452   .     S
N725   H726    1.030   .     S
C727   H730    1.113   .     S
C727   H728    1.102   .     S
H729   C1339   1.110   .     S
N731   C733    1.449   .     S
N731   H732    1.029   .     S
C733   H734    1.109   .     S
C733   H735    1.107   .     S
C733   H736    1.113   .     S
N737   H738    1.029   .     S
N737   C739    1.446   .     S
C739   H740    1.111   .     S
C739   H741    1.110   .     S
C739   H742    1.111   .     S
N743   C745    1.446   .     S
N743   H744    1.026   .     S
C745   H748    1.112   .     S
C745   H746    1.108   .     S
C745   H747    1.107   .     S
C749   O771    1.301   .     A
C749   C760    1.440   .     S
C749   O773    1.301   .     A
C750   C759    1.443   .     S
C750   O772    1.302   .     A
C750   O774    1.301   .     A
C751   C753    1.437   .     S
C751   O775    1.298   .     A
C751   O777    1.304   .     A
C752   C754    1.438   .     S
C752   O776    1.299   .     A
C752   O778    1.303   .     A
C754   C617    1.336   1_655 S
C754   H644    1.084   1_655 S
C755   C760    1.404   .     A
C755   N781    1.424   .     S
C755   C1165   1.390   1_545 S
C756   C759    1.406   .     A
C756   N787    1.424   .     S
C756   C962    1.393   .     S
C757   C759    1.397   .     A
C757   H767    1.078   .     S
C757   C959    1.390   .     S
C758   C760    1.397   .     A
C758   H768    1.082   .     S
C758   C1164   1.393   1_545 S
C761   N793    1.413   .     S
C761   N770    1.378   .     A
C762   N769    1.370   .     A
C762   N799    1.421   .     S
C762   C1376   1.432   .     S
C763   N805    1.419   .     S
C763   N769    1.369   .     A
C763   C1373   1.429   .     S
C764   N811    1.411   .     S
C764   N770    1.380   .     A
Cu765  Cu766   2.721   .     S
Cu765  O778    1.963   .     S
Cu765  O771    1.954   .     S
Cu765  O774    1.949   .     S
Cu765  O775    1.963   .     S
Cu765  N769    2.045   .     S
Cu766  O777    1.963   .     S
Cu766  N770    2.045   .     S
Cu766  O773    1.949   .     S
Cu766  O772    1.954   .     S
Cu766  O776    1.963   .     S
H779   C617    1.082   1_655 S
N781   H782    1.032   .     S
N781   C783    1.447   .     S
C783   H784    1.112   .     S
C783   H786    1.110   .     S
C783   H785    1.111   .     S
N787   C789    1.447   .     S
N787   H788    1.032   .     S
C789   H790    1.110   .     S
C789   H791    1.111   .     S
C789   H792    1.112   .     S
N793   C795    1.452   .     S
N793   H794    1.030   .     S
C795   H798    1.113   .     S
C795   H796    1.102   .     S
H797   C1407   1.110   .     S
N799   C801    1.449   .     S
N799   H800    1.029   .     S
C801   H802    1.109   .     S
C801   H803    1.107   .     S
C801   H804    1.113   .     S
N805   H806    1.029   .     S
N805   C807    1.446   .     S
C807   H808    1.111   .     S
C807   H809    1.110   .     S
C807   H810    1.111   .     S
N811   C813    1.446   .     S
N811   H812    1.026   .     S
C813   H816    1.112   .     S
C813   H814    1.108   .     S
C813   H815    1.107   .     S
C817   O839    1.301   .     A
C817   C828    1.440   .     S
C817   O841    1.301   .     A
C818   C827    1.443   .     S
C818   O840    1.302   .     A
C818   O842    1.301   .     A
C819   C821    1.437   .     S
C819   O843    1.298   .     A
C819   O845    1.304   .     A
C820   C822    1.438   .     S
C820   O844    1.299   .     A
C820   O846    1.303   .     A
C821   C958    1.336   1_455 S
C821   H983    1.082   1_455 S
C822   C889    1.336   .     S
C822   H916    1.084   .     S
C823   C828    1.404   .     A
C823   N849    1.424   .     S
C824   C827    1.406   .     A
C824   N855    1.424   .     S
C824   C1030   1.393   .     S
C825   C827    1.397   .     A
C825   H835    1.078   .     S
C825   C1027   1.390   .     S
C826   C828    1.397   .     A
C826   H836    1.082   .     S
C829   N861    1.413   .     S
C829   N838    1.378   .     A
C830   N837    1.370   .     A
C830   N867    1.421   .     S
C830   C1444   1.432   .     S
C831   N873    1.419   .     S
C831   N837    1.369   .     A
C831   C1441   1.429   .     S
C832   N879    1.411   .     S
C832   N838    1.380   .     A
Cu833  Cu834   2.721   .     S
Cu833  O846    1.963   .     S
Cu833  O839    1.954   .     S
Cu833  O842    1.949   .     S
Cu833  O843    1.963   .     S
Cu833  N837    2.045   .     S
Cu834  O845    1.963   .     S
Cu834  N838    2.045   .     S
Cu834  O841    1.949   .     S
Cu834  O840    1.954   .     S
Cu834  O844    1.963   .     S
H847   C889    1.082   .     S
H848   C958    1.084   1_455 S
N849   H850    1.032   .     S
N849   C851    1.447   .     S
C851   H852    1.112   .     S
C851   H854    1.110   .     S
C851   H853    1.111   .     S
N855   C857    1.447   .     S
N855   H856    1.032   .     S
C857   H858    1.110   .     S
C857   H859    1.111   .     S
C857   H860    1.112   .     S
N861   C863    1.452   .     S
N861   H862    1.030   .     S
C863   H866    1.113   .     S
C863   H864    1.102   .     S
H865   C1475   1.110   .     S
N867   C869    1.449   .     S
N867   H868    1.029   .     S
C869   H870    1.109   .     S
C869   H871    1.107   .     S
C869   H872    1.113   .     S
N873   H874    1.029   .     S
N873   C875    1.446   .     S
C875   H876    1.111   .     S
C875   H877    1.110   .     S
C875   H878    1.111   .     S
N879   C881    1.446   .     S
N879   H880    1.026   .     S
C881   H884    1.112   .     S
C881   H882    1.108   .     S
C881   H883    1.107   .     S
C885   O907    1.301   .     A
C885   C896    1.440   .     S
C885   O909    1.301   .     A
C886   C895    1.443   .     S
C886   O908    1.302   .     A
C886   O910    1.301   .     A
C887   C889    1.437   .     S
C887   O911    1.298   .     A
C887   O913    1.304   .     A
C888   C890    1.438   .     S
C888   O912    1.299   .     A
C888   O914    1.303   .     A
C890   C957    1.336   .     S
C890   H984    1.084   .     S
C891   C896    1.404   .     A
C891   N917    1.424   .     S
C892   C895    1.406   .     A
C892   N923    1.424   .     S
C892   C1098   1.393   .     S
C893   C895    1.397   .     A
C893   H903    1.078   .     S
C893   C1095   1.390   .     S
C894   C896    1.397   .     A
C894   H904    1.082   .     S
C897   N929    1.413   .     S
C897   N906    1.378   .     A
C898   N905    1.370   .     A
C898   N935    1.421   .     S
C898   C1512   1.432   .     S
C899   N941    1.419   .     S
C899   N905    1.369   .     A
C899   C1509   1.429   .     S
C900   N947    1.411   .     S
C900   N906    1.380   .     A
Cu901  Cu902   2.721   .     S
Cu901  O914    1.963   .     S
Cu901  O907    1.954   .     S
Cu901  O910    1.949   .     S
Cu901  O911    1.963   .     S
Cu901  N905    2.045   .     S
Cu902  O913    1.963   .     S
Cu902  N906    2.045   .     S
Cu902  O909    1.949   .     S
Cu902  O908    1.954   .     S
Cu902  O912    1.963   .     S
H915   C957    1.082   .     S
N917   H918    1.032   .     S
N917   C919    1.447   .     S
C919   H920    1.112   .     S
C919   H922    1.110   .     S
C919   H921    1.111   .     S
N923   C925    1.447   .     S
N923   H924    1.032   .     S
C925   H926    1.110   .     S
C925   H927    1.111   .     S
C925   H928    1.112   .     S
N929   C931    1.452   .     S
N929   H930    1.030   .     S
C931   H934    1.113   .     S
C931   H932    1.102   .     S
H933   C1543   1.110   .     S
N935   C937    1.449   .     S
N935   H936    1.029   .     S
C937   H938    1.109   .     S
C937   H939    1.107   .     S
C937   H940    1.113   .     S
N941   H942    1.029   .     S
N941   C943    1.446   .     S
C943   H944    1.111   .     S
C943   H945    1.110   .     S
C943   H946    1.111   .     S
N947   C949    1.446   .     S
N947   H948    1.026   .     S
C949   H952    1.112   .     S
C949   H950    1.108   .     S
C949   H951    1.107   .     S
C953   O975    1.301   .     A
C953   C964    1.440   .     S
C953   O977    1.301   .     A
C954   C963    1.443   .     S
C954   O976    1.302   .     A
C954   O978    1.301   .     A
C955   C957    1.437   .     S
C955   O979    1.298   .     A
C955   O981    1.304   .     A
C956   C958    1.438   .     S
C956   O980    1.299   .     A
C956   O982    1.303   .     A
C958   C821    1.336   1_655 S
C958   H848    1.084   1_655 S
C959   C964    1.404   .     A
C959   N985    1.424   .     S
C960   C963    1.406   .     A
C960   N991    1.424   .     S
C960   C1166   1.393   .     S
C961   C963    1.397   .     A
C961   H971    1.078   .     S
C961   C1163   1.390   .     S
C962   C964    1.397   .     A
C962   H972    1.082   .     S
C965   N997    1.413   .     S
C965   N974    1.378   .     A
C966   N973    1.370   .     A
C966   N1003   1.421   .     S
C966   C1580   1.432   .     S
C967   N1009   1.419   .     S
C967   N973    1.369   .     A
C967   C1577   1.429   .     S
C968   N1015   1.411   .     S
C968   N974    1.380   .     A
Cu969  Cu970   2.721   .     S
Cu969  O982    1.963   .     S
Cu969  O975    1.954   .     S
Cu969  O978    1.949   .     S
Cu969  O979    1.963   .     S
Cu969  N973    2.045   .     S
Cu970  O981    1.963   .     S
Cu970  N974    2.045   .     S
Cu970  O977    1.949   .     S
Cu970  O976    1.954   .     S
Cu970  O980    1.963   .     S
H983   C821    1.082   1_655 S
N985   H986    1.032   .     S
N985   C987    1.447   .     S
C987   H988    1.112   .     S
C987   H990    1.110   .     S
C987   H989    1.111   .     S
N991   C993    1.447   .     S
N991   H992    1.032   .     S
C993   H994    1.110   .     S
C993   H995    1.111   .     S
C993   H996    1.112   .     S
N997   C999    1.452   .     S
N997   H998    1.030   .     S
C999   H1002   1.113   .     S
C999   H1000   1.102   .     S
H1001  C1611   1.110   .     S
N1003  C1005   1.449   .     S
N1003  H1004   1.029   .     S
C1005  H1006   1.109   .     S
C1005  H1007   1.107   .     S
C1005  H1008   1.113   .     S
N1009  H1010   1.029   .     S
N1009  C1011   1.446   .     S
C1011  H1012   1.111   .     S
C1011  H1013   1.110   .     S
C1011  H1014   1.111   .     S
N1015  C1017   1.446   .     S
N1015  H1016   1.026   .     S
C1017  H1020   1.112   .     S
C1017  H1018   1.108   .     S
C1017  H1019   1.107   .     S
C1021  O1043   1.301   .     A
C1021  C1032   1.440   .     S
C1021  O1045   1.301   .     A
C1022  C1031   1.443   .     S
C1022  O1044   1.302   .     A
C1022  O1046   1.301   .     A
C1023  C1025   1.437   .     S
C1023  O1047   1.298   .     A
C1023  O1049   1.304   .     A
C1024  C1026   1.438   .     S
C1024  O1048   1.299   .     A
C1024  O1050   1.303   .     A
C1025  C1162   1.336   1_455 S
C1025  H1187   1.082   1_455 S
C1026  C1093   1.336   .     S
C1026  H1120   1.084   .     S
C1027  C1032   1.404   .     A
C1027  N1053   1.424   .     S
C1028  C1031   1.406   .     A
C1028  N1059   1.424   .     S
C1028  C622    1.393   1_565 S
C1029  C1031   1.397   .     A
C1029  H1039   1.078   .     S
C1029  C619    1.390   1_565 S
C1030  C1032   1.397   .     A
C1030  H1040   1.082   .     S
C1033  N1065   1.413   .     S
C1033  N1042   1.378   .     A
C1034  N1041   1.370   .     A
C1034  N1071   1.421   .     S
C1034  C1648   1.432   .     S
C1035  N1077   1.419   .     S
C1035  N1041   1.369   .     A
C1035  C1645   1.429   .     S
C1036  N1083   1.411   .     S
C1036  N1042   1.380   .     A
Cu1037 Cu1038  2.721   .     S
Cu1037 O1050   1.963   .     S
Cu1037 O1043   1.954   .     S
Cu1037 O1046   1.949   .     S
Cu1037 O1047   1.963   .     S
Cu1037 N1041   2.045   .     S
Cu1038 O1049   1.963   .     S
Cu1038 N1042   2.045   .     S
Cu1038 O1045   1.949   .     S
Cu1038 O1044   1.954   .     S
Cu1038 O1048   1.963   .     S
H1051  C1093   1.082   .     S
H1052  C1162   1.084   1_455 S
N1053  H1054   1.032   .     S
N1053  C1055   1.447   .     S
C1055  H1056   1.112   .     S
C1055  H1058   1.110   .     S
C1055  H1057   1.111   .     S
N1059  C1061   1.447   .     S
N1059  H1060   1.032   .     S
C1061  H1062   1.110   .     S
C1061  H1063   1.111   .     S
C1061  H1064   1.112   .     S
N1065  C1067   1.452   .     S
N1065  H1066   1.030   .     S
C1067  H1070   1.113   .     S
C1067  H1068   1.102   .     S
H1069  C1679   1.110   .     S
N1071  C1073   1.449   .     S
N1071  H1072   1.029   .     S
C1073  H1074   1.109   .     S
C1073  H1075   1.107   .     S
C1073  H1076   1.113   .     S
N1077  H1078   1.029   .     S
N1077  C1079   1.446   .     S
C1079  H1080   1.111   .     S
C1079  H1081   1.110   .     S
C1079  H1082   1.111   .     S
N1083  C1085   1.446   .     S
N1083  H1084   1.026   .     S
C1085  H1088   1.112   .     S
C1085  H1086   1.108   .     S
C1085  H1087   1.107   .     S
C1089  O1111   1.301   .     A
C1089  C1100   1.440   .     S
C1089  O1113   1.301   .     A
C1090  C1099   1.443   .     S
C1090  O1112   1.302   .     A
C1090  O1114   1.301   .     A
C1091  C1093   1.437   .     S
C1091  O1115   1.298   .     A
C1091  O1117   1.304   .     A
C1092  C1094   1.438   .     S
C1092  O1116   1.299   .     A
C1092  O1118   1.303   .     A
C1094  C1161   1.336   .     S
C1094  H1188   1.084   .     S
C1095  C1100   1.404   .     A
C1095  N1121   1.424   .     S
C1096  C1099   1.406   .     A
C1096  N1127   1.424   .     S
C1096  C690    1.393   1_565 S
C1097  C1099   1.397   .     A
C1097  H1107   1.078   .     S
C1097  C687    1.390   1_565 S
C1098  C1100   1.397   .     A
C1098  H1108   1.082   .     S
C1101  N1133   1.413   .     S
C1101  N1110   1.378   .     A
C1102  N1109   1.370   .     A
C1102  N1139   1.421   .     S
C1102  C1716   1.432   .     S
C1103  N1145   1.419   .     S
C1103  N1109   1.369   .     A
C1103  C1713   1.429   .     S
C1104  N1151   1.411   .     S
C1104  N1110   1.380   .     A
Cu1105 Cu1106  2.721   .     S
Cu1105 O1118   1.963   .     S
Cu1105 O1111   1.954   .     S
Cu1105 O1114   1.949   .     S
Cu1105 O1115   1.963   .     S
Cu1105 N1109   2.045   .     S
Cu1106 O1117   1.963   .     S
Cu1106 N1110   2.045   .     S
Cu1106 O1113   1.949   .     S
Cu1106 O1112   1.954   .     S
Cu1106 O1116   1.963   .     S
H1119  C1161   1.082   .     S
N1121  H1122   1.032   .     S
N1121  C1123   1.447   .     S
C1123  H1124   1.112   .     S
C1123  H1126   1.110   .     S
C1123  H1125   1.111   .     S
N1127  C1129   1.447   .     S
N1127  H1128   1.032   .     S
C1129  H1130   1.110   .     S
C1129  H1131   1.111   .     S
C1129  H1132   1.112   .     S
N1133  C1135   1.452   .     S
N1133  H1134   1.030   .     S
C1135  H1138   1.113   .     S
C1135  H1136   1.102   .     S
H1137  C1747   1.110   .     S
N1139  C1141   1.449   .     S
N1139  H1140   1.029   .     S
C1141  H1142   1.109   .     S
C1141  H1143   1.107   .     S
C1141  H1144   1.113   .     S
N1145  H1146   1.029   .     S
N1145  C1147   1.446   .     S
C1147  H1148   1.111   .     S
C1147  H1149   1.110   .     S
C1147  H1150   1.111   .     S
N1151  C1153   1.446   .     S
N1151  H1152   1.026   .     S
C1153  H1156   1.112   .     S
C1153  H1154   1.108   .     S
C1153  H1155   1.107   .     S
C1157  O1179   1.301   .     A
C1157  C1168   1.440   .     S
C1157  O1181   1.301   .     A
C1158  C1167   1.443   .     S
C1158  O1180   1.302   .     A
C1158  O1182   1.301   .     A
C1159  C1161   1.437   .     S
C1159  O1183   1.298   .     A
C1159  O1185   1.304   .     A
C1160  C1162   1.438   .     S
C1160  O1184   1.299   .     A
C1160  O1186   1.303   .     A
C1162  C1025   1.336   1_655 S
C1162  H1052   1.084   1_655 S
C1163  C1168   1.404   .     A
C1163  N1189   1.424   .     S
C1164  C1167   1.406   .     A
C1164  N1195   1.424   .     S
C1164  C758    1.393   1_565 S
C1165  C1167   1.397   .     A
C1165  H1175   1.078   .     S
C1165  C755    1.390   1_565 S
C1166  C1168   1.397   .     A
C1166  H1176   1.082   .     S
C1169  N1201   1.413   .     S
C1169  N1178   1.378   .     A
C1170  N1177   1.370   .     A
C1170  N1207   1.421   .     S
C1170  C1784   1.432   .     S
C1171  N1213   1.419   .     S
C1171  N1177   1.369   .     A
C1171  C1781   1.429   .     S
C1172  N1219   1.411   .     S
C1172  N1178   1.380   .     A
Cu1173 Cu1174  2.721   .     S
Cu1173 O1186   1.963   .     S
Cu1173 O1179   1.954   .     S
Cu1173 O1182   1.949   .     S
Cu1173 O1183   1.963   .     S
Cu1173 N1177   2.045   .     S
Cu1174 O1185   1.963   .     S
Cu1174 N1178   2.045   .     S
Cu1174 O1181   1.949   .     S
Cu1174 O1180   1.954   .     S
Cu1174 O1184   1.963   .     S
H1187  C1025   1.082   1_655 S
N1189  H1190   1.032   .     S
N1189  C1191   1.447   .     S
C1191  H1192   1.112   .     S
C1191  H1194   1.110   .     S
C1191  H1193   1.111   .     S
N1195  C1197   1.447   .     S
N1195  H1196   1.032   .     S
C1197  H1198   1.110   .     S
C1197  H1199   1.111   .     S
C1197  H1200   1.112   .     S
N1201  C1203   1.452   .     S
N1201  H1202   1.030   .     S
C1203  H1206   1.113   .     S
C1203  H1204   1.102   .     S
H1205  C1815   1.110   .     S
N1207  C1209   1.449   .     S
N1207  H1208   1.029   .     S
C1209  H1210   1.109   .     S
C1209  H1211   1.107   .     S
C1209  H1212   1.113   .     S
N1213  H1214   1.029   .     S
N1213  C1215   1.446   .     S
C1215  H1216   1.111   .     S
C1215  H1217   1.110   .     S
C1215  H1218   1.111   .     S
N1219  C1221   1.446   .     S
N1219  H1220   1.026   .     S
C1221  H1224   1.112   .     S
C1221  H1222   1.108   .     S
C1221  H1223   1.107   .     S
C1225  O1247   1.301   .     A
C1225  C1236   1.440   .     S
C1225  O1249   1.301   .     A
C1226  C1235   1.443   .     S
C1226  O1248   1.302   .     A
C1226  O1250   1.301   .     A
C1227  C1229   1.437   .     S
C1227  O1251   1.298   .     A
C1227  O1253   1.304   .     A
C1228  C1230   1.438   .     S
C1228  O1252   1.299   .     A
C1228  O1254   1.303   .     A
C1229  C1366   1.336   1_455 S
C1229  H1391   1.082   1_455 S
C1230  C1297   1.336   .     S
C1230  H1324   1.084   .     S
C1231  C1236   1.404   .     A
C1231  N1257   1.424   .     S
C1231  C1641   1.390   1_545 S
C1232  C1235   1.406   .     A
C1232  N1263   1.424   .     S
C1232  C1438   1.393   .     S
C1233  C1235   1.397   .     A
C1233  H1243   1.078   .     S
C1233  C1435   1.390   .     S
C1234  C1236   1.397   .     A
C1234  H1244   1.082   .     S
C1234  C1640   1.393   1_545 S
C1237  N1269   1.413   .     S
C1237  N1246   1.378   .     A
C1238  N1245   1.370   .     A
C1238  N1275   1.421   .     S
C1238  C16     1.432   1_556 S
C1239  N1281   1.419   .     S
C1239  N1245   1.369   .     A
C1239  C13     1.429   1_556 S
C1240  N1287   1.411   .     S
C1240  N1246   1.380   .     A
Cu1241 Cu1242  2.721   .     S
Cu1241 O1254   1.963   .     S
Cu1241 O1247   1.954   .     S
Cu1241 O1250   1.949   .     S
Cu1241 O1251   1.963   .     S
Cu1241 N1245   2.045   .     S
Cu1242 O1253   1.963   .     S
Cu1242 N1246   2.045   .     S
Cu1242 O1249   1.949   .     S
Cu1242 O1248   1.954   .     S
Cu1242 O1252   1.963   .     S
H1255  C1297   1.082   .     S
H1256  C1366   1.084   1_455 S
N1257  H1258   1.032   .     S
N1257  C1259   1.447   .     S
C1259  H1260   1.112   .     S
C1259  H1262   1.110   .     S
C1259  H1261   1.111   .     S
N1263  C1265   1.447   .     S
N1263  H1264   1.032   .     S
C1265  H1266   1.110   .     S
C1265  H1267   1.111   .     S
C1265  H1268   1.112   .     S
N1269  C1271   1.452   .     S
N1269  H1270   1.030   .     S
C1271  H1274   1.113   .     S
C1271  H1272   1.102   .     S
H1273  C47     1.110   1_556 S
N1275  C1277   1.449   .     S
N1275  H1276   1.029   .     S
C1277  H1278   1.109   .     S
C1277  H1279   1.107   .     S
C1277  H1280   1.113   .     S
N1281  H1282   1.029   .     S
N1281  C1283   1.446   .     S
C1283  H1284   1.111   .     S
C1283  H1285   1.110   .     S
C1283  H1286   1.111   .     S
N1287  C1289   1.446   .     S
N1287  H1288   1.026   .     S
C1289  H1292   1.112   .     S
C1289  H1290   1.108   .     S
C1289  H1291   1.107   .     S
C1293  O1315   1.301   .     A
C1293  C1304   1.440   .     S
C1293  O1317   1.301   .     A
C1294  C1303   1.443   .     S
C1294  O1316   1.302   .     A
C1294  O1318   1.301   .     A
C1295  C1297   1.437   .     S
C1295  O1319   1.298   .     A
C1295  O1321   1.304   .     A
C1296  C1298   1.438   .     S
C1296  O1320   1.299   .     A
C1296  O1322   1.303   .     A
C1298  C1365   1.336   .     S
C1298  H1392   1.084   .     S
C1299  C1304   1.404   .     A
C1299  N1325   1.424   .     S
C1299  C1709   1.390   1_545 S
C1300  C1303   1.406   .     A
C1300  N1331   1.424   .     S
C1300  C1506   1.393   .     S
C1301  C1303   1.397   .     A
C1301  H1311   1.078   .     S
C1301  C1503   1.390   .     S
C1302  C1304   1.397   .     A
C1302  H1312   1.082   .     S
C1302  C1708   1.393   1_545 S
C1305  N1337   1.413   .     S
C1305  N1314   1.378   .     A
C1306  N1313   1.370   .     A
C1306  N1343   1.421   .     S
C1306  C84     1.432   1_556 S
C1307  N1349   1.419   .     S
C1307  N1313   1.369   .     A
C1307  C81     1.429   1_556 S
C1308  N1355   1.411   .     S
C1308  N1314   1.380   .     A
Cu1309 Cu1310  2.721   .     S
Cu1309 O1322   1.963   .     S
Cu1309 O1315   1.954   .     S
Cu1309 O1318   1.949   .     S
Cu1309 O1319   1.963   .     S
Cu1309 N1313   2.045   .     S
Cu1310 O1321   1.963   .     S
Cu1310 N1314   2.045   .     S
Cu1310 O1317   1.949   .     S
Cu1310 O1316   1.954   .     S
Cu1310 O1320   1.963   .     S
H1323  C1365   1.082   .     S
N1325  H1326   1.032   .     S
N1325  C1327   1.447   .     S
C1327  H1328   1.112   .     S
C1327  H1330   1.110   .     S
C1327  H1329   1.111   .     S
N1331  C1333   1.447   .     S
N1331  H1332   1.032   .     S
C1333  H1334   1.110   .     S
C1333  H1335   1.111   .     S
C1333  H1336   1.112   .     S
N1337  C1339   1.452   .     S
N1337  H1338   1.030   .     S
C1339  H1342   1.113   .     S
C1339  H1340   1.102   .     S
H1341  C115    1.110   1_556 S
N1343  C1345   1.449   .     S
N1343  H1344   1.029   .     S
C1345  H1346   1.109   .     S
C1345  H1347   1.107   .     S
C1345  H1348   1.113   .     S
N1349  H1350   1.029   .     S
N1349  C1351   1.446   .     S
C1351  H1352   1.111   .     S
C1351  H1353   1.110   .     S
C1351  H1354   1.111   .     S
N1355  C1357   1.446   .     S
N1355  H1356   1.026   .     S
C1357  H1360   1.112   .     S
C1357  H1358   1.108   .     S
C1357  H1359   1.107   .     S
C1361  O1383   1.301   .     A
C1361  C1372   1.440   .     S
C1361  O1385   1.301   .     A
C1362  C1371   1.443   .     S
C1362  O1384   1.302   .     A
C1362  O1386   1.301   .     A
C1363  C1365   1.437   .     S
C1363  O1387   1.298   .     A
C1363  O1389   1.304   .     A
C1364  C1366   1.438   .     S
C1364  O1388   1.299   .     A
C1364  O1390   1.303   .     A
C1366  C1229   1.336   1_655 S
C1366  H1256   1.084   1_655 S
C1367  C1372   1.404   .     A
C1367  N1393   1.424   .     S
C1367  C1777   1.390   1_545 S
C1368  C1371   1.406   .     A
C1368  N1399   1.424   .     S
C1368  C1574   1.393   .     S
C1369  C1371   1.397   .     A
C1369  H1379   1.078   .     S
C1369  C1571   1.390   .     S
C1370  C1372   1.397   .     A
C1370  H1380   1.082   .     S
C1370  C1776   1.393   1_545 S
C1373  N1405   1.413   .     S
C1373  N1382   1.378   .     A
C1374  N1381   1.370   .     A
C1374  N1411   1.421   .     S
C1374  C152    1.432   1_556 S
C1375  N1417   1.419   .     S
C1375  N1381   1.369   .     A
C1375  C149    1.429   1_556 S
C1376  N1423   1.411   .     S
C1376  N1382   1.380   .     A
Cu1377 Cu1378  2.721   .     S
Cu1377 O1390   1.963   .     S
Cu1377 O1383   1.954   .     S
Cu1377 O1386   1.949   .     S
Cu1377 O1387   1.963   .     S
Cu1377 N1381   2.045   .     S
Cu1378 O1389   1.963   .     S
Cu1378 N1382   2.045   .     S
Cu1378 O1385   1.949   .     S
Cu1378 O1384   1.954   .     S
Cu1378 O1388   1.963   .     S
H1391  C1229   1.082   1_655 S
N1393  H1394   1.032   .     S
N1393  C1395   1.447   .     S
C1395  H1396   1.112   .     S
C1395  H1398   1.110   .     S
C1395  H1397   1.111   .     S
N1399  C1401   1.447   .     S
N1399  H1400   1.032   .     S
C1401  H1402   1.110   .     S
C1401  H1403   1.111   .     S
C1401  H1404   1.112   .     S
N1405  C1407   1.452   .     S
N1405  H1406   1.030   .     S
C1407  H1410   1.113   .     S
C1407  H1408   1.102   .     S
H1409  C183    1.110   1_556 S
N1411  C1413   1.449   .     S
N1411  H1412   1.029   .     S
C1413  H1414   1.109   .     S
C1413  H1415   1.107   .     S
C1413  H1416   1.113   .     S
N1417  H1418   1.029   .     S
N1417  C1419   1.446   .     S
C1419  H1420   1.111   .     S
C1419  H1421   1.110   .     S
C1419  H1422   1.111   .     S
N1423  C1425   1.446   .     S
N1423  H1424   1.026   .     S
C1425  H1428   1.112   .     S
C1425  H1426   1.108   .     S
C1425  H1427   1.107   .     S
C1429  O1451   1.301   .     A
C1429  C1440   1.440   .     S
C1429  O1453   1.301   .     A
C1430  C1439   1.443   .     S
C1430  O1452   1.302   .     A
C1430  O1454   1.301   .     A
C1431  C1433   1.437   .     S
C1431  O1455   1.298   .     A
C1431  O1457   1.304   .     A
C1432  C1434   1.438   .     S
C1432  O1456   1.299   .     A
C1432  O1458   1.303   .     A
C1433  C1570   1.336   1_455 S
C1433  H1595   1.082   1_455 S
C1434  C1501   1.336   .     S
C1434  H1528   1.084   .     S
C1435  C1440   1.404   .     A
C1435  N1461   1.424   .     S
C1436  C1439   1.406   .     A
C1436  N1467   1.424   .     S
C1436  C1642   1.393   .     S
C1437  C1439   1.397   .     A
C1437  H1447   1.078   .     S
C1437  C1639   1.390   .     S
C1438  C1440   1.397   .     A
C1438  H1448   1.082   .     S
C1441  N1473   1.413   .     S
C1441  N1450   1.378   .     A
C1442  N1449   1.370   .     A
C1442  N1479   1.421   .     S
C1442  C220    1.432   1_556 S
C1443  N1485   1.419   .     S
C1443  N1449   1.369   .     A
C1443  C217    1.429   1_556 S
C1444  N1491   1.411   .     S
C1444  N1450   1.380   .     A
Cu1445 Cu1446  2.721   .     S
Cu1445 O1458   1.963   .     S
Cu1445 O1451   1.954   .     S
Cu1445 O1454   1.949   .     S
Cu1445 O1455   1.963   .     S
Cu1445 N1449   2.045   .     S
Cu1446 O1457   1.963   .     S
Cu1446 N1450   2.045   .     S
Cu1446 O1453   1.949   .     S
Cu1446 O1452   1.954   .     S
Cu1446 O1456   1.963   .     S
H1459  C1501   1.082   .     S
H1460  C1570   1.084   1_455 S
N1461  H1462   1.032   .     S
N1461  C1463   1.447   .     S
C1463  H1464   1.112   .     S
C1463  H1466   1.110   .     S
C1463  H1465   1.111   .     S
N1467  C1469   1.447   .     S
N1467  H1468   1.032   .     S
C1469  H1470   1.110   .     S
C1469  H1471   1.111   .     S
C1469  H1472   1.112   .     S
N1473  C1475   1.452   .     S
N1473  H1474   1.030   .     S
C1475  H1478   1.113   .     S
C1475  H1476   1.102   .     S
H1477  C251    1.110   1_556 S
N1479  C1481   1.449   .     S
N1479  H1480   1.029   .     S
C1481  H1482   1.109   .     S
C1481  H1483   1.107   .     S
C1481  H1484   1.113   .     S
N1485  H1486   1.029   .     S
N1485  C1487   1.446   .     S
C1487  H1488   1.111   .     S
C1487  H1489   1.110   .     S
C1487  H1490   1.111   .     S
N1491  C1493   1.446   .     S
N1491  H1492   1.026   .     S
C1493  H1496   1.112   .     S
C1493  H1494   1.108   .     S
C1493  H1495   1.107   .     S
C1497  O1519   1.301   .     A
C1497  C1508   1.440   .     S
C1497  O1521   1.301   .     A
C1498  C1507   1.443   .     S
C1498  O1520   1.302   .     A
C1498  O1522   1.301   .     A
C1499  C1501   1.437   .     S
C1499  O1523   1.298   .     A
C1499  O1525   1.304   .     A
C1500  C1502   1.438   .     S
C1500  O1524   1.299   .     A
C1500  O1526   1.303   .     A
C1502  C1569   1.336   .     S
C1502  H1596   1.084   .     S
C1503  C1508   1.404   .     A
C1503  N1529   1.424   .     S
C1504  C1507   1.406   .     A
C1504  N1535   1.424   .     S
C1504  C1710   1.393   .     S
C1505  C1507   1.397   .     A
C1505  H1515   1.078   .     S
C1505  C1707   1.390   .     S
C1506  C1508   1.397   .     A
C1506  H1516   1.082   .     S
C1509  N1541   1.413   .     S
C1509  N1518   1.378   .     A
C1510  N1517   1.370   .     A
C1510  N1547   1.421   .     S
C1510  C288    1.432   1_556 S
C1511  N1553   1.419   .     S
C1511  N1517   1.369   .     A
C1511  C285    1.429   1_556 S
C1512  N1559   1.411   .     S
C1512  N1518   1.380   .     A
Cu1513 Cu1514  2.721   .     S
Cu1513 O1526   1.963   .     S
Cu1513 O1519   1.954   .     S
Cu1513 O1522   1.949   .     S
Cu1513 O1523   1.963   .     S
Cu1513 N1517   2.045   .     S
Cu1514 O1525   1.963   .     S
Cu1514 N1518   2.045   .     S
Cu1514 O1521   1.949   .     S
Cu1514 O1520   1.954   .     S
Cu1514 O1524   1.963   .     S
H1527  C1569   1.082   .     S
N1529  H1530   1.032   .     S
N1529  C1531   1.447   .     S
C1531  H1532   1.112   .     S
C1531  H1534   1.110   .     S
C1531  H1533   1.111   .     S
N1535  C1537   1.447   .     S
N1535  H1536   1.032   .     S
C1537  H1538   1.110   .     S
C1537  H1539   1.111   .     S
C1537  H1540   1.112   .     S
N1541  C1543   1.452   .     S
N1541  H1542   1.030   .     S
C1543  H1546   1.113   .     S
C1543  H1544   1.102   .     S
H1545  C319    1.110   1_556 S
N1547  C1549   1.449   .     S
N1547  H1548   1.029   .     S
C1549  H1550   1.109   .     S
C1549  H1551   1.107   .     S
C1549  H1552   1.113   .     S
N1553  H1554   1.029   .     S
N1553  C1555   1.446   .     S
C1555  H1556   1.111   .     S
C1555  H1557   1.110   .     S
C1555  H1558   1.111   .     S
N1559  C1561   1.446   .     S
N1559  H1560   1.026   .     S
C1561  H1564   1.112   .     S
C1561  H1562   1.108   .     S
C1561  H1563   1.107   .     S
C1565  O1587   1.301   .     A
C1565  C1576   1.440   .     S
C1565  O1589   1.301   .     A
C1566  C1575   1.443   .     S
C1566  O1588   1.302   .     A
C1566  O1590   1.301   .     A
C1567  C1569   1.437   .     S
C1567  O1591   1.298   .     A
C1567  O1593   1.304   .     A
C1568  C1570   1.438   .     S
C1568  O1592   1.299   .     A
C1568  O1594   1.303   .     A
C1570  C1433   1.336   1_655 S
C1570  H1460   1.084   1_655 S
C1571  C1576   1.404   .     A
C1571  N1597   1.424   .     S
C1572  C1575   1.406   .     A
C1572  N1603   1.424   .     S
C1572  C1778   1.393   .     S
C1573  C1575   1.397   .     A
C1573  H1583   1.078   .     S
C1573  C1775   1.390   .     S
C1574  C1576   1.397   .     A
C1574  H1584   1.082   .     S
C1577  N1609   1.413   .     S
C1577  N1586   1.378   .     A
C1578  N1585   1.370   .     A
C1578  N1615   1.421   .     S
C1578  C356    1.432   1_556 S
C1579  N1621   1.419   .     S
C1579  N1585   1.369   .     A
C1579  C353    1.429   1_556 S
C1580  N1627   1.411   .     S
C1580  N1586   1.380   .     A
Cu1581 Cu1582  2.721   .     S
Cu1581 O1594   1.963   .     S
Cu1581 O1587   1.954   .     S
Cu1581 O1590   1.949   .     S
Cu1581 O1591   1.963   .     S
Cu1581 N1585   2.045   .     S
Cu1582 O1593   1.963   .     S
Cu1582 N1586   2.045   .     S
Cu1582 O1589   1.949   .     S
Cu1582 O1588   1.954   .     S
Cu1582 O1592   1.963   .     S
H1595  C1433   1.082   1_655 S
N1597  H1598   1.032   .     S
N1597  C1599   1.447   .     S
C1599  H1600   1.112   .     S
C1599  H1602   1.110   .     S
C1599  H1601   1.111   .     S
N1603  C1605   1.447   .     S
N1603  H1604   1.032   .     S
C1605  H1606   1.110   .     S
C1605  H1607   1.111   .     S
C1605  H1608   1.112   .     S
N1609  C1611   1.452   .     S
N1609  H1610   1.030   .     S
C1611  H1614   1.113   .     S
C1611  H1612   1.102   .     S
H1613  C387    1.110   1_556 S
N1615  C1617   1.449   .     S
N1615  H1616   1.029   .     S
C1617  H1618   1.109   .     S
C1617  H1619   1.107   .     S
C1617  H1620   1.113   .     S
N1621  H1622   1.029   .     S
N1621  C1623   1.446   .     S
C1623  H1624   1.111   .     S
C1623  H1625   1.110   .     S
C1623  H1626   1.111   .     S
N1627  C1629   1.446   .     S
N1627  H1628   1.026   .     S
C1629  H1632   1.112   .     S
C1629  H1630   1.108   .     S
C1629  H1631   1.107   .     S
C1633  O1655   1.301   .     A
C1633  C1644   1.440   .     S
C1633  O1657   1.301   .     A
C1634  C1643   1.443   .     S
C1634  O1656   1.302   .     A
C1634  O1658   1.301   .     A
C1635  C1637   1.437   .     S
C1635  O1659   1.298   .     A
C1635  O1661   1.304   .     A
C1636  C1638   1.438   .     S
C1636  O1660   1.299   .     A
C1636  O1662   1.303   .     A
C1637  C1774   1.336   1_455 S
C1637  H1799   1.082   1_455 S
C1638  C1705   1.336   .     S
C1638  H1732   1.084   .     S
C1639  C1644   1.404   .     A
C1639  N1665   1.424   .     S
C1640  C1643   1.406   .     A
C1640  N1671   1.424   .     S
C1640  C1234   1.393   1_565 S
C1641  C1643   1.397   .     A
C1641  H1651   1.078   .     S
C1641  C1231   1.390   1_565 S
C1642  C1644   1.397   .     A
C1642  H1652   1.082   .     S
C1645  N1677   1.413   .     S
C1645  N1654   1.378   .     A
C1646  N1653   1.370   .     A
C1646  N1683   1.421   .     S
C1646  C424    1.432   1_556 S
C1647  N1689   1.419   .     S
C1647  N1653   1.369   .     A
C1647  C421    1.429   1_556 S
C1648  N1695   1.411   .     S
C1648  N1654   1.380   .     A
Cu1649 Cu1650  2.721   .     S
Cu1649 O1662   1.963   .     S
Cu1649 O1655   1.954   .     S
Cu1649 O1658   1.949   .     S
Cu1649 O1659   1.963   .     S
Cu1649 N1653   2.045   .     S
Cu1650 O1661   1.963   .     S
Cu1650 N1654   2.045   .     S
Cu1650 O1657   1.949   .     S
Cu1650 O1656   1.954   .     S
Cu1650 O1660   1.963   .     S
H1663  C1705   1.082   .     S
H1664  C1774   1.084   1_455 S
N1665  H1666   1.032   .     S
N1665  C1667   1.447   .     S
C1667  H1668   1.112   .     S
C1667  H1670   1.110   .     S
C1667  H1669   1.111   .     S
N1671  C1673   1.447   .     S
N1671  H1672   1.032   .     S
C1673  H1674   1.110   .     S
C1673  H1675   1.111   .     S
C1673  H1676   1.112   .     S
N1677  C1679   1.452   .     S
N1677  H1678   1.030   .     S
C1679  H1682   1.113   .     S
C1679  H1680   1.102   .     S
H1681  C455    1.110   1_556 S
N1683  C1685   1.449   .     S
N1683  H1684   1.029   .     S
C1685  H1686   1.109   .     S
C1685  H1687   1.107   .     S
C1685  H1688   1.113   .     S
N1689  H1690   1.029   .     S
N1689  C1691   1.446   .     S
C1691  H1692   1.111   .     S
C1691  H1693   1.110   .     S
C1691  H1694   1.111   .     S
N1695  C1697   1.446   .     S
N1695  H1696   1.026   .     S
C1697  H1700   1.112   .     S
C1697  H1698   1.108   .     S
C1697  H1699   1.107   .     S
C1701  O1723   1.301   .     A
C1701  C1712   1.440   .     S
C1701  O1725   1.301   .     A
C1702  C1711   1.443   .     S
C1702  O1724   1.302   .     A
C1702  O1726   1.301   .     A
C1703  C1705   1.437   .     S
C1703  O1727   1.298   .     A
C1703  O1729   1.304   .     A
C1704  C1706   1.438   .     S
C1704  O1728   1.299   .     A
C1704  O1730   1.303   .     A
C1706  C1773   1.336   .     S
C1706  H1800   1.084   .     S
C1707  C1712   1.404   .     A
C1707  N1733   1.424   .     S
C1708  C1711   1.406   .     A
C1708  N1739   1.424   .     S
C1708  C1302   1.393   1_565 S
C1709  C1711   1.397   .     A
C1709  H1719   1.078   .     S
C1709  C1299   1.390   1_565 S
C1710  C1712   1.397   .     A
C1710  H1720   1.082   .     S
C1713  N1745   1.413   .     S
C1713  N1722   1.378   .     A
C1714  N1721   1.370   .     A
C1714  N1751   1.421   .     S
C1714  C492    1.432   1_556 S
C1715  N1757   1.419   .     S
C1715  N1721   1.369   .     A
C1715  C489    1.429   1_556 S
C1716  N1763   1.411   .     S
C1716  N1722   1.380   .     A
Cu1717 Cu1718  2.721   .     S
Cu1717 O1730   1.963   .     S
Cu1717 O1723   1.954   .     S
Cu1717 O1726   1.949   .     S
Cu1717 O1727   1.963   .     S
Cu1717 N1721   2.045   .     S
Cu1718 O1729   1.963   .     S
Cu1718 N1722   2.045   .     S
Cu1718 O1725   1.949   .     S
Cu1718 O1724   1.954   .     S
Cu1718 O1728   1.963   .     S
H1731  C1773   1.082   .     S
N1733  H1734   1.032   .     S
N1733  C1735   1.447   .     S
C1735  H1736   1.112   .     S
C1735  H1738   1.110   .     S
C1735  H1737   1.111   .     S
N1739  C1741   1.447   .     S
N1739  H1740   1.032   .     S
C1741  H1742   1.110   .     S
C1741  H1743   1.111   .     S
C1741  H1744   1.112   .     S
N1745  C1747   1.452   .     S
N1745  H1746   1.030   .     S
C1747  H1750   1.113   .     S
C1747  H1748   1.102   .     S
H1749  C523    1.110   1_556 S
N1751  C1753   1.449   .     S
N1751  H1752   1.029   .     S
C1753  H1754   1.109   .     S
C1753  H1755   1.107   .     S
C1753  H1756   1.113   .     S
N1757  H1758   1.029   .     S
N1757  C1759   1.446   .     S
C1759  H1760   1.111   .     S
C1759  H1761   1.110   .     S
C1759  H1762   1.111   .     S
N1763  C1765   1.446   .     S
N1763  H1764   1.026   .     S
C1765  H1768   1.112   .     S
C1765  H1766   1.108   .     S
C1765  H1767   1.107   .     S
C1769  O1791   1.301   .     A
C1769  C1780   1.440   .     S
C1769  O1793   1.301   .     A
C1770  C1779   1.443   .     S
C1770  O1792   1.302   .     A
C1770  O1794   1.301   .     A
C1771  C1773   1.437   .     S
C1771  O1795   1.298   .     A
C1771  O1797   1.304   .     A
C1772  C1774   1.438   .     S
C1772  O1796   1.299   .     A
C1772  O1798   1.303   .     A
C1774  C1637   1.336   1_655 S
C1774  H1664   1.084   1_655 S
C1775  C1780   1.404   .     A
C1775  N1801   1.424   .     S
C1776  C1779   1.406   .     A
C1776  N1807   1.424   .     S
C1776  C1370   1.393   1_565 S
C1777  C1779   1.397   .     A
C1777  H1787   1.078   .     S
C1777  C1367   1.390   1_565 S
C1778  C1780   1.397   .     A
C1778  H1788   1.082   .     S
C1781  N1813   1.413   .     S
C1781  N1790   1.378   .     A
C1782  N1789   1.370   .     A
C1782  N1819   1.421   .     S
C1782  C560    1.432   1_556 S
C1783  N1825   1.419   .     S
C1783  N1789   1.369   .     A
C1783  C557    1.429   1_556 S
C1784  N1831   1.411   .     S
C1784  N1790   1.380   .     A
Cu1785 Cu1786  2.721   .     S
Cu1785 O1798   1.963   .     S
Cu1785 O1791   1.954   .     S
Cu1785 O1794   1.949   .     S
Cu1785 O1795   1.963   .     S
Cu1785 N1789   2.045   .     S
Cu1786 O1797   1.963   .     S
Cu1786 N1790   2.045   .     S
Cu1786 O1793   1.949   .     S
Cu1786 O1792   1.954   .     S
Cu1786 O1796   1.963   .     S
H1799  C1637   1.082   1_655 S
N1801  H1802   1.032   .     S
N1801  C1803   1.447   .     S
C1803  H1804   1.112   .     S
C1803  H1806   1.110   .     S
C1803  H1805   1.111   .     S
N1807  C1809   1.447   .     S
N1807  H1808   1.032   .     S
C1809  H1810   1.110   .     S
C1809  H1811   1.111   .     S
C1809  H1812   1.112   .     S
N1813  C1815   1.452   .     S
N1813  H1814   1.030   .     S
C1815  H1818   1.113   .     S
C1815  H1816   1.102   .     S
H1817  C591    1.110   1_556 S
N1819  C1821   1.449   .     S
N1819  H1820   1.029   .     S
C1821  H1822   1.109   .     S
C1821  H1823   1.107   .     S
C1821  H1824   1.113   .     S
N1825  H1826   1.029   .     S
N1825  C1827   1.446   .     S
C1827  H1828   1.111   .     S
C1827  H1829   1.110   .     S
C1827  H1830   1.111   .     S
N1831  C1833   1.446   .     S
N1831  H1832   1.026   .     S
C1833  H1836   1.112   .     S
C1833  H1834   1.108   .     S
C1833  H1835   1.107   .     S
