data_str_m2_o1_o17_pcu_sym.104
_audit_creation_date              2020-01-03
_audit_creation_method            'Materials Studio'
_symmetry_space_group_name_H-M    'P1'
_symmetry_Int_Tables_number       1
_symmetry_cell_setting            triclinic
loop_
_symmetry_equiv_pos_as_xyz
  x,y,z
_cell_length_a                    32.4943
_cell_length_b                    28.6004
_cell_length_c                    30.1376
_cell_angle_alpha                 89.8464
_cell_angle_beta                  90.3682
_cell_angle_gamma                 89.9725
loop_
_atom_site_label
_atom_site_type_symbol
_atom_site_fract_x
_atom_site_fract_y
_atom_site_fract_z
_atom_site_U_iso_or_equiv
_atom_site_adp_type
_atom_site_occupancy
C1     C     0.08737   0.16667   0.24994   0.00000  Uiso   1.00
C2     C     0.24596   0.16666   0.25006   0.00000  Uiso   1.00
C3     C     0.11144   0.10806   0.02118   0.00000  Uiso   1.00
C4     C     0.22189   0.22527   0.47882   0.00000  Uiso   1.00
C5     C     0.02131   0.12419   0.24939   0.00000  Uiso   1.00
C6     C     0.31203   0.20915   0.25061   0.00000  Uiso   1.00
C7     C     0.31206   0.12418   0.24949   0.00000  Uiso   1.00
C8     C     0.02127   0.20915   0.25051   0.00000  Uiso   1.00
C9     C     0.29059   0.16666   0.25008   0.00000  Uiso   1.00
C10    C     0.04275   0.16667   0.24992   0.00000  Uiso   1.00
C11    C     0.14051   0.02484   0.22293   0.00000  Uiso   1.00
C12    C     0.19282   0.30849   0.27707   0.00000  Uiso   1.00
C13    C     0.19280   0.02470   0.27710   0.00000  Uiso   1.00
C14    C     0.14053   0.30863   0.22290   0.00000  Uiso   1.00
C15    C     0.16592   0.16676   0.16447   0.00000  Uiso   1.00
C16    C     0.16742   0.16657   0.33553   0.00000  Uiso   1.00
C17    C     0.19711   0.19486   0.40732   0.00000  Uiso   1.00
C18    C     0.13623   0.13847   0.09267   0.00000  Uiso   1.00
C19    C     0.16903   0.16615   0.38381   0.00000  Uiso   1.00
C20    C     0.16430   0.16718   0.11618   0.00000  Uiso   1.00
C21    C     0.14149   0.13717   0.40640   0.00000  Uiso   1.00
C22    C     0.19184   0.19617   0.09360   0.00000  Uiso   1.00
C23    C     0.14060   0.13708   0.45261   0.00000  Uiso   1.00
C24    C     0.19273   0.19626   0.04739   0.00000  Uiso   1.00
C25    C     0.16735   0.16665   0.47662   0.00000  Uiso   1.00
C26    C     0.16599   0.16668   0.02338   0.00000  Uiso   1.00
C27    C     0.19552   0.19601   0.45399   0.00000  Uiso   1.00
C28    C     0.13782   0.13732   0.04601   0.00000  Uiso   1.00
C29    C     0.11299   0.10809   0.47511   0.00000  Uiso   1.00
C30    C     0.22034   0.22524   0.02489   0.00000  Uiso   1.00
Cu31   Cu    0.16667   0.21355   0.25000   0.00000  Uiso   1.00
Cu32   Cu    0.16667   0.11978   0.25000   0.00000  Uiso   1.00
H33    H     0.09230   0.08520   0.45707   0.00000  Uiso   1.00
H34    H     0.24103   0.24814   0.04293   0.00000  Uiso   1.00
H35    H     0.03733   0.09097   0.24889   0.00000  Uiso   1.00
H36    H     0.29601   0.24236   0.25111   0.00000  Uiso   1.00
H37    H     0.29607   0.09096   0.24907   0.00000  Uiso   1.00
H38    H     0.03726   0.24237   0.25093   0.00000  Uiso   1.00
N39    N     0.16667   0.28402   0.25000   0.00000  Uiso   1.00
N40    N     0.16667   0.04931   0.25000   0.00000  Uiso   1.00
O41    O     0.10655   0.20625   0.24999   0.00000  Uiso   1.00
O42    O     0.22679   0.12709   0.25000   0.00000  Uiso   1.00
O43    O     0.22679   0.20625   0.25000   0.00000  Uiso   1.00
O44    O     0.10655   0.12709   0.24999   0.00000  Uiso   1.00
O45    O     0.16666   0.20627   0.18513   0.00000  Uiso   1.00
O46    O     0.16668   0.12707   0.31487   0.00000  Uiso   1.00
O47    O     0.16668   0.20627   0.31487   0.00000  Uiso   1.00
O48    O     0.16666   0.12707   0.18513   0.00000  Uiso   1.00
O49    O     0.22661   0.22118   0.38576   0.00000  Uiso   1.00
H50    H     0.23321   0.20646   0.35698   0.00000  Uiso   1.00
O51    O     0.10674   0.11214   0.11424   0.00000  Uiso   1.00
H52    H     0.10013   0.12686   0.14301   0.00000  Uiso   1.00
F53    F     0.11469   0.10993   0.38313   0.00000  Uiso   1.00
F54    F     0.21864   0.22342   0.11687   0.00000  Uiso   1.00
F55    F     0.08406   0.07900   0.04099   0.00000  Uiso   1.00
F56    F     0.24928   0.25433   0.45901   0.00000  Uiso   1.00
F57    F     0.11413   0.04809   0.19576   0.00000  Uiso   1.00
F58    F     0.21920   0.28524   0.30424   0.00000  Uiso   1.00
F59    F     0.21903   0.04782   0.30443   0.00000  Uiso   1.00
F60    F     0.11430   0.28551   0.19557   0.00000  Uiso   1.00
C61    C     0.42070   0.16667   0.24994   0.00000  Uiso   1.00
C62    C     0.57930   0.16666   0.25006   0.00000  Uiso   1.00
C63    C     0.44478   0.10806   0.02118   0.00000  Uiso   1.00
C64    C     0.55523   0.22527   0.47882   0.00000  Uiso   1.00
C65    C     0.35464   0.12419   0.24939   0.00000  Uiso   1.00
C66    C     0.64536   0.20915   0.25061   0.00000  Uiso   1.00
C67    C     0.64540   0.12418   0.24949   0.00000  Uiso   1.00
C68    C     0.35460   0.20915   0.25051   0.00000  Uiso   1.00
C69    C     0.62392   0.16666   0.25008   0.00000  Uiso   1.00
C70    C     0.37608   0.16667   0.24992   0.00000  Uiso   1.00
C71    C     0.47384   0.02484   0.22293   0.00000  Uiso   1.00
C72    C     0.52616   0.30849   0.27707   0.00000  Uiso   1.00
C73    C     0.52613   0.02470   0.27710   0.00000  Uiso   1.00
C74    C     0.47387   0.30863   0.22290   0.00000  Uiso   1.00
C75    C     0.49925   0.16676   0.16447   0.00000  Uiso   1.00
C76    C     0.50075   0.16657   0.33553   0.00000  Uiso   1.00
C77    C     0.53044   0.19486   0.40732   0.00000  Uiso   1.00
C78    C     0.46957   0.13847   0.09267   0.00000  Uiso   1.00
C79    C     0.50237   0.16615   0.38381   0.00000  Uiso   1.00
C80    C     0.49763   0.16718   0.11618   0.00000  Uiso   1.00
C81    C     0.47483   0.13717   0.40640   0.00000  Uiso   1.00
C82    C     0.52517   0.19617   0.09360   0.00000  Uiso   1.00
C83    C     0.47393   0.13708   0.45261   0.00000  Uiso   1.00
C84    C     0.52606   0.19626   0.04739   0.00000  Uiso   1.00
C85    C     0.50068   0.16665   0.47662   0.00000  Uiso   1.00
C86    C     0.49932   0.16668   0.02338   0.00000  Uiso   1.00
C87    C     0.52885   0.19601   0.45399   0.00000  Uiso   1.00
C88    C     0.47115   0.13732   0.04601   0.00000  Uiso   1.00
C89    C     0.44632   0.10809   0.47511   0.00000  Uiso   1.00
C90    C     0.55368   0.22524   0.02489   0.00000  Uiso   1.00
Cu91   Cu    0.50000   0.21355   0.25000   0.00000  Uiso   1.00
Cu92   Cu    0.50000   0.11978   0.25000   0.00000  Uiso   1.00
H93    H     0.42563   0.08520   0.45707   0.00000  Uiso   1.00
H94    H     0.57436   0.24814   0.04293   0.00000  Uiso   1.00
H95    H     0.37066   0.09097   0.24889   0.00000  Uiso   1.00
H96    H     0.62934   0.24236   0.25111   0.00000  Uiso   1.00
H97    H     0.62940   0.09096   0.24907   0.00000  Uiso   1.00
H98    H     0.37060   0.24237   0.25093   0.00000  Uiso   1.00
N99    N     0.50000   0.28402   0.25000   0.00000  Uiso   1.00
N100   N     0.50000   0.04931   0.25000   0.00000  Uiso   1.00
O101   O     0.43988   0.20625   0.24999   0.00000  Uiso   1.00
O102   O     0.56012   0.12709   0.25000   0.00000  Uiso   1.00
O103   O     0.56012   0.20625   0.25000   0.00000  Uiso   1.00
O104   O     0.43988   0.12709   0.24999   0.00000  Uiso   1.00
O105   O     0.49999   0.20627   0.18513   0.00000  Uiso   1.00
O106   O     0.50001   0.12707   0.31487   0.00000  Uiso   1.00
O107   O     0.50001   0.20627   0.31487   0.00000  Uiso   1.00
O108   O     0.49999   0.12707   0.18513   0.00000  Uiso   1.00
O109   O     0.55994   0.22118   0.38576   0.00000  Uiso   1.00
H110   H     0.56654   0.20646   0.35698   0.00000  Uiso   1.00
O111   O     0.44007   0.11214   0.11424   0.00000  Uiso   1.00
H112   H     0.43346   0.12686   0.14301   0.00000  Uiso   1.00
F113   F     0.44802   0.10993   0.38313   0.00000  Uiso   1.00
F114   F     0.55197   0.22342   0.11687   0.00000  Uiso   1.00
F115   F     0.41739   0.07900   0.04099   0.00000  Uiso   1.00
F116   F     0.58261   0.25433   0.45901   0.00000  Uiso   1.00
F117   F     0.44746   0.04809   0.19576   0.00000  Uiso   1.00
F118   F     0.55254   0.28524   0.30424   0.00000  Uiso   1.00
F119   F     0.55236   0.04782   0.30443   0.00000  Uiso   1.00
F120   F     0.44764   0.28551   0.19557   0.00000  Uiso   1.00
C121   C     0.75404   0.16667   0.24994   0.00000  Uiso   1.00
C122   C     0.91263   0.16666   0.25006   0.00000  Uiso   1.00
C123   C     0.77811   0.10806   0.02118   0.00000  Uiso   1.00
C124   C     0.88856   0.22527   0.47882   0.00000  Uiso   1.00
C125   C     0.68797   0.12419   0.24939   0.00000  Uiso   1.00
C126   C     0.97869   0.20915   0.25061   0.00000  Uiso   1.00
C127   C     0.97873   0.12418   0.24949   0.00000  Uiso   1.00
C128   C     0.68794   0.20915   0.25051   0.00000  Uiso   1.00
C129   C     0.95725   0.16666   0.25008   0.00000  Uiso   1.00
C130   C     0.70941   0.16667   0.24992   0.00000  Uiso   1.00
C131   C     0.80718   0.02484   0.22293   0.00000  Uiso   1.00
C132   C     0.85949   0.30849   0.27707   0.00000  Uiso   1.00
C133   C     0.85947   0.02470   0.27710   0.00000  Uiso   1.00
C134   C     0.80720   0.30863   0.22290   0.00000  Uiso   1.00
C135   C     0.83258   0.16676   0.16447   0.00000  Uiso   1.00
C136   C     0.83408   0.16657   0.33553   0.00000  Uiso   1.00
C137   C     0.86377   0.19486   0.40732   0.00000  Uiso   1.00
C138   C     0.80290   0.13847   0.09267   0.00000  Uiso   1.00
C139   C     0.83570   0.16615   0.38381   0.00000  Uiso   1.00
C140   C     0.83097   0.16718   0.11618   0.00000  Uiso   1.00
C141   C     0.80816   0.13717   0.40640   0.00000  Uiso   1.00
C142   C     0.85850   0.19617   0.09360   0.00000  Uiso   1.00
C143   C     0.80727   0.13708   0.45261   0.00000  Uiso   1.00
C144   C     0.85940   0.19626   0.04739   0.00000  Uiso   1.00
C145   C     0.83402   0.16665   0.47662   0.00000  Uiso   1.00
C146   C     0.83265   0.16668   0.02338   0.00000  Uiso   1.00
C147   C     0.86219   0.19601   0.45399   0.00000  Uiso   1.00
C148   C     0.80448   0.13732   0.04601   0.00000  Uiso   1.00
C149   C     0.77965   0.10809   0.47511   0.00000  Uiso   1.00
C150   C     0.88701   0.22524   0.02489   0.00000  Uiso   1.00
Cu151  Cu    0.83333   0.21355   0.25000   0.00000  Uiso   1.00
Cu152  Cu    0.83333   0.11978   0.25000   0.00000  Uiso   1.00
H153   H     0.75897   0.08520   0.45707   0.00000  Uiso   1.00
H154   H     0.90770   0.24814   0.04293   0.00000  Uiso   1.00
H155   H     0.70399   0.09097   0.24889   0.00000  Uiso   1.00
H156   H     0.96267   0.24236   0.25111   0.00000  Uiso   1.00
H157   H     0.96274   0.09096   0.24907   0.00000  Uiso   1.00
H158   H     0.70393   0.24237   0.25093   0.00000  Uiso   1.00
N159   N     0.83333   0.28402   0.25000   0.00000  Uiso   1.00
N160   N     0.83333   0.04931   0.25000   0.00000  Uiso   1.00
O161   O     0.77321   0.20625   0.24999   0.00000  Uiso   1.00
O162   O     0.89345   0.12709   0.25000   0.00000  Uiso   1.00
O163   O     0.89345   0.20625   0.25000   0.00000  Uiso   1.00
O164   O     0.77321   0.12709   0.24999   0.00000  Uiso   1.00
O165   O     0.83332   0.20627   0.18513   0.00000  Uiso   1.00
O166   O     0.83334   0.12707   0.31487   0.00000  Uiso   1.00
O167   O     0.83334   0.20627   0.31487   0.00000  Uiso   1.00
O168   O     0.83332   0.12707   0.18513   0.00000  Uiso   1.00
O169   O     0.89327   0.22118   0.38576   0.00000  Uiso   1.00
H170   H     0.89987   0.20646   0.35698   0.00000  Uiso   1.00
O171   O     0.77341   0.11214   0.11424   0.00000  Uiso   1.00
H172   H     0.76680   0.12686   0.14301   0.00000  Uiso   1.00
F173   F     0.78135   0.10993   0.38313   0.00000  Uiso   1.00
F174   F     0.88530   0.22342   0.11687   0.00000  Uiso   1.00
F175   F     0.75073   0.07900   0.04099   0.00000  Uiso   1.00
F176   F     0.91595   0.25433   0.45901   0.00000  Uiso   1.00
F177   F     0.78080   0.04809   0.19576   0.00000  Uiso   1.00
F178   F     0.88587   0.28524   0.30424   0.00000  Uiso   1.00
F179   F     0.88570   0.04782   0.30443   0.00000  Uiso   1.00
F180   F     0.78097   0.28551   0.19557   0.00000  Uiso   1.00
C181   C     0.08737   0.50001   0.24994   0.00000  Uiso   1.00
C182   C     0.24596   0.49999   0.25006   0.00000  Uiso   1.00
C183   C     0.11144   0.44139   0.02118   0.00000  Uiso   1.00
C184   C     0.22189   0.55860   0.47882   0.00000  Uiso   1.00
C185   C     0.02131   0.45752   0.24939   0.00000  Uiso   1.00
C186   C     0.31203   0.54248   0.25061   0.00000  Uiso   1.00
C187   C     0.31206   0.45751   0.24949   0.00000  Uiso   1.00
C188   C     0.02127   0.54249   0.25051   0.00000  Uiso   1.00
C189   C     0.29059   0.49999   0.25008   0.00000  Uiso   1.00
C190   C     0.04275   0.50001   0.24992   0.00000  Uiso   1.00
C191   C     0.14051   0.35818   0.22293   0.00000  Uiso   1.00
C192   C     0.19282   0.64182   0.27707   0.00000  Uiso   1.00
C193   C     0.19280   0.35803   0.27710   0.00000  Uiso   1.00
C194   C     0.14053   0.64197   0.22290   0.00000  Uiso   1.00
C195   C     0.16592   0.50010   0.16447   0.00000  Uiso   1.00
C196   C     0.16742   0.49990   0.33553   0.00000  Uiso   1.00
C197   C     0.19711   0.52819   0.40732   0.00000  Uiso   1.00
C198   C     0.13623   0.47181   0.09267   0.00000  Uiso   1.00
C199   C     0.16903   0.49948   0.38381   0.00000  Uiso   1.00
C200   C     0.16430   0.50052   0.11618   0.00000  Uiso   1.00
C201   C     0.14149   0.47051   0.40640   0.00000  Uiso   1.00
C202   C     0.19184   0.52950   0.09360   0.00000  Uiso   1.00
C203   C     0.14060   0.47041   0.45261   0.00000  Uiso   1.00
C204   C     0.19273   0.52959   0.04739   0.00000  Uiso   1.00
C205   C     0.16735   0.49998   0.47662   0.00000  Uiso   1.00
C206   C     0.16599   0.50002   0.02338   0.00000  Uiso   1.00
C207   C     0.19552   0.52935   0.45399   0.00000  Uiso   1.00
C208   C     0.13782   0.47065   0.04601   0.00000  Uiso   1.00
C209   C     0.11299   0.44143   0.47511   0.00000  Uiso   1.00
C210   C     0.22034   0.55858   0.02489   0.00000  Uiso   1.00
Cu211  Cu    0.16667   0.54689   0.25000   0.00000  Uiso   1.00
Cu212  Cu    0.16667   0.45311   0.25000   0.00000  Uiso   1.00
H213   H     0.09230   0.41853   0.45707   0.00000  Uiso   1.00
H214   H     0.24103   0.58148   0.04293   0.00000  Uiso   1.00
H215   H     0.03733   0.42430   0.24889   0.00000  Uiso   1.00
H216   H     0.29601   0.57570   0.25111   0.00000  Uiso   1.00
H217   H     0.29607   0.42429   0.24907   0.00000  Uiso   1.00
H218   H     0.03726   0.57571   0.25093   0.00000  Uiso   1.00
N219   N     0.16667   0.61736   0.25000   0.00000  Uiso   1.00
N220   N     0.16667   0.38264   0.25000   0.00000  Uiso   1.00
O221   O     0.10655   0.53958   0.24999   0.00000  Uiso   1.00
O222   O     0.22679   0.46042   0.25000   0.00000  Uiso   1.00
O223   O     0.22679   0.53958   0.25000   0.00000  Uiso   1.00
O224   O     0.10655   0.46042   0.24999   0.00000  Uiso   1.00
O225   O     0.16666   0.53960   0.18513   0.00000  Uiso   1.00
O226   O     0.16668   0.46040   0.31487   0.00000  Uiso   1.00
O227   O     0.16668   0.53960   0.31487   0.00000  Uiso   1.00
O228   O     0.16666   0.46040   0.18513   0.00000  Uiso   1.00
O229   O     0.22661   0.55451   0.38576   0.00000  Uiso   1.00
H230   H     0.23321   0.53979   0.35698   0.00000  Uiso   1.00
O231   O     0.10674   0.44547   0.11424   0.00000  Uiso   1.00
H232   H     0.10013   0.46020   0.14301   0.00000  Uiso   1.00
F233   F     0.11469   0.44326   0.38313   0.00000  Uiso   1.00
F234   F     0.21864   0.55675   0.11687   0.00000  Uiso   1.00
F235   F     0.08406   0.41233   0.04099   0.00000  Uiso   1.00
F236   F     0.24928   0.58766   0.45901   0.00000  Uiso   1.00
F237   F     0.11413   0.38143   0.19576   0.00000  Uiso   1.00
F238   F     0.21920   0.61857   0.30424   0.00000  Uiso   1.00
F239   F     0.21903   0.38116   0.30443   0.00000  Uiso   1.00
F240   F     0.11430   0.61884   0.19557   0.00000  Uiso   1.00
C241   C     0.42070   0.50001   0.24994   0.00000  Uiso   1.00
C242   C     0.57930   0.49999   0.25006   0.00000  Uiso   1.00
C243   C     0.44478   0.44139   0.02118   0.00000  Uiso   1.00
C244   C     0.55523   0.55860   0.47882   0.00000  Uiso   1.00
C245   C     0.35464   0.45752   0.24939   0.00000  Uiso   1.00
C246   C     0.64536   0.54248   0.25061   0.00000  Uiso   1.00
C247   C     0.64540   0.45751   0.24949   0.00000  Uiso   1.00
C248   C     0.35460   0.54249   0.25051   0.00000  Uiso   1.00
C249   C     0.62392   0.49999   0.25008   0.00000  Uiso   1.00
C250   C     0.37608   0.50001   0.24992   0.00000  Uiso   1.00
C251   C     0.47384   0.35818   0.22293   0.00000  Uiso   1.00
C252   C     0.52616   0.64182   0.27707   0.00000  Uiso   1.00
C253   C     0.52613   0.35803   0.27710   0.00000  Uiso   1.00
C254   C     0.47387   0.64197   0.22290   0.00000  Uiso   1.00
C255   C     0.49925   0.50010   0.16447   0.00000  Uiso   1.00
C256   C     0.50075   0.49990   0.33553   0.00000  Uiso   1.00
C257   C     0.53044   0.52819   0.40732   0.00000  Uiso   1.00
C258   C     0.46957   0.47181   0.09267   0.00000  Uiso   1.00
C259   C     0.50237   0.49948   0.38381   0.00000  Uiso   1.00
C260   C     0.49763   0.50052   0.11618   0.00000  Uiso   1.00
C261   C     0.47483   0.47051   0.40640   0.00000  Uiso   1.00
C262   C     0.52517   0.52950   0.09360   0.00000  Uiso   1.00
C263   C     0.47393   0.47041   0.45261   0.00000  Uiso   1.00
C264   C     0.52606   0.52959   0.04739   0.00000  Uiso   1.00
C265   C     0.50068   0.49998   0.47662   0.00000  Uiso   1.00
C266   C     0.49932   0.50002   0.02338   0.00000  Uiso   1.00
C267   C     0.52885   0.52935   0.45399   0.00000  Uiso   1.00
C268   C     0.47115   0.47065   0.04601   0.00000  Uiso   1.00
C269   C     0.44632   0.44143   0.47511   0.00000  Uiso   1.00
C270   C     0.55368   0.55858   0.02489   0.00000  Uiso   1.00
Cu271  Cu    0.50000   0.54689   0.25000   0.00000  Uiso   1.00
Cu272  Cu    0.50000   0.45311   0.25000   0.00000  Uiso   1.00
H273   H     0.42563   0.41853   0.45707   0.00000  Uiso   1.00
H274   H     0.57436   0.58148   0.04293   0.00000  Uiso   1.00
H275   H     0.37066   0.42430   0.24889   0.00000  Uiso   1.00
H276   H     0.62934   0.57570   0.25111   0.00000  Uiso   1.00
H277   H     0.62940   0.42429   0.24907   0.00000  Uiso   1.00
H278   H     0.37060   0.57571   0.25093   0.00000  Uiso   1.00
N279   N     0.50000   0.61736   0.25000   0.00000  Uiso   1.00
N280   N     0.50000   0.38264   0.25000   0.00000  Uiso   1.00
O281   O     0.43988   0.53958   0.24999   0.00000  Uiso   1.00
O282   O     0.56012   0.46042   0.25000   0.00000  Uiso   1.00
O283   O     0.56012   0.53958   0.25000   0.00000  Uiso   1.00
O284   O     0.43988   0.46042   0.24999   0.00000  Uiso   1.00
O285   O     0.49999   0.53960   0.18513   0.00000  Uiso   1.00
O286   O     0.50001   0.46040   0.31487   0.00000  Uiso   1.00
O287   O     0.50001   0.53960   0.31487   0.00000  Uiso   1.00
O288   O     0.49999   0.46040   0.18513   0.00000  Uiso   1.00
O289   O     0.55994   0.55451   0.38576   0.00000  Uiso   1.00
H290   H     0.56654   0.53979   0.35698   0.00000  Uiso   1.00
O291   O     0.44007   0.44547   0.11424   0.00000  Uiso   1.00
H292   H     0.43346   0.46020   0.14301   0.00000  Uiso   1.00
F293   F     0.44802   0.44326   0.38313   0.00000  Uiso   1.00
F294   F     0.55197   0.55675   0.11687   0.00000  Uiso   1.00
F295   F     0.41739   0.41233   0.04099   0.00000  Uiso   1.00
F296   F     0.58261   0.58766   0.45901   0.00000  Uiso   1.00
F297   F     0.44746   0.38143   0.19576   0.00000  Uiso   1.00
F298   F     0.55254   0.61857   0.30424   0.00000  Uiso   1.00
F299   F     0.55236   0.38116   0.30443   0.00000  Uiso   1.00
F300   F     0.44764   0.61884   0.19557   0.00000  Uiso   1.00
C301   C     0.75404   0.50001   0.24994   0.00000  Uiso   1.00
C302   C     0.91263   0.49999   0.25006   0.00000  Uiso   1.00
C303   C     0.77811   0.44139   0.02118   0.00000  Uiso   1.00
C304   C     0.88856   0.55860   0.47882   0.00000  Uiso   1.00
C305   C     0.68797   0.45752   0.24939   0.00000  Uiso   1.00
C306   C     0.97869   0.54248   0.25061   0.00000  Uiso   1.00
C307   C     0.97873   0.45751   0.24949   0.00000  Uiso   1.00
C308   C     0.68794   0.54249   0.25051   0.00000  Uiso   1.00
C309   C     0.95725   0.49999   0.25008   0.00000  Uiso   1.00
C310   C     0.70941   0.50001   0.24992   0.00000  Uiso   1.00
C311   C     0.80718   0.35818   0.22293   0.00000  Uiso   1.00
C312   C     0.85949   0.64182   0.27707   0.00000  Uiso   1.00
C313   C     0.85947   0.35803   0.27710   0.00000  Uiso   1.00
C314   C     0.80720   0.64197   0.22290   0.00000  Uiso   1.00
C315   C     0.83258   0.50010   0.16447   0.00000  Uiso   1.00
C316   C     0.83408   0.49990   0.33553   0.00000  Uiso   1.00
C317   C     0.86377   0.52819   0.40732   0.00000  Uiso   1.00
C318   C     0.80290   0.47181   0.09267   0.00000  Uiso   1.00
C319   C     0.83570   0.49948   0.38381   0.00000  Uiso   1.00
C320   C     0.83097   0.50052   0.11618   0.00000  Uiso   1.00
C321   C     0.80816   0.47051   0.40640   0.00000  Uiso   1.00
C322   C     0.85850   0.52950   0.09360   0.00000  Uiso   1.00
C323   C     0.80727   0.47041   0.45261   0.00000  Uiso   1.00
C324   C     0.85940   0.52959   0.04739   0.00000  Uiso   1.00
C325   C     0.83402   0.49998   0.47662   0.00000  Uiso   1.00
C326   C     0.83265   0.50002   0.02338   0.00000  Uiso   1.00
C327   C     0.86219   0.52935   0.45399   0.00000  Uiso   1.00
C328   C     0.80448   0.47065   0.04601   0.00000  Uiso   1.00
C329   C     0.77965   0.44143   0.47511   0.00000  Uiso   1.00
C330   C     0.88701   0.55858   0.02489   0.00000  Uiso   1.00
Cu331  Cu    0.83333   0.54689   0.25000   0.00000  Uiso   1.00
Cu332  Cu    0.83333   0.45311   0.25000   0.00000  Uiso   1.00
H333   H     0.75897   0.41853   0.45707   0.00000  Uiso   1.00
H334   H     0.90770   0.58148   0.04293   0.00000  Uiso   1.00
H335   H     0.70399   0.42430   0.24889   0.00000  Uiso   1.00
H336   H     0.96267   0.57570   0.25111   0.00000  Uiso   1.00
H337   H     0.96274   0.42429   0.24907   0.00000  Uiso   1.00
H338   H     0.70393   0.57571   0.25093   0.00000  Uiso   1.00
N339   N     0.83333   0.61736   0.25000   0.00000  Uiso   1.00
N340   N     0.83333   0.38264   0.25000   0.00000  Uiso   1.00
O341   O     0.77321   0.53958   0.24999   0.00000  Uiso   1.00
O342   O     0.89345   0.46042   0.25000   0.00000  Uiso   1.00
O343   O     0.89345   0.53958   0.25000   0.00000  Uiso   1.00
O344   O     0.77321   0.46042   0.24999   0.00000  Uiso   1.00
O345   O     0.83332   0.53960   0.18513   0.00000  Uiso   1.00
O346   O     0.83334   0.46040   0.31487   0.00000  Uiso   1.00
O347   O     0.83334   0.53960   0.31487   0.00000  Uiso   1.00
O348   O     0.83332   0.46040   0.18513   0.00000  Uiso   1.00
O349   O     0.89327   0.55451   0.38576   0.00000  Uiso   1.00
H350   H     0.89987   0.53979   0.35698   0.00000  Uiso   1.00
O351   O     0.77341   0.44547   0.11424   0.00000  Uiso   1.00
H352   H     0.76680   0.46020   0.14301   0.00000  Uiso   1.00
F353   F     0.78135   0.44326   0.38313   0.00000  Uiso   1.00
F354   F     0.88530   0.55675   0.11687   0.00000  Uiso   1.00
F355   F     0.75073   0.41233   0.04099   0.00000  Uiso   1.00
F356   F     0.91595   0.58766   0.45901   0.00000  Uiso   1.00
F357   F     0.78080   0.38143   0.19576   0.00000  Uiso   1.00
F358   F     0.88587   0.61857   0.30424   0.00000  Uiso   1.00
F359   F     0.88570   0.38116   0.30443   0.00000  Uiso   1.00
F360   F     0.78097   0.61884   0.19557   0.00000  Uiso   1.00
C361   C     0.08737   0.83334   0.24994   0.00000  Uiso   1.00
C362   C     0.24596   0.83333   0.25006   0.00000  Uiso   1.00
C363   C     0.11144   0.77473   0.02118   0.00000  Uiso   1.00
C364   C     0.22189   0.89194   0.47882   0.00000  Uiso   1.00
C365   C     0.02131   0.79085   0.24939   0.00000  Uiso   1.00
C366   C     0.31203   0.87581   0.25061   0.00000  Uiso   1.00
C367   C     0.31206   0.79085   0.24949   0.00000  Uiso   1.00
C368   C     0.02127   0.87582   0.25051   0.00000  Uiso   1.00
C369   C     0.29059   0.83333   0.25008   0.00000  Uiso   1.00
C370   C     0.04275   0.83334   0.24992   0.00000  Uiso   1.00
C371   C     0.14051   0.69151   0.22293   0.00000  Uiso   1.00
C372   C     0.19282   0.97516   0.27707   0.00000  Uiso   1.00
C373   C     0.19280   0.69137   0.27710   0.00000  Uiso   1.00
C374   C     0.14053   0.97530   0.22290   0.00000  Uiso   1.00
C375   C     0.16592   0.83343   0.16447   0.00000  Uiso   1.00
C376   C     0.16742   0.83324   0.33553   0.00000  Uiso   1.00
C377   C     0.19711   0.86152   0.40732   0.00000  Uiso   1.00
C378   C     0.13623   0.80514   0.09267   0.00000  Uiso   1.00
C379   C     0.16903   0.83282   0.38381   0.00000  Uiso   1.00
C380   C     0.16430   0.83385   0.11618   0.00000  Uiso   1.00
C381   C     0.14149   0.80384   0.40640   0.00000  Uiso   1.00
C382   C     0.19184   0.86283   0.09360   0.00000  Uiso   1.00
C383   C     0.14060   0.80375   0.45261   0.00000  Uiso   1.00
C384   C     0.19273   0.86292   0.04739   0.00000  Uiso   1.00
C385   C     0.16735   0.83332   0.47662   0.00000  Uiso   1.00
C386   C     0.16599   0.83335   0.02338   0.00000  Uiso   1.00
C387   C     0.19552   0.86268   0.45399   0.00000  Uiso   1.00
C388   C     0.13782   0.80399   0.04601   0.00000  Uiso   1.00
C389   C     0.11299   0.77476   0.47511   0.00000  Uiso   1.00
C390   C     0.22034   0.89191   0.02489   0.00000  Uiso   1.00
Cu391  Cu    0.16667   0.88022   0.25000   0.00000  Uiso   1.00
Cu392  Cu    0.16667   0.78645   0.25000   0.00000  Uiso   1.00
H393   H     0.09230   0.75186   0.45707   0.00000  Uiso   1.00
H394   H     0.24103   0.91481   0.04293   0.00000  Uiso   1.00
H395   H     0.03733   0.75764   0.24889   0.00000  Uiso   1.00
H396   H     0.29601   0.90903   0.25111   0.00000  Uiso   1.00
H397   H     0.29607   0.75763   0.24907   0.00000  Uiso   1.00
H398   H     0.03726   0.90904   0.25093   0.00000  Uiso   1.00
N399   N     0.16667   0.95069   0.25000   0.00000  Uiso   1.00
N400   N     0.16667   0.71598   0.25000   0.00000  Uiso   1.00
O401   O     0.10655   0.87291   0.24999   0.00000  Uiso   1.00
O402   O     0.22679   0.79375   0.25000   0.00000  Uiso   1.00
O403   O     0.22679   0.87291   0.25000   0.00000  Uiso   1.00
O404   O     0.10655   0.79375   0.24999   0.00000  Uiso   1.00
O405   O     0.16666   0.87293   0.18513   0.00000  Uiso   1.00
O406   O     0.16668   0.79373   0.31487   0.00000  Uiso   1.00
O407   O     0.16668   0.87293   0.31487   0.00000  Uiso   1.00
O408   O     0.16666   0.79373   0.18513   0.00000  Uiso   1.00
O409   O     0.22661   0.88785   0.38576   0.00000  Uiso   1.00
H410   H     0.23321   0.87313   0.35698   0.00000  Uiso   1.00
O411   O     0.10674   0.77881   0.11424   0.00000  Uiso   1.00
H412   H     0.10013   0.79353   0.14301   0.00000  Uiso   1.00
F413   F     0.11469   0.77660   0.38313   0.00000  Uiso   1.00
F414   F     0.21864   0.89009   0.11687   0.00000  Uiso   1.00
F415   F     0.08406   0.74567   0.04099   0.00000  Uiso   1.00
F416   F     0.24928   0.92099   0.45901   0.00000  Uiso   1.00
F417   F     0.11413   0.71476   0.19576   0.00000  Uiso   1.00
F418   F     0.21920   0.95191   0.30424   0.00000  Uiso   1.00
F419   F     0.21903   0.71449   0.30443   0.00000  Uiso   1.00
F420   F     0.11430   0.95218   0.19557   0.00000  Uiso   1.00
C421   C     0.42070   0.83334   0.24994   0.00000  Uiso   1.00
C422   C     0.57930   0.83333   0.25006   0.00000  Uiso   1.00
C423   C     0.44478   0.77473   0.02118   0.00000  Uiso   1.00
C424   C     0.55523   0.89194   0.47882   0.00000  Uiso   1.00
C425   C     0.35464   0.79085   0.24939   0.00000  Uiso   1.00
C426   C     0.64536   0.87581   0.25061   0.00000  Uiso   1.00
C427   C     0.64540   0.79085   0.24949   0.00000  Uiso   1.00
C428   C     0.35460   0.87582   0.25051   0.00000  Uiso   1.00
C429   C     0.62392   0.83333   0.25008   0.00000  Uiso   1.00
C430   C     0.37608   0.83334   0.24992   0.00000  Uiso   1.00
C431   C     0.47384   0.69151   0.22293   0.00000  Uiso   1.00
C432   C     0.52616   0.97516   0.27707   0.00000  Uiso   1.00
C433   C     0.52613   0.69137   0.27710   0.00000  Uiso   1.00
C434   C     0.47387   0.97530   0.22290   0.00000  Uiso   1.00
C435   C     0.49925   0.83343   0.16447   0.00000  Uiso   1.00
C436   C     0.50075   0.83324   0.33553   0.00000  Uiso   1.00
C437   C     0.53044   0.86152   0.40732   0.00000  Uiso   1.00
C438   C     0.46957   0.80514   0.09267   0.00000  Uiso   1.00
C439   C     0.50237   0.83282   0.38381   0.00000  Uiso   1.00
C440   C     0.49763   0.83385   0.11618   0.00000  Uiso   1.00
C441   C     0.47483   0.80384   0.40640   0.00000  Uiso   1.00
C442   C     0.52517   0.86283   0.09360   0.00000  Uiso   1.00
C443   C     0.47393   0.80375   0.45261   0.00000  Uiso   1.00
C444   C     0.52606   0.86292   0.04739   0.00000  Uiso   1.00
C445   C     0.50068   0.83332   0.47662   0.00000  Uiso   1.00
C446   C     0.49932   0.83335   0.02338   0.00000  Uiso   1.00
C447   C     0.52885   0.86268   0.45399   0.00000  Uiso   1.00
C448   C     0.47115   0.80399   0.04601   0.00000  Uiso   1.00
C449   C     0.44632   0.77476   0.47511   0.00000  Uiso   1.00
C450   C     0.55368   0.89191   0.02489   0.00000  Uiso   1.00
Cu451  Cu    0.50000   0.88022   0.25000   0.00000  Uiso   1.00
Cu452  Cu    0.50000   0.78645   0.25000   0.00000  Uiso   1.00
H453   H     0.42563   0.75186   0.45707   0.00000  Uiso   1.00
H454   H     0.57436   0.91481   0.04293   0.00000  Uiso   1.00
H455   H     0.37066   0.75764   0.24889   0.00000  Uiso   1.00
H456   H     0.62934   0.90903   0.25111   0.00000  Uiso   1.00
H457   H     0.62940   0.75763   0.24907   0.00000  Uiso   1.00
H458   H     0.37060   0.90904   0.25093   0.00000  Uiso   1.00
N459   N     0.50000   0.95069   0.25000   0.00000  Uiso   1.00
N460   N     0.50000   0.71598   0.25000   0.00000  Uiso   1.00
O461   O     0.43988   0.87291   0.24999   0.00000  Uiso   1.00
O462   O     0.56012   0.79375   0.25000   0.00000  Uiso   1.00
O463   O     0.56012   0.87291   0.25000   0.00000  Uiso   1.00
O464   O     0.43988   0.79375   0.24999   0.00000  Uiso   1.00
O465   O     0.49999   0.87293   0.18513   0.00000  Uiso   1.00
O466   O     0.50001   0.79373   0.31487   0.00000  Uiso   1.00
O467   O     0.50001   0.87293   0.31487   0.00000  Uiso   1.00
O468   O     0.49999   0.79373   0.18513   0.00000  Uiso   1.00
O469   O     0.55994   0.88785   0.38576   0.00000  Uiso   1.00
H470   H     0.56654   0.87313   0.35698   0.00000  Uiso   1.00
O471   O     0.44007   0.77881   0.11424   0.00000  Uiso   1.00
H472   H     0.43346   0.79353   0.14301   0.00000  Uiso   1.00
F473   F     0.44802   0.77660   0.38313   0.00000  Uiso   1.00
F474   F     0.55197   0.89009   0.11687   0.00000  Uiso   1.00
F475   F     0.41739   0.74567   0.04099   0.00000  Uiso   1.00
F476   F     0.58261   0.92099   0.45901   0.00000  Uiso   1.00
F477   F     0.44746   0.71476   0.19576   0.00000  Uiso   1.00
F478   F     0.55254   0.95191   0.30424   0.00000  Uiso   1.00
F479   F     0.55236   0.71449   0.30443   0.00000  Uiso   1.00
F480   F     0.44764   0.95218   0.19557   0.00000  Uiso   1.00
C481   C     0.75404   0.83334   0.24994   0.00000  Uiso   1.00
C482   C     0.91263   0.83333   0.25006   0.00000  Uiso   1.00
C483   C     0.77811   0.77473   0.02118   0.00000  Uiso   1.00
C484   C     0.88856   0.89194   0.47882   0.00000  Uiso   1.00
C485   C     0.68797   0.79085   0.24939   0.00000  Uiso   1.00
C486   C     0.97869   0.87581   0.25061   0.00000  Uiso   1.00
C487   C     0.97873   0.79085   0.24949   0.00000  Uiso   1.00
C488   C     0.68794   0.87582   0.25051   0.00000  Uiso   1.00
C489   C     0.95725   0.83333   0.25008   0.00000  Uiso   1.00
C490   C     0.70941   0.83334   0.24992   0.00000  Uiso   1.00
C491   C     0.80718   0.69151   0.22293   0.00000  Uiso   1.00
C492   C     0.85949   0.97516   0.27707   0.00000  Uiso   1.00
C493   C     0.85947   0.69137   0.27710   0.00000  Uiso   1.00
C494   C     0.80720   0.97530   0.22290   0.00000  Uiso   1.00
C495   C     0.83258   0.83343   0.16447   0.00000  Uiso   1.00
C496   C     0.83408   0.83324   0.33553   0.00000  Uiso   1.00
C497   C     0.86377   0.86152   0.40732   0.00000  Uiso   1.00
C498   C     0.80290   0.80514   0.09267   0.00000  Uiso   1.00
C499   C     0.83570   0.83282   0.38381   0.00000  Uiso   1.00
C500   C     0.83097   0.83385   0.11618   0.00000  Uiso   1.00
C501   C     0.80816   0.80384   0.40640   0.00000  Uiso   1.00
C502   C     0.85850   0.86283   0.09360   0.00000  Uiso   1.00
C503   C     0.80727   0.80375   0.45261   0.00000  Uiso   1.00
C504   C     0.85940   0.86292   0.04739   0.00000  Uiso   1.00
C505   C     0.83402   0.83332   0.47662   0.00000  Uiso   1.00
C506   C     0.83265   0.83335   0.02338   0.00000  Uiso   1.00
C507   C     0.86219   0.86268   0.45399   0.00000  Uiso   1.00
C508   C     0.80448   0.80399   0.04601   0.00000  Uiso   1.00
C509   C     0.77965   0.77476   0.47511   0.00000  Uiso   1.00
C510   C     0.88701   0.89191   0.02489   0.00000  Uiso   1.00
Cu511  Cu    0.83333   0.88022   0.25000   0.00000  Uiso   1.00
Cu512  Cu    0.83333   0.78645   0.25000   0.00000  Uiso   1.00
H513   H     0.75897   0.75186   0.45707   0.00000  Uiso   1.00
H514   H     0.90770   0.91481   0.04293   0.00000  Uiso   1.00
H515   H     0.70399   0.75764   0.24889   0.00000  Uiso   1.00
H516   H     0.96267   0.90903   0.25111   0.00000  Uiso   1.00
H517   H     0.96274   0.75763   0.24907   0.00000  Uiso   1.00
H518   H     0.70393   0.90904   0.25093   0.00000  Uiso   1.00
N519   N     0.83333   0.95069   0.25000   0.00000  Uiso   1.00
N520   N     0.83333   0.71598   0.25000   0.00000  Uiso   1.00
O521   O     0.77321   0.87291   0.24999   0.00000  Uiso   1.00
O522   O     0.89345   0.79375   0.25000   0.00000  Uiso   1.00
O523   O     0.89345   0.87291   0.25000   0.00000  Uiso   1.00
O524   O     0.77321   0.79375   0.24999   0.00000  Uiso   1.00
O525   O     0.83332   0.87293   0.18513   0.00000  Uiso   1.00
O526   O     0.83334   0.79373   0.31487   0.00000  Uiso   1.00
O527   O     0.83334   0.87293   0.31487   0.00000  Uiso   1.00
O528   O     0.83332   0.79373   0.18513   0.00000  Uiso   1.00
O529   O     0.89327   0.88785   0.38576   0.00000  Uiso   1.00
H530   H     0.89987   0.87313   0.35698   0.00000  Uiso   1.00
O531   O     0.77341   0.77881   0.11424   0.00000  Uiso   1.00
H532   H     0.76680   0.79353   0.14301   0.00000  Uiso   1.00
F533   F     0.78135   0.77660   0.38313   0.00000  Uiso   1.00
F534   F     0.88530   0.89009   0.11687   0.00000  Uiso   1.00
F535   F     0.75073   0.74567   0.04099   0.00000  Uiso   1.00
F536   F     0.91595   0.92099   0.45901   0.00000  Uiso   1.00
F537   F     0.78080   0.71476   0.19576   0.00000  Uiso   1.00
F538   F     0.88587   0.95191   0.30424   0.00000  Uiso   1.00
F539   F     0.88570   0.71449   0.30443   0.00000  Uiso   1.00
F540   F     0.78097   0.95218   0.19557   0.00000  Uiso   1.00
C541   C     0.08737   0.16667   0.74994   0.00000  Uiso   1.00
C542   C     0.24596   0.16666   0.75006   0.00000  Uiso   1.00
C543   C     0.11144   0.10806   0.52118   0.00000  Uiso   1.00
C544   C     0.22189   0.22527   0.97882   0.00000  Uiso   1.00
C545   C     0.02131   0.12419   0.74939   0.00000  Uiso   1.00
C546   C     0.31203   0.20915   0.75061   0.00000  Uiso   1.00
C547   C     0.31206   0.12418   0.74949   0.00000  Uiso   1.00
C548   C     0.02127   0.20915   0.75051   0.00000  Uiso   1.00
C549   C     0.29059   0.16666   0.75008   0.00000  Uiso   1.00
C550   C     0.04275   0.16667   0.74992   0.00000  Uiso   1.00
C551   C     0.14051   0.02484   0.72293   0.00000  Uiso   1.00
C552   C     0.19282   0.30849   0.77707   0.00000  Uiso   1.00
C553   C     0.19280   0.02470   0.77710   0.00000  Uiso   1.00
C554   C     0.14053   0.30863   0.72290   0.00000  Uiso   1.00
C555   C     0.16592   0.16676   0.66447   0.00000  Uiso   1.00
C556   C     0.16742   0.16657   0.83553   0.00000  Uiso   1.00
C557   C     0.19711   0.19486   0.90732   0.00000  Uiso   1.00
C558   C     0.13623   0.13847   0.59267   0.00000  Uiso   1.00
C559   C     0.16903   0.16615   0.88381   0.00000  Uiso   1.00
C560   C     0.16430   0.16718   0.61618   0.00000  Uiso   1.00
C561   C     0.14149   0.13717   0.90640   0.00000  Uiso   1.00
C562   C     0.19184   0.19617   0.59360   0.00000  Uiso   1.00
C563   C     0.14060   0.13708   0.95261   0.00000  Uiso   1.00
C564   C     0.19273   0.19626   0.54739   0.00000  Uiso   1.00
C565   C     0.16735   0.16665   0.97662   0.00000  Uiso   1.00
C566   C     0.16599   0.16668   0.52338   0.00000  Uiso   1.00
C567   C     0.19552   0.19601   0.95399   0.00000  Uiso   1.00
C568   C     0.13782   0.13732   0.54601   0.00000  Uiso   1.00
C569   C     0.11299   0.10809   0.97511   0.00000  Uiso   1.00
C570   C     0.22034   0.22524   0.52489   0.00000  Uiso   1.00
Cu571  Cu    0.16667   0.21355   0.75000   0.00000  Uiso   1.00
Cu572  Cu    0.16667   0.11978   0.75000   0.00000  Uiso   1.00
H573   H     0.09230   0.08520   0.95707   0.00000  Uiso   1.00
H574   H     0.24103   0.24814   0.54293   0.00000  Uiso   1.00
H575   H     0.03733   0.09097   0.74889   0.00000  Uiso   1.00
H576   H     0.29601   0.24236   0.75111   0.00000  Uiso   1.00
H577   H     0.29607   0.09096   0.74907   0.00000  Uiso   1.00
H578   H     0.03726   0.24237   0.75093   0.00000  Uiso   1.00
N579   N     0.16667   0.28402   0.75000   0.00000  Uiso   1.00
N580   N     0.16667   0.04931   0.75000   0.00000  Uiso   1.00
O581   O     0.10655   0.20625   0.74999   0.00000  Uiso   1.00
O582   O     0.22679   0.12709   0.75000   0.00000  Uiso   1.00
O583   O     0.22679   0.20625   0.75000   0.00000  Uiso   1.00
O584   O     0.10655   0.12709   0.74999   0.00000  Uiso   1.00
O585   O     0.16666   0.20627   0.68513   0.00000  Uiso   1.00
O586   O     0.16668   0.12707   0.81487   0.00000  Uiso   1.00
O587   O     0.16668   0.20627   0.81487   0.00000  Uiso   1.00
O588   O     0.16666   0.12707   0.68513   0.00000  Uiso   1.00
O589   O     0.22661   0.22118   0.88576   0.00000  Uiso   1.00
H590   H     0.23321   0.20646   0.85698   0.00000  Uiso   1.00
O591   O     0.10674   0.11214   0.61424   0.00000  Uiso   1.00
H592   H     0.10013   0.12686   0.64301   0.00000  Uiso   1.00
F593   F     0.11469   0.10993   0.88313   0.00000  Uiso   1.00
F594   F     0.21864   0.22342   0.61687   0.00000  Uiso   1.00
F595   F     0.08406   0.07900   0.54099   0.00000  Uiso   1.00
F596   F     0.24928   0.25433   0.95901   0.00000  Uiso   1.00
F597   F     0.11413   0.04809   0.69576   0.00000  Uiso   1.00
F598   F     0.21920   0.28524   0.80424   0.00000  Uiso   1.00
F599   F     0.21903   0.04782   0.80443   0.00000  Uiso   1.00
F600   F     0.11430   0.28551   0.69557   0.00000  Uiso   1.00
C601   C     0.42070   0.16667   0.74994   0.00000  Uiso   1.00
C602   C     0.57930   0.16666   0.75006   0.00000  Uiso   1.00
C603   C     0.44478   0.10806   0.52118   0.00000  Uiso   1.00
C604   C     0.55523   0.22527   0.97882   0.00000  Uiso   1.00
C605   C     0.35464   0.12419   0.74939   0.00000  Uiso   1.00
C606   C     0.64536   0.20915   0.75061   0.00000  Uiso   1.00
C607   C     0.64540   0.12418   0.74949   0.00000  Uiso   1.00
C608   C     0.35460   0.20915   0.75051   0.00000  Uiso   1.00
C609   C     0.62392   0.16666   0.75008   0.00000  Uiso   1.00
C610   C     0.37608   0.16667   0.74992   0.00000  Uiso   1.00
C611   C     0.47384   0.02484   0.72293   0.00000  Uiso   1.00
C612   C     0.52616   0.30849   0.77707   0.00000  Uiso   1.00
C613   C     0.52613   0.02470   0.77710   0.00000  Uiso   1.00
C614   C     0.47387   0.30863   0.72290   0.00000  Uiso   1.00
C615   C     0.49925   0.16676   0.66447   0.00000  Uiso   1.00
C616   C     0.50075   0.16657   0.83553   0.00000  Uiso   1.00
C617   C     0.53044   0.19486   0.90732   0.00000  Uiso   1.00
C618   C     0.46957   0.13847   0.59267   0.00000  Uiso   1.00
C619   C     0.50237   0.16615   0.88381   0.00000  Uiso   1.00
C620   C     0.49763   0.16718   0.61618   0.00000  Uiso   1.00
C621   C     0.47483   0.13717   0.90640   0.00000  Uiso   1.00
C622   C     0.52517   0.19617   0.59360   0.00000  Uiso   1.00
C623   C     0.47393   0.13708   0.95261   0.00000  Uiso   1.00
C624   C     0.52606   0.19626   0.54739   0.00000  Uiso   1.00
C625   C     0.50068   0.16665   0.97662   0.00000  Uiso   1.00
C626   C     0.49932   0.16668   0.52338   0.00000  Uiso   1.00
C627   C     0.52885   0.19601   0.95399   0.00000  Uiso   1.00
C628   C     0.47115   0.13732   0.54601   0.00000  Uiso   1.00
C629   C     0.44632   0.10809   0.97511   0.00000  Uiso   1.00
C630   C     0.55368   0.22524   0.52489   0.00000  Uiso   1.00
Cu631  Cu    0.50000   0.21355   0.75000   0.00000  Uiso   1.00
Cu632  Cu    0.50000   0.11978   0.75000   0.00000  Uiso   1.00
H633   H     0.42563   0.08520   0.95707   0.00000  Uiso   1.00
H634   H     0.57436   0.24814   0.54293   0.00000  Uiso   1.00
H635   H     0.37066   0.09097   0.74889   0.00000  Uiso   1.00
H636   H     0.62934   0.24236   0.75111   0.00000  Uiso   1.00
H637   H     0.62940   0.09096   0.74907   0.00000  Uiso   1.00
H638   H     0.37060   0.24237   0.75093   0.00000  Uiso   1.00
N639   N     0.50000   0.28402   0.75000   0.00000  Uiso   1.00
N640   N     0.50000   0.04931   0.75000   0.00000  Uiso   1.00
O641   O     0.43988   0.20625   0.74999   0.00000  Uiso   1.00
O642   O     0.56012   0.12709   0.75000   0.00000  Uiso   1.00
O643   O     0.56012   0.20625   0.75000   0.00000  Uiso   1.00
O644   O     0.43988   0.12709   0.74999   0.00000  Uiso   1.00
O645   O     0.49999   0.20627   0.68513   0.00000  Uiso   1.00
O646   O     0.50001   0.12707   0.81487   0.00000  Uiso   1.00
O647   O     0.50001   0.20627   0.81487   0.00000  Uiso   1.00
O648   O     0.49999   0.12707   0.68513   0.00000  Uiso   1.00
O649   O     0.55994   0.22118   0.88576   0.00000  Uiso   1.00
H650   H     0.56654   0.20646   0.85698   0.00000  Uiso   1.00
O651   O     0.44007   0.11214   0.61424   0.00000  Uiso   1.00
H652   H     0.43346   0.12686   0.64301   0.00000  Uiso   1.00
F653   F     0.44802   0.10993   0.88313   0.00000  Uiso   1.00
F654   F     0.55197   0.22342   0.61687   0.00000  Uiso   1.00
F655   F     0.41739   0.07900   0.54099   0.00000  Uiso   1.00
F656   F     0.58261   0.25433   0.95901   0.00000  Uiso   1.00
F657   F     0.44746   0.04809   0.69576   0.00000  Uiso   1.00
F658   F     0.55254   0.28524   0.80424   0.00000  Uiso   1.00
F659   F     0.55236   0.04782   0.80443   0.00000  Uiso   1.00
F660   F     0.44764   0.28551   0.69557   0.00000  Uiso   1.00
C661   C     0.75404   0.16667   0.74994   0.00000  Uiso   1.00
C662   C     0.91263   0.16666   0.75006   0.00000  Uiso   1.00
C663   C     0.77811   0.10806   0.52118   0.00000  Uiso   1.00
C664   C     0.88856   0.22527   0.97882   0.00000  Uiso   1.00
C665   C     0.68797   0.12419   0.74939   0.00000  Uiso   1.00
C666   C     0.97869   0.20915   0.75061   0.00000  Uiso   1.00
C667   C     0.97873   0.12418   0.74949   0.00000  Uiso   1.00
C668   C     0.68794   0.20915   0.75051   0.00000  Uiso   1.00
C669   C     0.95725   0.16666   0.75008   0.00000  Uiso   1.00
C670   C     0.70941   0.16667   0.74992   0.00000  Uiso   1.00
C671   C     0.80718   0.02484   0.72293   0.00000  Uiso   1.00
C672   C     0.85949   0.30849   0.77707   0.00000  Uiso   1.00
C673   C     0.85947   0.02470   0.77710   0.00000  Uiso   1.00
C674   C     0.80720   0.30863   0.72290   0.00000  Uiso   1.00
C675   C     0.83258   0.16676   0.66447   0.00000  Uiso   1.00
C676   C     0.83408   0.16657   0.83553   0.00000  Uiso   1.00
C677   C     0.86377   0.19486   0.90732   0.00000  Uiso   1.00
C678   C     0.80290   0.13847   0.59267   0.00000  Uiso   1.00
C679   C     0.83570   0.16615   0.88381   0.00000  Uiso   1.00
C680   C     0.83097   0.16718   0.61618   0.00000  Uiso   1.00
C681   C     0.80816   0.13717   0.90640   0.00000  Uiso   1.00
C682   C     0.85850   0.19617   0.59360   0.00000  Uiso   1.00
C683   C     0.80727   0.13708   0.95261   0.00000  Uiso   1.00
C684   C     0.85940   0.19626   0.54739   0.00000  Uiso   1.00
C685   C     0.83402   0.16665   0.97662   0.00000  Uiso   1.00
C686   C     0.83265   0.16668   0.52338   0.00000  Uiso   1.00
C687   C     0.86219   0.19601   0.95399   0.00000  Uiso   1.00
C688   C     0.80448   0.13732   0.54601   0.00000  Uiso   1.00
C689   C     0.77965   0.10809   0.97511   0.00000  Uiso   1.00
C690   C     0.88701   0.22524   0.52489   0.00000  Uiso   1.00
Cu691  Cu    0.83333   0.21355   0.75000   0.00000  Uiso   1.00
Cu692  Cu    0.83333   0.11978   0.75000   0.00000  Uiso   1.00
H693   H     0.75897   0.08520   0.95707   0.00000  Uiso   1.00
H694   H     0.90770   0.24814   0.54293   0.00000  Uiso   1.00
H695   H     0.70399   0.09097   0.74889   0.00000  Uiso   1.00
H696   H     0.96267   0.24236   0.75111   0.00000  Uiso   1.00
H697   H     0.96274   0.09096   0.74907   0.00000  Uiso   1.00
H698   H     0.70393   0.24237   0.75093   0.00000  Uiso   1.00
N699   N     0.83333   0.28402   0.75000   0.00000  Uiso   1.00
N700   N     0.83333   0.04931   0.75000   0.00000  Uiso   1.00
O701   O     0.77321   0.20625   0.74999   0.00000  Uiso   1.00
O702   O     0.89345   0.12709   0.75000   0.00000  Uiso   1.00
O703   O     0.89345   0.20625   0.75000   0.00000  Uiso   1.00
O704   O     0.77321   0.12709   0.74999   0.00000  Uiso   1.00
O705   O     0.83332   0.20627   0.68513   0.00000  Uiso   1.00
O706   O     0.83334   0.12707   0.81487   0.00000  Uiso   1.00
O707   O     0.83334   0.20627   0.81487   0.00000  Uiso   1.00
O708   O     0.83332   0.12707   0.68513   0.00000  Uiso   1.00
O709   O     0.89327   0.22118   0.88576   0.00000  Uiso   1.00
H710   H     0.89987   0.20646   0.85698   0.00000  Uiso   1.00
O711   O     0.77341   0.11214   0.61424   0.00000  Uiso   1.00
H712   H     0.76680   0.12686   0.64301   0.00000  Uiso   1.00
F713   F     0.78135   0.10993   0.88313   0.00000  Uiso   1.00
F714   F     0.88530   0.22342   0.61687   0.00000  Uiso   1.00
F715   F     0.75073   0.07900   0.54099   0.00000  Uiso   1.00
F716   F     0.91595   0.25433   0.95901   0.00000  Uiso   1.00
F717   F     0.78080   0.04809   0.69576   0.00000  Uiso   1.00
F718   F     0.88587   0.28524   0.80424   0.00000  Uiso   1.00
F719   F     0.88570   0.04782   0.80443   0.00000  Uiso   1.00
F720   F     0.78097   0.28551   0.69557   0.00000  Uiso   1.00
C721   C     0.08737   0.50001   0.74994   0.00000  Uiso   1.00
C722   C     0.24596   0.49999   0.75006   0.00000  Uiso   1.00
C723   C     0.11144   0.44139   0.52118   0.00000  Uiso   1.00
C724   C     0.22189   0.55860   0.97882   0.00000  Uiso   1.00
C725   C     0.02131   0.45752   0.74939   0.00000  Uiso   1.00
C726   C     0.31203   0.54248   0.75061   0.00000  Uiso   1.00
C727   C     0.31206   0.45751   0.74949   0.00000  Uiso   1.00
C728   C     0.02127   0.54249   0.75051   0.00000  Uiso   1.00
C729   C     0.29059   0.49999   0.75008   0.00000  Uiso   1.00
C730   C     0.04275   0.50001   0.74992   0.00000  Uiso   1.00
C731   C     0.14051   0.35818   0.72293   0.00000  Uiso   1.00
C732   C     0.19282   0.64182   0.77707   0.00000  Uiso   1.00
C733   C     0.19280   0.35803   0.77710   0.00000  Uiso   1.00
C734   C     0.14053   0.64197   0.72290   0.00000  Uiso   1.00
C735   C     0.16592   0.50010   0.66447   0.00000  Uiso   1.00
C736   C     0.16742   0.49990   0.83553   0.00000  Uiso   1.00
C737   C     0.19711   0.52819   0.90732   0.00000  Uiso   1.00
C738   C     0.13623   0.47181   0.59267   0.00000  Uiso   1.00
C739   C     0.16903   0.49948   0.88381   0.00000  Uiso   1.00
C740   C     0.16430   0.50052   0.61618   0.00000  Uiso   1.00
C741   C     0.14149   0.47051   0.90640   0.00000  Uiso   1.00
C742   C     0.19184   0.52950   0.59360   0.00000  Uiso   1.00
C743   C     0.14060   0.47041   0.95261   0.00000  Uiso   1.00
C744   C     0.19273   0.52959   0.54739   0.00000  Uiso   1.00
C745   C     0.16735   0.49998   0.97662   0.00000  Uiso   1.00
C746   C     0.16599   0.50002   0.52338   0.00000  Uiso   1.00
C747   C     0.19552   0.52935   0.95399   0.00000  Uiso   1.00
C748   C     0.13782   0.47065   0.54601   0.00000  Uiso   1.00
C749   C     0.11299   0.44143   0.97511   0.00000  Uiso   1.00
C750   C     0.22034   0.55858   0.52489   0.00000  Uiso   1.00
Cu751  Cu    0.16667   0.54689   0.75000   0.00000  Uiso   1.00
Cu752  Cu    0.16667   0.45311   0.75000   0.00000  Uiso   1.00
H753   H     0.09230   0.41853   0.95707   0.00000  Uiso   1.00
H754   H     0.24103   0.58148   0.54293   0.00000  Uiso   1.00
H755   H     0.03733   0.42430   0.74889   0.00000  Uiso   1.00
H756   H     0.29601   0.57570   0.75111   0.00000  Uiso   1.00
H757   H     0.29607   0.42429   0.74907   0.00000  Uiso   1.00
H758   H     0.03726   0.57571   0.75093   0.00000  Uiso   1.00
N759   N     0.16667   0.61736   0.75000   0.00000  Uiso   1.00
N760   N     0.16667   0.38264   0.75000   0.00000  Uiso   1.00
O761   O     0.10655   0.53958   0.74999   0.00000  Uiso   1.00
O762   O     0.22679   0.46042   0.75000   0.00000  Uiso   1.00
O763   O     0.22679   0.53958   0.75000   0.00000  Uiso   1.00
O764   O     0.10655   0.46042   0.74999   0.00000  Uiso   1.00
O765   O     0.16666   0.53960   0.68513   0.00000  Uiso   1.00
O766   O     0.16668   0.46040   0.81487   0.00000  Uiso   1.00
O767   O     0.16668   0.53960   0.81487   0.00000  Uiso   1.00
O768   O     0.16666   0.46040   0.68513   0.00000  Uiso   1.00
O769   O     0.22661   0.55451   0.88576   0.00000  Uiso   1.00
H770   H     0.23321   0.53979   0.85698   0.00000  Uiso   1.00
O771   O     0.10674   0.44547   0.61424   0.00000  Uiso   1.00
H772   H     0.10013   0.46020   0.64301   0.00000  Uiso   1.00
F773   F     0.11469   0.44326   0.88313   0.00000  Uiso   1.00
F774   F     0.21864   0.55675   0.61687   0.00000  Uiso   1.00
F775   F     0.08406   0.41233   0.54099   0.00000  Uiso   1.00
F776   F     0.24928   0.58766   0.95901   0.00000  Uiso   1.00
F777   F     0.11413   0.38143   0.69576   0.00000  Uiso   1.00
F778   F     0.21920   0.61857   0.80424   0.00000  Uiso   1.00
F779   F     0.21903   0.38116   0.80443   0.00000  Uiso   1.00
F780   F     0.11430   0.61884   0.69557   0.00000  Uiso   1.00
C781   C     0.42070   0.50001   0.74994   0.00000  Uiso   1.00
C782   C     0.57930   0.49999   0.75006   0.00000  Uiso   1.00
C783   C     0.44478   0.44139   0.52118   0.00000  Uiso   1.00
C784   C     0.55523   0.55860   0.97882   0.00000  Uiso   1.00
C785   C     0.35464   0.45752   0.74939   0.00000  Uiso   1.00
C786   C     0.64536   0.54248   0.75061   0.00000  Uiso   1.00
C787   C     0.64540   0.45751   0.74949   0.00000  Uiso   1.00
C788   C     0.35460   0.54249   0.75051   0.00000  Uiso   1.00
C789   C     0.62392   0.49999   0.75008   0.00000  Uiso   1.00
C790   C     0.37608   0.50001   0.74992   0.00000  Uiso   1.00
C791   C     0.47384   0.35818   0.72293   0.00000  Uiso   1.00
C792   C     0.52616   0.64182   0.77707   0.00000  Uiso   1.00
C793   C     0.52613   0.35803   0.77710   0.00000  Uiso   1.00
C794   C     0.47387   0.64197   0.72290   0.00000  Uiso   1.00
C795   C     0.49925   0.50010   0.66447   0.00000  Uiso   1.00
C796   C     0.50075   0.49990   0.83553   0.00000  Uiso   1.00
C797   C     0.53044   0.52819   0.90732   0.00000  Uiso   1.00
C798   C     0.46957   0.47181   0.59267   0.00000  Uiso   1.00
C799   C     0.50237   0.49948   0.88381   0.00000  Uiso   1.00
C800   C     0.49763   0.50052   0.61618   0.00000  Uiso   1.00
C801   C     0.47483   0.47051   0.90640   0.00000  Uiso   1.00
C802   C     0.52517   0.52950   0.59360   0.00000  Uiso   1.00
C803   C     0.47393   0.47041   0.95261   0.00000  Uiso   1.00
C804   C     0.52606   0.52959   0.54739   0.00000  Uiso   1.00
C805   C     0.50068   0.49998   0.97662   0.00000  Uiso   1.00
C806   C     0.49932   0.50002   0.52338   0.00000  Uiso   1.00
C807   C     0.52885   0.52935   0.95399   0.00000  Uiso   1.00
C808   C     0.47115   0.47065   0.54601   0.00000  Uiso   1.00
C809   C     0.44632   0.44143   0.97511   0.00000  Uiso   1.00
C810   C     0.55368   0.55858   0.52489   0.00000  Uiso   1.00
Cu811  Cu    0.50000   0.54689   0.75000   0.00000  Uiso   1.00
Cu812  Cu    0.50000   0.45311   0.75000   0.00000  Uiso   1.00
H813   H     0.42563   0.41853   0.95707   0.00000  Uiso   1.00
H814   H     0.57436   0.58148   0.54293   0.00000  Uiso   1.00
H815   H     0.37066   0.42430   0.74889   0.00000  Uiso   1.00
H816   H     0.62934   0.57570   0.75111   0.00000  Uiso   1.00
H817   H     0.62940   0.42429   0.74907   0.00000  Uiso   1.00
H818   H     0.37060   0.57571   0.75093   0.00000  Uiso   1.00
N819   N     0.50000   0.61736   0.75000   0.00000  Uiso   1.00
N820   N     0.50000   0.38264   0.75000   0.00000  Uiso   1.00
O821   O     0.43988   0.53958   0.74999   0.00000  Uiso   1.00
O822   O     0.56012   0.46042   0.75000   0.00000  Uiso   1.00
O823   O     0.56012   0.53958   0.75000   0.00000  Uiso   1.00
O824   O     0.43988   0.46042   0.74999   0.00000  Uiso   1.00
O825   O     0.49999   0.53960   0.68513   0.00000  Uiso   1.00
O826   O     0.50001   0.46040   0.81487   0.00000  Uiso   1.00
O827   O     0.50001   0.53960   0.81487   0.00000  Uiso   1.00
O828   O     0.49999   0.46040   0.68513   0.00000  Uiso   1.00
O829   O     0.55994   0.55451   0.88576   0.00000  Uiso   1.00
H830   H     0.56654   0.53979   0.85698   0.00000  Uiso   1.00
O831   O     0.44007   0.44547   0.61424   0.00000  Uiso   1.00
H832   H     0.43346   0.46020   0.64301   0.00000  Uiso   1.00
F833   F     0.44802   0.44326   0.88313   0.00000  Uiso   1.00
F834   F     0.55197   0.55675   0.61687   0.00000  Uiso   1.00
F835   F     0.41739   0.41233   0.54099   0.00000  Uiso   1.00
F836   F     0.58261   0.58766   0.95901   0.00000  Uiso   1.00
F837   F     0.44746   0.38143   0.69576   0.00000  Uiso   1.00
F838   F     0.55254   0.61857   0.80424   0.00000  Uiso   1.00
F839   F     0.55236   0.38116   0.80443   0.00000  Uiso   1.00
F840   F     0.44764   0.61884   0.69557   0.00000  Uiso   1.00
C841   C     0.75404   0.50001   0.74994   0.00000  Uiso   1.00
C842   C     0.91263   0.49999   0.75006   0.00000  Uiso   1.00
C843   C     0.77811   0.44139   0.52118   0.00000  Uiso   1.00
C844   C     0.88856   0.55860   0.97882   0.00000  Uiso   1.00
C845   C     0.68797   0.45752   0.74939   0.00000  Uiso   1.00
C846   C     0.97869   0.54248   0.75061   0.00000  Uiso   1.00
C847   C     0.97873   0.45751   0.74949   0.00000  Uiso   1.00
C848   C     0.68794   0.54249   0.75051   0.00000  Uiso   1.00
C849   C     0.95725   0.49999   0.75008   0.00000  Uiso   1.00
C850   C     0.70941   0.50001   0.74992   0.00000  Uiso   1.00
C851   C     0.80718   0.35818   0.72293   0.00000  Uiso   1.00
C852   C     0.85949   0.64182   0.77707   0.00000  Uiso   1.00
C853   C     0.85947   0.35803   0.77710   0.00000  Uiso   1.00
C854   C     0.80720   0.64197   0.72290   0.00000  Uiso   1.00
C855   C     0.83258   0.50010   0.66447   0.00000  Uiso   1.00
C856   C     0.83408   0.49990   0.83553   0.00000  Uiso   1.00
C857   C     0.86377   0.52819   0.90732   0.00000  Uiso   1.00
C858   C     0.80290   0.47181   0.59267   0.00000  Uiso   1.00
C859   C     0.83570   0.49948   0.88381   0.00000  Uiso   1.00
C860   C     0.83097   0.50052   0.61618   0.00000  Uiso   1.00
C861   C     0.80816   0.47051   0.90640   0.00000  Uiso   1.00
C862   C     0.85850   0.52950   0.59360   0.00000  Uiso   1.00
C863   C     0.80727   0.47041   0.95261   0.00000  Uiso   1.00
C864   C     0.85940   0.52959   0.54739   0.00000  Uiso   1.00
C865   C     0.83402   0.49998   0.97662   0.00000  Uiso   1.00
C866   C     0.83265   0.50002   0.52338   0.00000  Uiso   1.00
C867   C     0.86219   0.52935   0.95399   0.00000  Uiso   1.00
C868   C     0.80448   0.47065   0.54601   0.00000  Uiso   1.00
C869   C     0.77965   0.44143   0.97511   0.00000  Uiso   1.00
C870   C     0.88701   0.55858   0.52489   0.00000  Uiso   1.00
Cu871  Cu    0.83333   0.54689   0.75000   0.00000  Uiso   1.00
Cu872  Cu    0.83333   0.45311   0.75000   0.00000  Uiso   1.00
H873   H     0.75897   0.41853   0.95707   0.00000  Uiso   1.00
H874   H     0.90770   0.58148   0.54293   0.00000  Uiso   1.00
H875   H     0.70399   0.42430   0.74889   0.00000  Uiso   1.00
H876   H     0.96267   0.57570   0.75111   0.00000  Uiso   1.00
H877   H     0.96274   0.42429   0.74907   0.00000  Uiso   1.00
H878   H     0.70393   0.57571   0.75093   0.00000  Uiso   1.00
N879   N     0.83333   0.61736   0.75000   0.00000  Uiso   1.00
N880   N     0.83333   0.38264   0.75000   0.00000  Uiso   1.00
O881   O     0.77321   0.53958   0.74999   0.00000  Uiso   1.00
O882   O     0.89345   0.46042   0.75000   0.00000  Uiso   1.00
O883   O     0.89345   0.53958   0.75000   0.00000  Uiso   1.00
O884   O     0.77321   0.46042   0.74999   0.00000  Uiso   1.00
O885   O     0.83332   0.53960   0.68513   0.00000  Uiso   1.00
O886   O     0.83334   0.46040   0.81487   0.00000  Uiso   1.00
O887   O     0.83334   0.53960   0.81487   0.00000  Uiso   1.00
O888   O     0.83332   0.46040   0.68513   0.00000  Uiso   1.00
O889   O     0.89327   0.55451   0.88576   0.00000  Uiso   1.00
H890   H     0.89987   0.53979   0.85698   0.00000  Uiso   1.00
O891   O     0.77341   0.44547   0.61424   0.00000  Uiso   1.00
H892   H     0.76680   0.46020   0.64301   0.00000  Uiso   1.00
F893   F     0.78135   0.44326   0.88313   0.00000  Uiso   1.00
F894   F     0.88530   0.55675   0.61687   0.00000  Uiso   1.00
F895   F     0.75073   0.41233   0.54099   0.00000  Uiso   1.00
F896   F     0.91595   0.58766   0.95901   0.00000  Uiso   1.00
F897   F     0.78080   0.38143   0.69576   0.00000  Uiso   1.00
F898   F     0.88587   0.61857   0.80424   0.00000  Uiso   1.00
F899   F     0.88570   0.38116   0.80443   0.00000  Uiso   1.00
F900   F     0.78097   0.61884   0.69557   0.00000  Uiso   1.00
C901   C     0.08737   0.83334   0.74994   0.00000  Uiso   1.00
C902   C     0.24596   0.83333   0.75006   0.00000  Uiso   1.00
C903   C     0.11144   0.77473   0.52118   0.00000  Uiso   1.00
C904   C     0.22189   0.89194   0.97882   0.00000  Uiso   1.00
C905   C     0.02131   0.79085   0.74939   0.00000  Uiso   1.00
C906   C     0.31203   0.87581   0.75061   0.00000  Uiso   1.00
C907   C     0.31206   0.79085   0.74949   0.00000  Uiso   1.00
C908   C     0.02127   0.87582   0.75051   0.00000  Uiso   1.00
C909   C     0.29059   0.83333   0.75008   0.00000  Uiso   1.00
C910   C     0.04275   0.83334   0.74992   0.00000  Uiso   1.00
C911   C     0.14051   0.69151   0.72293   0.00000  Uiso   1.00
C912   C     0.19282   0.97516   0.77707   0.00000  Uiso   1.00
C913   C     0.19280   0.69137   0.77710   0.00000  Uiso   1.00
C914   C     0.14053   0.97530   0.72290   0.00000  Uiso   1.00
C915   C     0.16592   0.83343   0.66447   0.00000  Uiso   1.00
C916   C     0.16742   0.83324   0.83553   0.00000  Uiso   1.00
C917   C     0.19711   0.86152   0.90732   0.00000  Uiso   1.00
C918   C     0.13623   0.80514   0.59267   0.00000  Uiso   1.00
C919   C     0.16903   0.83282   0.88381   0.00000  Uiso   1.00
C920   C     0.16430   0.83385   0.61618   0.00000  Uiso   1.00
C921   C     0.14149   0.80384   0.90640   0.00000  Uiso   1.00
C922   C     0.19184   0.86283   0.59360   0.00000  Uiso   1.00
C923   C     0.14060   0.80375   0.95261   0.00000  Uiso   1.00
C924   C     0.19273   0.86292   0.54739   0.00000  Uiso   1.00
C925   C     0.16735   0.83332   0.97662   0.00000  Uiso   1.00
C926   C     0.16599   0.83335   0.52338   0.00000  Uiso   1.00
C927   C     0.19552   0.86268   0.95399   0.00000  Uiso   1.00
C928   C     0.13782   0.80399   0.54601   0.00000  Uiso   1.00
C929   C     0.11299   0.77476   0.97511   0.00000  Uiso   1.00
C930   C     0.22034   0.89191   0.52489   0.00000  Uiso   1.00
Cu931  Cu    0.16667   0.88022   0.75000   0.00000  Uiso   1.00
Cu932  Cu    0.16667   0.78645   0.75000   0.00000  Uiso   1.00
H933   H     0.09230   0.75186   0.95707   0.00000  Uiso   1.00
H934   H     0.24103   0.91481   0.54293   0.00000  Uiso   1.00
H935   H     0.03733   0.75764   0.74889   0.00000  Uiso   1.00
H936   H     0.29601   0.90903   0.75111   0.00000  Uiso   1.00
H937   H     0.29607   0.75763   0.74907   0.00000  Uiso   1.00
H938   H     0.03726   0.90904   0.75093   0.00000  Uiso   1.00
N939   N     0.16667   0.95069   0.75000   0.00000  Uiso   1.00
N940   N     0.16667   0.71598   0.75000   0.00000  Uiso   1.00
O941   O     0.10655   0.87291   0.74999   0.00000  Uiso   1.00
O942   O     0.22679   0.79375   0.75000   0.00000  Uiso   1.00
O943   O     0.22679   0.87291   0.75000   0.00000  Uiso   1.00
O944   O     0.10655   0.79375   0.74999   0.00000  Uiso   1.00
O945   O     0.16666   0.87293   0.68513   0.00000  Uiso   1.00
O946   O     0.16668   0.79373   0.81487   0.00000  Uiso   1.00
O947   O     0.16668   0.87293   0.81487   0.00000  Uiso   1.00
O948   O     0.16666   0.79373   0.68513   0.00000  Uiso   1.00
O949   O     0.22661   0.88785   0.88576   0.00000  Uiso   1.00
H950   H     0.23321   0.87313   0.85698   0.00000  Uiso   1.00
O951   O     0.10674   0.77881   0.61424   0.00000  Uiso   1.00
H952   H     0.10013   0.79353   0.64301   0.00000  Uiso   1.00
F953   F     0.11469   0.77660   0.88313   0.00000  Uiso   1.00
F954   F     0.21864   0.89009   0.61687   0.00000  Uiso   1.00
F955   F     0.08406   0.74567   0.54099   0.00000  Uiso   1.00
F956   F     0.24928   0.92099   0.95901   0.00000  Uiso   1.00
F957   F     0.11413   0.71476   0.69576   0.00000  Uiso   1.00
F958   F     0.21920   0.95191   0.80424   0.00000  Uiso   1.00
F959   F     0.21903   0.71449   0.80443   0.00000  Uiso   1.00
F960   F     0.11430   0.95218   0.69557   0.00000  Uiso   1.00
C961   C     0.42070   0.83334   0.74994   0.00000  Uiso   1.00
C962   C     0.57930   0.83333   0.75006   0.00000  Uiso   1.00
C963   C     0.44478   0.77473   0.52118   0.00000  Uiso   1.00
C964   C     0.55523   0.89194   0.97882   0.00000  Uiso   1.00
C965   C     0.35464   0.79085   0.74939   0.00000  Uiso   1.00
C966   C     0.64536   0.87581   0.75061   0.00000  Uiso   1.00
C967   C     0.64540   0.79085   0.74949   0.00000  Uiso   1.00
C968   C     0.35460   0.87582   0.75051   0.00000  Uiso   1.00
C969   C     0.62392   0.83333   0.75008   0.00000  Uiso   1.00
C970   C     0.37608   0.83334   0.74992   0.00000  Uiso   1.00
C971   C     0.47384   0.69151   0.72293   0.00000  Uiso   1.00
C972   C     0.52616   0.97516   0.77707   0.00000  Uiso   1.00
C973   C     0.52613   0.69137   0.77710   0.00000  Uiso   1.00
C974   C     0.47387   0.97530   0.72290   0.00000  Uiso   1.00
C975   C     0.49925   0.83343   0.66447   0.00000  Uiso   1.00
C976   C     0.50075   0.83324   0.83553   0.00000  Uiso   1.00
C977   C     0.53044   0.86152   0.90732   0.00000  Uiso   1.00
C978   C     0.46957   0.80514   0.59267   0.00000  Uiso   1.00
C979   C     0.50237   0.83282   0.88381   0.00000  Uiso   1.00
C980   C     0.49763   0.83385   0.61618   0.00000  Uiso   1.00
C981   C     0.47483   0.80384   0.90640   0.00000  Uiso   1.00
C982   C     0.52517   0.86283   0.59360   0.00000  Uiso   1.00
C983   C     0.47393   0.80375   0.95261   0.00000  Uiso   1.00
C984   C     0.52606   0.86292   0.54739   0.00000  Uiso   1.00
C985   C     0.50068   0.83332   0.97662   0.00000  Uiso   1.00
C986   C     0.49932   0.83335   0.52338   0.00000  Uiso   1.00
C987   C     0.52885   0.86268   0.95399   0.00000  Uiso   1.00
C988   C     0.47115   0.80399   0.54601   0.00000  Uiso   1.00
C989   C     0.44632   0.77476   0.97511   0.00000  Uiso   1.00
C990   C     0.55368   0.89191   0.52489   0.00000  Uiso   1.00
Cu991  Cu    0.50000   0.88022   0.75000   0.00000  Uiso   1.00
Cu992  Cu    0.50000   0.78645   0.75000   0.00000  Uiso   1.00
H993   H     0.42563   0.75186   0.95707   0.00000  Uiso   1.00
H994   H     0.57436   0.91481   0.54293   0.00000  Uiso   1.00
H995   H     0.37066   0.75764   0.74889   0.00000  Uiso   1.00
H996   H     0.62934   0.90903   0.75111   0.00000  Uiso   1.00
H997   H     0.62940   0.75763   0.74907   0.00000  Uiso   1.00
H998   H     0.37060   0.90904   0.75093   0.00000  Uiso   1.00
N999   N     0.50000   0.95069   0.75000   0.00000  Uiso   1.00
N1000  N     0.50000   0.71598   0.75000   0.00000  Uiso   1.00
O1001  O     0.43988   0.87291   0.74999   0.00000  Uiso   1.00
O1002  O     0.56012   0.79375   0.75000   0.00000  Uiso   1.00
O1003  O     0.56012   0.87291   0.75000   0.00000  Uiso   1.00
O1004  O     0.43988   0.79375   0.74999   0.00000  Uiso   1.00
O1005  O     0.49999   0.87293   0.68513   0.00000  Uiso   1.00
O1006  O     0.50001   0.79373   0.81487   0.00000  Uiso   1.00
O1007  O     0.50001   0.87293   0.81487   0.00000  Uiso   1.00
O1008  O     0.49999   0.79373   0.68513   0.00000  Uiso   1.00
O1009  O     0.55994   0.88785   0.88576   0.00000  Uiso   1.00
H1010  H     0.56654   0.87313   0.85698   0.00000  Uiso   1.00
O1011  O     0.44007   0.77881   0.61424   0.00000  Uiso   1.00
H1012  H     0.43346   0.79353   0.64301   0.00000  Uiso   1.00
F1013  F     0.44802   0.77660   0.88313   0.00000  Uiso   1.00
F1014  F     0.55197   0.89009   0.61687   0.00000  Uiso   1.00
F1015  F     0.41739   0.74567   0.54099   0.00000  Uiso   1.00
F1016  F     0.58261   0.92099   0.95901   0.00000  Uiso   1.00
F1017  F     0.44746   0.71476   0.69576   0.00000  Uiso   1.00
F1018  F     0.55254   0.95191   0.80424   0.00000  Uiso   1.00
F1019  F     0.55236   0.71449   0.80443   0.00000  Uiso   1.00
F1020  F     0.44764   0.95218   0.69557   0.00000  Uiso   1.00
C1021  C     0.75404   0.83334   0.74994   0.00000  Uiso   1.00
C1022  C     0.91263   0.83333   0.75006   0.00000  Uiso   1.00
C1023  C     0.77811   0.77473   0.52118   0.00000  Uiso   1.00
C1024  C     0.88856   0.89194   0.97882   0.00000  Uiso   1.00
C1025  C     0.68797   0.79085   0.74939   0.00000  Uiso   1.00
C1026  C     0.97869   0.87581   0.75061   0.00000  Uiso   1.00
C1027  C     0.97873   0.79085   0.74949   0.00000  Uiso   1.00
C1028  C     0.68794   0.87582   0.75051   0.00000  Uiso   1.00
C1029  C     0.95725   0.83333   0.75008   0.00000  Uiso   1.00
C1030  C     0.70941   0.83334   0.74992   0.00000  Uiso   1.00
C1031  C     0.80718   0.69151   0.72293   0.00000  Uiso   1.00
C1032  C     0.85949   0.97516   0.77707   0.00000  Uiso   1.00
C1033  C     0.85947   0.69137   0.77710   0.00000  Uiso   1.00
C1034  C     0.80720   0.97530   0.72290   0.00000  Uiso   1.00
C1035  C     0.83258   0.83343   0.66447   0.00000  Uiso   1.00
C1036  C     0.83408   0.83324   0.83553   0.00000  Uiso   1.00
C1037  C     0.86377   0.86152   0.90732   0.00000  Uiso   1.00
C1038  C     0.80290   0.80514   0.59267   0.00000  Uiso   1.00
C1039  C     0.83570   0.83282   0.88381   0.00000  Uiso   1.00
C1040  C     0.83097   0.83385   0.61618   0.00000  Uiso   1.00
C1041  C     0.80816   0.80384   0.90640   0.00000  Uiso   1.00
C1042  C     0.85850   0.86283   0.59360   0.00000  Uiso   1.00
C1043  C     0.80727   0.80375   0.95261   0.00000  Uiso   1.00
C1044  C     0.85940   0.86292   0.54739   0.00000  Uiso   1.00
C1045  C     0.83402   0.83332   0.97662   0.00000  Uiso   1.00
C1046  C     0.83265   0.83335   0.52338   0.00000  Uiso   1.00
C1047  C     0.86219   0.86268   0.95399   0.00000  Uiso   1.00
C1048  C     0.80448   0.80399   0.54601   0.00000  Uiso   1.00
C1049  C     0.77965   0.77476   0.97511   0.00000  Uiso   1.00
C1050  C     0.88701   0.89191   0.52489   0.00000  Uiso   1.00
Cu1051 Cu    0.83333   0.88022   0.75000   0.00000  Uiso   1.00
Cu1052 Cu    0.83333   0.78645   0.75000   0.00000  Uiso   1.00
H1053  H     0.75897   0.75186   0.95707   0.00000  Uiso   1.00
H1054  H     0.90770   0.91481   0.54293   0.00000  Uiso   1.00
H1055  H     0.70399   0.75764   0.74889   0.00000  Uiso   1.00
H1056  H     0.96267   0.90903   0.75111   0.00000  Uiso   1.00
H1057  H     0.96274   0.75763   0.74907   0.00000  Uiso   1.00
H1058  H     0.70393   0.90904   0.75093   0.00000  Uiso   1.00
N1059  N     0.83333   0.95069   0.75000   0.00000  Uiso   1.00
N1060  N     0.83333   0.71598   0.75000   0.00000  Uiso   1.00
O1061  O     0.77321   0.87291   0.74999   0.00000  Uiso   1.00
O1062  O     0.89345   0.79375   0.75000   0.00000  Uiso   1.00
O1063  O     0.89345   0.87291   0.75000   0.00000  Uiso   1.00
O1064  O     0.77321   0.79375   0.74999   0.00000  Uiso   1.00
O1065  O     0.83332   0.87293   0.68513   0.00000  Uiso   1.00
O1066  O     0.83334   0.79373   0.81487   0.00000  Uiso   1.00
O1067  O     0.83334   0.87293   0.81487   0.00000  Uiso   1.00
O1068  O     0.83332   0.79373   0.68513   0.00000  Uiso   1.00
O1069  O     0.89327   0.88785   0.88576   0.00000  Uiso   1.00
H1070  H     0.89987   0.87313   0.85698   0.00000  Uiso   1.00
O1071  O     0.77341   0.77881   0.61424   0.00000  Uiso   1.00
H1072  H     0.76680   0.79353   0.64301   0.00000  Uiso   1.00
F1073  F     0.78135   0.77660   0.88313   0.00000  Uiso   1.00
F1074  F     0.88530   0.89009   0.61687   0.00000  Uiso   1.00
F1075  F     0.75073   0.74567   0.54099   0.00000  Uiso   1.00
F1076  F     0.91595   0.92099   0.95901   0.00000  Uiso   1.00
F1077  F     0.78080   0.71476   0.69576   0.00000  Uiso   1.00
F1078  F     0.88587   0.95191   0.80424   0.00000  Uiso   1.00
F1079  F     0.88570   0.71449   0.80443   0.00000  Uiso   1.00
F1080  F     0.78097   0.95218   0.69557   0.00000  Uiso   1.00
loop_
_geom_bond_atom_site_label_1
_geom_bond_atom_site_label_2
_geom_bond_distance
_geom_bond_site_symmetry_2
_ccdc_geom_bond_type
C1     O44     1.292   .     A
C1     O41     1.292   .     A
C1     C10     1.450   .     S
C2     O43     1.292   .     A
C2     O42     1.292   .     A
C2     C9      1.450   .     S
C3     C28     1.411   .     A
C3     F55     1.358   .     S
C3     C569    1.390   1_554 S
C4     C27     1.411   .     A
C4     F56     1.358   .     S
C4     C570    1.390   .     S
C5     C10     1.401   .     A
C5     H35     1.083   .     S
C5     C127    1.383   1_455 S
C6     C9      1.401   .     A
C6     H36     1.083   .     S
C6     C68     1.383   .     S
C7     C9      1.401   .     A
C7     H37     1.083   .     S
C7     C65     1.383   .     S
C8     H38     1.083   .     S
C8     C10     1.401   .     A
C8     C126    1.383   1_455 S
C11    N40     1.368   .     A
C11    F57     1.355   .     S
C11    C374    1.417   1_545 S
C12    F58     1.355   .     S
C12    N39     1.368   .     A
C12    C193    1.417   .     S
C13    F59     1.355   .     S
C13    N40     1.368   .     A
C13    C372    1.417   1_545 S
C14    F60     1.355   .     S
C14    N39     1.368   .     A
C14    C191    1.417   .     S
C15    C20     1.456   .     S
C15    O48     1.294   .     A
C15    O45     1.292   .     A
C16    C19     1.456   .     S
C16    O47     1.294   .     A
C16    O46     1.292   .     A
C17    O49     1.384   .     S
C17    C27     1.408   .     A
C17    C19     1.415   .     A
C18    O51     1.384   .     S
C18    C28     1.408   .     A
C18    C20     1.415   .     A
C19    C21     1.399   .     A
C20    C22     1.399   .     A
C21    F53     1.361   .     S
C21    C23     1.393   .     A
C22    F54     1.361   .     S
C22    C24     1.393   .     A
C23    C25     1.411   .     A
C23    C29     1.399   .     A
C24    C30     1.399   .     A
C24    C26     1.411   .     A
C25    C27     1.419   .     A
C25    C566    1.410   .     S
C26    C28     1.419   .     A
C26    C565    1.410   1_554 S
C29    H33     1.084   .     S
C29    C543    1.390   .     S
C30    H34     1.084   .     S
C30    C544    1.390   1_554 S
Cu31   O43     1.965   .     S
Cu31   Cu32    2.682   .     S
Cu31   N39     2.015   .     S
Cu31   O47     1.966   .     S
Cu31   O45     1.967   .     S
Cu31   O41     1.965   .     S
Cu32   N40     2.015   .     S
Cu32   O48     1.966   .     S
Cu32   O44     1.965   .     S
Cu32   O42     1.965   .     S
Cu32   O46     1.967   .     S
O49    H50     0.990   .     S
O51    H52     0.990   .     S
C61    O104    1.292   .     A
C61    O101    1.292   .     A
C61    C70     1.450   .     S
C62    O103    1.292   .     A
C62    O102    1.292   .     A
C62    C69     1.450   .     S
C63    C88     1.411   .     A
C63    F115    1.358   .     S
C63    C629    1.390   1_554 S
C64    C87     1.411   .     A
C64    F116    1.358   .     S
C64    C630    1.390   .     S
C65    C70     1.401   .     A
C65    H95     1.083   .     S
C66    C69     1.401   .     A
C66    H96     1.083   .     S
C66    C128    1.383   .     S
C67    C69     1.401   .     A
C67    H97     1.083   .     S
C67    C125    1.383   .     S
C68    H98     1.083   .     S
C68    C70     1.401   .     A
C71    N100    1.368   .     A
C71    F117    1.355   .     S
C71    C434    1.417   1_545 S
C72    F118    1.355   .     S
C72    N99     1.368   .     A
C72    C253    1.417   .     S
C73    F119    1.355   .     S
C73    N100    1.368   .     A
C73    C432    1.417   1_545 S
C74    F120    1.355   .     S
C74    N99     1.368   .     A
C74    C251    1.417   .     S
C75    C80     1.456   .     S
C75    O108    1.294   .     A
C75    O105    1.292   .     A
C76    C79     1.456   .     S
C76    O107    1.294   .     A
C76    O106    1.292   .     A
C77    O109    1.384   .     S
C77    C87     1.408   .     A
C77    C79     1.415   .     A
C78    O111    1.384   .     S
C78    C88     1.408   .     A
C78    C80     1.415   .     A
C79    C81     1.399   .     A
C80    C82     1.399   .     A
C81    F113    1.361   .     S
C81    C83     1.393   .     A
C82    F114    1.361   .     S
C82    C84     1.393   .     A
C83    C85     1.411   .     A
C83    C89     1.399   .     A
C84    C90     1.399   .     A
C84    C86     1.411   .     A
C85    C87     1.419   .     A
C85    C626    1.410   .     S
C86    C88     1.419   .     A
C86    C625    1.410   1_554 S
C89    H93     1.084   .     S
C89    C603    1.390   .     S
C90    H94     1.084   .     S
C90    C604    1.390   1_554 S
Cu91   O103    1.965   .     S
Cu91   Cu92    2.682   .     S
Cu91   N99     2.015   .     S
Cu91   O107    1.966   .     S
Cu91   O105    1.967   .     S
Cu91   O101    1.965   .     S
Cu92   N100    2.015   .     S
Cu92   O108    1.966   .     S
Cu92   O104    1.965   .     S
Cu92   O102    1.965   .     S
Cu92   O106    1.967   .     S
O109   H110    0.990   .     S
O111   H112    0.990   .     S
C121   O164    1.292   .     A
C121   O161    1.292   .     A
C121   C130    1.450   .     S
C122   O163    1.292   .     A
C122   O162    1.292   .     A
C122   C129    1.450   .     S
C123   C148    1.411   .     A
C123   F175    1.358   .     S
C123   C689    1.390   1_554 S
C124   C147    1.411   .     A
C124   F176    1.358   .     S
C124   C690    1.390   .     S
C125   C130    1.401   .     A
C125   H155    1.083   .     S
C126   C129    1.401   .     A
C126   H156    1.083   .     S
C126   C8      1.383   1_655 S
C127   C129    1.401   .     A
C127   H157    1.083   .     S
C127   C5      1.383   1_655 S
C128   H158    1.083   .     S
C128   C130    1.401   .     A
C131   N160    1.368   .     A
C131   F177    1.355   .     S
C131   C494    1.417   1_545 S
C132   F178    1.355   .     S
C132   N159    1.368   .     A
C132   C313    1.417   .     S
C133   F179    1.355   .     S
C133   N160    1.368   .     A
C133   C492    1.417   1_545 S
C134   F180    1.355   .     S
C134   N159    1.368   .     A
C134   C311    1.417   .     S
C135   C140    1.456   .     S
C135   O168    1.294   .     A
C135   O165    1.292   .     A
C136   C139    1.456   .     S
C136   O167    1.294   .     A
C136   O166    1.292   .     A
C137   O169    1.384   .     S
C137   C147    1.408   .     A
C137   C139    1.415   .     A
C138   O171    1.384   .     S
C138   C148    1.408   .     A
C138   C140    1.415   .     A
C139   C141    1.399   .     A
C140   C142    1.399   .     A
C141   F173    1.361   .     S
C141   C143    1.393   .     A
C142   F174    1.361   .     S
C142   C144    1.393   .     A
C143   C145    1.411   .     A
C143   C149    1.399   .     A
C144   C150    1.399   .     A
C144   C146    1.411   .     A
C145   C147    1.419   .     A
C145   C686    1.410   .     S
C146   C148    1.419   .     A
C146   C685    1.410   1_554 S
C149   H153    1.084   .     S
C149   C663    1.390   .     S
C150   H154    1.084   .     S
C150   C664    1.390   1_554 S
Cu151  O163    1.965   .     S
Cu151  Cu152   2.682   .     S
Cu151  N159    2.015   .     S
Cu151  O167    1.966   .     S
Cu151  O165    1.967   .     S
Cu151  O161    1.965   .     S
Cu152  N160    2.015   .     S
Cu152  O168    1.966   .     S
Cu152  O164    1.965   .     S
Cu152  O162    1.965   .     S
Cu152  O166    1.967   .     S
O169   H170    0.990   .     S
O171   H172    0.990   .     S
C181   O224    1.292   .     A
C181   O221    1.292   .     A
C181   C190    1.450   .     S
C182   O223    1.292   .     A
C182   O222    1.292   .     A
C182   C189    1.450   .     S
C183   C208    1.411   .     A
C183   F235    1.358   .     S
C183   C749    1.390   1_554 S
C184   C207    1.411   .     A
C184   F236    1.358   .     S
C184   C750    1.390   .     S
C185   C190    1.401   .     A
C185   H215    1.083   .     S
C185   C307    1.383   1_455 S
C186   C189    1.401   .     A
C186   H216    1.083   .     S
C186   C248    1.383   .     S
C187   C189    1.401   .     A
C187   H217    1.083   .     S
C187   C245    1.383   .     S
C188   H218    1.083   .     S
C188   C190    1.401   .     A
C188   C306    1.383   1_455 S
C191   N220    1.368   .     A
C191   F237    1.355   .     S
C192   F238    1.355   .     S
C192   N219    1.368   .     A
C192   C373    1.417   .     S
C193   F239    1.355   .     S
C193   N220    1.368   .     A
C194   F240    1.355   .     S
C194   N219    1.368   .     A
C194   C371    1.417   .     S
C195   C200    1.456   .     S
C195   O228    1.294   .     A
C195   O225    1.292   .     A
C196   C199    1.456   .     S
C196   O227    1.294   .     A
C196   O226    1.292   .     A
C197   O229    1.384   .     S
C197   C207    1.408   .     A
C197   C199    1.415   .     A
C198   O231    1.384   .     S
C198   C208    1.408   .     A
C198   C200    1.415   .     A
C199   C201    1.399   .     A
C200   C202    1.399   .     A
C201   F233    1.361   .     S
C201   C203    1.393   .     A
C202   F234    1.361   .     S
C202   C204    1.393   .     A
C203   C205    1.411   .     A
C203   C209    1.399   .     A
C204   C210    1.399   .     A
C204   C206    1.411   .     A
C205   C207    1.419   .     A
C205   C746    1.410   .     S
C206   C208    1.419   .     A
C206   C745    1.410   1_554 S
C209   H213    1.084   .     S
C209   C723    1.390   .     S
C210   H214    1.084   .     S
C210   C724    1.390   1_554 S
Cu211  O223    1.965   .     S
Cu211  Cu212   2.682   .     S
Cu211  N219    2.015   .     S
Cu211  O227    1.966   .     S
Cu211  O225    1.967   .     S
Cu211  O221    1.965   .     S
Cu212  N220    2.015   .     S
Cu212  O228    1.966   .     S
Cu212  O224    1.965   .     S
Cu212  O222    1.965   .     S
Cu212  O226    1.967   .     S
O229   H230    0.990   .     S
O231   H232    0.990   .     S
C241   O284    1.292   .     A
C241   O281    1.292   .     A
C241   C250    1.450   .     S
C242   O283    1.292   .     A
C242   O282    1.292   .     A
C242   C249    1.450   .     S
C243   C268    1.411   .     A
C243   F295    1.358   .     S
C243   C809    1.390   1_554 S
C244   C267    1.411   .     A
C244   F296    1.358   .     S
C244   C810    1.390   .     S
C245   C250    1.401   .     A
C245   H275    1.083   .     S
C246   C249    1.401   .     A
C246   H276    1.083   .     S
C246   C308    1.383   .     S
C247   C249    1.401   .     A
C247   H277    1.083   .     S
C247   C305    1.383   .     S
C248   H278    1.083   .     S
C248   C250    1.401   .     A
C251   N280    1.368   .     A
C251   F297    1.355   .     S
C252   F298    1.355   .     S
C252   N279    1.368   .     A
C252   C433    1.417   .     S
C253   F299    1.355   .     S
C253   N280    1.368   .     A
C254   F300    1.355   .     S
C254   N279    1.368   .     A
C254   C431    1.417   .     S
C255   C260    1.456   .     S
C255   O288    1.294   .     A
C255   O285    1.292   .     A
C256   C259    1.456   .     S
C256   O287    1.294   .     A
C256   O286    1.292   .     A
C257   O289    1.384   .     S
C257   C267    1.408   .     A
C257   C259    1.415   .     A
C258   O291    1.384   .     S
C258   C268    1.408   .     A
C258   C260    1.415   .     A
C259   C261    1.399   .     A
C260   C262    1.399   .     A
C261   F293    1.361   .     S
C261   C263    1.393   .     A
C262   F294    1.361   .     S
C262   C264    1.393   .     A
C263   C265    1.411   .     A
C263   C269    1.399   .     A
C264   C270    1.399   .     A
C264   C266    1.411   .     A
C265   C267    1.419   .     A
C265   C806    1.410   .     S
C266   C268    1.419   .     A
C266   C805    1.410   1_554 S
C269   H273    1.084   .     S
C269   C783    1.390   .     S
C270   H274    1.084   .     S
C270   C784    1.390   1_554 S
Cu271  O283    1.965   .     S
Cu271  Cu272   2.682   .     S
Cu271  N279    2.015   .     S
Cu271  O287    1.966   .     S
Cu271  O285    1.967   .     S
Cu271  O281    1.965   .     S
Cu272  N280    2.015   .     S
Cu272  O288    1.966   .     S
Cu272  O284    1.965   .     S
Cu272  O282    1.965   .     S
Cu272  O286    1.967   .     S
O289   H290    0.990   .     S
O291   H292    0.990   .     S
C301   O344    1.292   .     A
C301   O341    1.292   .     A
C301   C310    1.450   .     S
C302   O343    1.292   .     A
C302   O342    1.292   .     A
C302   C309    1.450   .     S
C303   C328    1.411   .     A
C303   F355    1.358   .     S
C303   C869    1.390   1_554 S
C304   C327    1.411   .     A
C304   F356    1.358   .     S
C304   C870    1.390   .     S
C305   C310    1.401   .     A
C305   H335    1.083   .     S
C306   C309    1.401   .     A
C306   H336    1.083   .     S
C306   C188    1.383   1_655 S
C307   C309    1.401   .     A
C307   H337    1.083   .     S
C307   C185    1.383   1_655 S
C308   H338    1.083   .     S
C308   C310    1.401   .     A
C311   N340    1.368   .     A
C311   F357    1.355   .     S
C312   F358    1.355   .     S
C312   N339    1.368   .     A
C312   C493    1.417   .     S
C313   F359    1.355   .     S
C313   N340    1.368   .     A
C314   F360    1.355   .     S
C314   N339    1.368   .     A
C314   C491    1.417   .     S
C315   C320    1.456   .     S
C315   O348    1.294   .     A
C315   O345    1.292   .     A
C316   C319    1.456   .     S
C316   O347    1.294   .     A
C316   O346    1.292   .     A
C317   O349    1.384   .     S
C317   C327    1.408   .     A
C317   C319    1.415   .     A
C318   O351    1.384   .     S
C318   C328    1.408   .     A
C318   C320    1.415   .     A
C319   C321    1.399   .     A
C320   C322    1.399   .     A
C321   F353    1.361   .     S
C321   C323    1.393   .     A
C322   F354    1.361   .     S
C322   C324    1.393   .     A
C323   C325    1.411   .     A
C323   C329    1.399   .     A
C324   C330    1.399   .     A
C324   C326    1.411   .     A
C325   C327    1.419   .     A
C325   C866    1.410   .     S
C326   C328    1.419   .     A
C326   C865    1.410   1_554 S
C329   H333    1.084   .     S
C329   C843    1.390   .     S
C330   H334    1.084   .     S
C330   C844    1.390   1_554 S
Cu331  O343    1.965   .     S
Cu331  Cu332   2.682   .     S
Cu331  N339    2.015   .     S
Cu331  O347    1.966   .     S
Cu331  O345    1.967   .     S
Cu331  O341    1.965   .     S
Cu332  N340    2.015   .     S
Cu332  O348    1.966   .     S
Cu332  O344    1.965   .     S
Cu332  O342    1.965   .     S
Cu332  O346    1.967   .     S
O349   H350    0.990   .     S
O351   H352    0.990   .     S
C361   O404    1.292   .     A
C361   O401    1.292   .     A
C361   C370    1.450   .     S
C362   O403    1.292   .     A
C362   O402    1.292   .     A
C362   C369    1.450   .     S
C363   C388    1.411   .     A
C363   F415    1.358   .     S
C363   C929    1.390   1_554 S
C364   C387    1.411   .     A
C364   F416    1.358   .     S
C364   C930    1.390   .     S
C365   C370    1.401   .     A
C365   H395    1.083   .     S
C365   C487    1.383   1_455 S
C366   C369    1.401   .     A
C366   H396    1.083   .     S
C366   C428    1.383   .     S
C367   C369    1.401   .     A
C367   H397    1.083   .     S
C367   C425    1.383   .     S
C368   H398    1.083   .     S
C368   C370    1.401   .     A
C368   C486    1.383   1_455 S
C371   N400    1.368   .     A
C371   F417    1.355   .     S
C372   F418    1.355   .     S
C372   N399    1.368   .     A
C372   C13     1.417   1_565 S
C373   F419    1.355   .     S
C373   N400    1.368   .     A
C374   F420    1.355   .     S
C374   N399    1.368   .     A
C374   C11     1.417   1_565 S
C375   C380    1.456   .     S
C375   O408    1.294   .     A
C375   O405    1.292   .     A
C376   C379    1.456   .     S
C376   O407    1.294   .     A
C376   O406    1.292   .     A
C377   O409    1.384   .     S
C377   C387    1.408   .     A
C377   C379    1.415   .     A
C378   O411    1.384   .     S
C378   C388    1.408   .     A
C378   C380    1.415   .     A
C379   C381    1.399   .     A
C380   C382    1.399   .     A
C381   F413    1.361   .     S
C381   C383    1.393   .     A
C382   F414    1.361   .     S
C382   C384    1.393   .     A
C383   C385    1.411   .     A
C383   C389    1.399   .     A
C384   C390    1.399   .     A
C384   C386    1.411   .     A
C385   C387    1.419   .     A
C385   C926    1.410   .     S
C386   C388    1.419   .     A
C386   C925    1.410   1_554 S
C389   H393    1.084   .     S
C389   C903    1.390   .     S
C390   H394    1.084   .     S
C390   C904    1.390   1_554 S
Cu391  O403    1.965   .     S
Cu391  Cu392   2.682   .     S
Cu391  N399    2.015   .     S
Cu391  O407    1.966   .     S
Cu391  O405    1.967   .     S
Cu391  O401    1.965   .     S
Cu392  N400    2.015   .     S
Cu392  O408    1.966   .     S
Cu392  O404    1.965   .     S
Cu392  O402    1.965   .     S
Cu392  O406    1.967   .     S
O409   H410    0.990   .     S
O411   H412    0.990   .     S
C421   O464    1.292   .     A
C421   O461    1.292   .     A
C421   C430    1.450   .     S
C422   O463    1.292   .     A
C422   O462    1.292   .     A
C422   C429    1.450   .     S
C423   C448    1.411   .     A
C423   F475    1.358   .     S
C423   C989    1.390   1_554 S
C424   C447    1.411   .     A
C424   F476    1.358   .     S
C424   C990    1.390   .     S
C425   C430    1.401   .     A
C425   H455    1.083   .     S
C426   C429    1.401   .     A
C426   H456    1.083   .     S
C426   C488    1.383   .     S
C427   C429    1.401   .     A
C427   H457    1.083   .     S
C427   C485    1.383   .     S
C428   H458    1.083   .     S
C428   C430    1.401   .     A
C431   N460    1.368   .     A
C431   F477    1.355   .     S
C432   F478    1.355   .     S
C432   N459    1.368   .     A
C432   C73     1.417   1_565 S
C433   F479    1.355   .     S
C433   N460    1.368   .     A
C434   F480    1.355   .     S
C434   N459    1.368   .     A
C434   C71     1.417   1_565 S
C435   C440    1.456   .     S
C435   O468    1.294   .     A
C435   O465    1.292   .     A
C436   C439    1.456   .     S
C436   O467    1.294   .     A
C436   O466    1.292   .     A
C437   O469    1.384   .     S
C437   C447    1.408   .     A
C437   C439    1.415   .     A
C438   O471    1.384   .     S
C438   C448    1.408   .     A
C438   C440    1.415   .     A
C439   C441    1.399   .     A
C440   C442    1.399   .     A
C441   F473    1.361   .     S
C441   C443    1.393   .     A
C442   F474    1.361   .     S
C442   C444    1.393   .     A
C443   C445    1.411   .     A
C443   C449    1.399   .     A
C444   C450    1.399   .     A
C444   C446    1.411   .     A
C445   C447    1.419   .     A
C445   C986    1.410   .     S
C446   C448    1.419   .     A
C446   C985    1.410   1_554 S
C449   H453    1.084   .     S
C449   C963    1.390   .     S
C450   H454    1.084   .     S
C450   C964    1.390   1_554 S
Cu451  O463    1.965   .     S
Cu451  Cu452   2.682   .     S
Cu451  N459    2.015   .     S
Cu451  O467    1.966   .     S
Cu451  O465    1.967   .     S
Cu451  O461    1.965   .     S
Cu452  N460    2.015   .     S
Cu452  O468    1.966   .     S
Cu452  O464    1.965   .     S
Cu452  O462    1.965   .     S
Cu452  O466    1.967   .     S
O469   H470    0.990   .     S
O471   H472    0.990   .     S
C481   O524    1.292   .     A
C481   O521    1.292   .     A
C481   C490    1.450   .     S
C482   O523    1.292   .     A
C482   O522    1.292   .     A
C482   C489    1.450   .     S
C483   C508    1.411   .     A
C483   F535    1.358   .     S
C483   C1049   1.390   1_554 S
C484   C507    1.411   .     A
C484   F536    1.358   .     S
C484   C1050   1.390   .     S
C485   C490    1.401   .     A
C485   H515    1.083   .     S
C486   C489    1.401   .     A
C486   H516    1.083   .     S
C486   C368    1.383   1_655 S
C487   C489    1.401   .     A
C487   H517    1.083   .     S
C487   C365    1.383   1_655 S
C488   H518    1.083   .     S
C488   C490    1.401   .     A
C491   N520    1.368   .     A
C491   F537    1.355   .     S
C492   F538    1.355   .     S
C492   N519    1.368   .     A
C492   C133    1.417   1_565 S
C493   F539    1.355   .     S
C493   N520    1.368   .     A
C494   F540    1.355   .     S
C494   N519    1.368   .     A
C494   C131    1.417   1_565 S
C495   C500    1.456   .     S
C495   O528    1.294   .     A
C495   O525    1.292   .     A
C496   C499    1.456   .     S
C496   O527    1.294   .     A
C496   O526    1.292   .     A
C497   O529    1.384   .     S
C497   C507    1.408   .     A
C497   C499    1.415   .     A
C498   O531    1.384   .     S
C498   C508    1.408   .     A
C498   C500    1.415   .     A
C499   C501    1.399   .     A
C500   C502    1.399   .     A
C501   F533    1.361   .     S
C501   C503    1.393   .     A
C502   F534    1.361   .     S
C502   C504    1.393   .     A
C503   C505    1.411   .     A
C503   C509    1.399   .     A
C504   C510    1.399   .     A
C504   C506    1.411   .     A
C505   C507    1.419   .     A
C505   C1046   1.410   .     S
C506   C508    1.419   .     A
C506   C1045   1.410   1_554 S
C509   H513    1.084   .     S
C509   C1023   1.390   .     S
C510   H514    1.084   .     S
C510   C1024   1.390   1_554 S
Cu511  O523    1.965   .     S
Cu511  Cu512   2.682   .     S
Cu511  N519    2.015   .     S
Cu511  O527    1.966   .     S
Cu511  O525    1.967   .     S
Cu511  O521    1.965   .     S
Cu512  N520    2.015   .     S
Cu512  O528    1.966   .     S
Cu512  O524    1.965   .     S
Cu512  O522    1.965   .     S
Cu512  O526    1.967   .     S
O529   H530    0.990   .     S
O531   H532    0.990   .     S
C541   O584    1.292   .     A
C541   O581    1.292   .     A
C541   C550    1.450   .     S
C542   O583    1.292   .     A
C542   O582    1.292   .     A
C542   C549    1.450   .     S
C543   C568    1.411   .     A
C543   F595    1.358   .     S
C544   C567    1.411   .     A
C544   F596    1.358   .     S
C544   C30     1.390   1_556 S
C545   C550    1.401   .     A
C545   H575    1.083   .     S
C545   C667    1.383   1_455 S
C546   C549    1.401   .     A
C546   H576    1.083   .     S
C546   C608    1.383   .     S
C547   C549    1.401   .     A
C547   H577    1.083   .     S
C547   C605    1.383   .     S
C548   H578    1.083   .     S
C548   C550    1.401   .     A
C548   C666    1.383   1_455 S
C551   N580    1.368   .     A
C551   F597    1.355   .     S
C551   C914    1.417   1_545 S
C552   F598    1.355   .     S
C552   N579    1.368   .     A
C552   C733    1.417   .     S
C553   F599    1.355   .     S
C553   N580    1.368   .     A
C553   C912    1.417   1_545 S
C554   F600    1.355   .     S
C554   N579    1.368   .     A
C554   C731    1.417   .     S
C555   C560    1.456   .     S
C555   O588    1.294   .     A
C555   O585    1.292   .     A
C556   C559    1.456   .     S
C556   O587    1.294   .     A
C556   O586    1.292   .     A
C557   O589    1.384   .     S
C557   C567    1.408   .     A
C557   C559    1.415   .     A
C558   O591    1.384   .     S
C558   C568    1.408   .     A
C558   C560    1.415   .     A
C559   C561    1.399   .     A
C560   C562    1.399   .     A
C561   F593    1.361   .     S
C561   C563    1.393   .     A
C562   F594    1.361   .     S
C562   C564    1.393   .     A
C563   C565    1.411   .     A
C563   C569    1.399   .     A
C564   C570    1.399   .     A
C564   C566    1.411   .     A
C565   C567    1.419   .     A
C565   C26     1.410   1_556 S
C566   C568    1.419   .     A
C569   H573    1.084   .     S
C569   C3      1.390   1_556 S
C570   H574    1.084   .     S
Cu571  O583    1.965   .     S
Cu571  Cu572   2.682   .     S
Cu571  N579    2.015   .     S
Cu571  O587    1.966   .     S
Cu571  O585    1.967   .     S
Cu571  O581    1.965   .     S
Cu572  N580    2.015   .     S
Cu572  O588    1.966   .     S
Cu572  O584    1.965   .     S
Cu572  O582    1.965   .     S
Cu572  O586    1.967   .     S
O589   H590    0.990   .     S
O591   H592    0.990   .     S
C601   O644    1.292   .     A
C601   O641    1.292   .     A
C601   C610    1.450   .     S
C602   O643    1.292   .     A
C602   O642    1.292   .     A
C602   C609    1.450   .     S
C603   C628    1.411   .     A
C603   F655    1.358   .     S
C604   C627    1.411   .     A
C604   F656    1.358   .     S
C604   C90     1.390   1_556 S
C605   C610    1.401   .     A
C605   H635    1.083   .     S
C606   C609    1.401   .     A
C606   H636    1.083   .     S
C606   C668    1.383   .     S
C607   C609    1.401   .     A
C607   H637    1.083   .     S
C607   C665    1.383   .     S
C608   H638    1.083   .     S
C608   C610    1.401   .     A
C611   N640    1.368   .     A
C611   F657    1.355   .     S
C611   C974    1.417   1_545 S
C612   F658    1.355   .     S
C612   N639    1.368   .     A
C612   C793    1.417   .     S
C613   F659    1.355   .     S
C613   N640    1.368   .     A
C613   C972    1.417   1_545 S
C614   F660    1.355   .     S
C614   N639    1.368   .     A
C614   C791    1.417   .     S
C615   C620    1.456   .     S
C615   O648    1.294   .     A
C615   O645    1.292   .     A
C616   C619    1.456   .     S
C616   O647    1.294   .     A
C616   O646    1.292   .     A
C617   O649    1.384   .     S
C617   C627    1.408   .     A
C617   C619    1.415   .     A
C618   O651    1.384   .     S
C618   C628    1.408   .     A
C618   C620    1.415   .     A
C619   C621    1.399   .     A
C620   C622    1.399   .     A
C621   F653    1.361   .     S
C621   C623    1.393   .     A
C622   F654    1.361   .     S
C622   C624    1.393   .     A
C623   C625    1.411   .     A
C623   C629    1.399   .     A
C624   C630    1.399   .     A
C624   C626    1.411   .     A
C625   C627    1.419   .     A
C625   C86     1.410   1_556 S
C626   C628    1.419   .     A
C629   H633    1.084   .     S
C629   C63     1.390   1_556 S
C630   H634    1.084   .     S
Cu631  O643    1.965   .     S
Cu631  Cu632   2.682   .     S
Cu631  N639    2.015   .     S
Cu631  O647    1.966   .     S
Cu631  O645    1.967   .     S
Cu631  O641    1.965   .     S
Cu632  N640    2.015   .     S
Cu632  O648    1.966   .     S
Cu632  O644    1.965   .     S
Cu632  O642    1.965   .     S
Cu632  O646    1.967   .     S
O649   H650    0.990   .     S
O651   H652    0.990   .     S
C661   O704    1.292   .     A
C661   O701    1.292   .     A
C661   C670    1.450   .     S
C662   O703    1.292   .     A
C662   O702    1.292   .     A
C662   C669    1.450   .     S
C663   C688    1.411   .     A
C663   F715    1.358   .     S
C664   C687    1.411   .     A
C664   F716    1.358   .     S
C664   C150    1.390   1_556 S
C665   C670    1.401   .     A
C665   H695    1.083   .     S
C666   C669    1.401   .     A
C666   H696    1.083   .     S
C666   C548    1.383   1_655 S
C667   C669    1.401   .     A
C667   H697    1.083   .     S
C667   C545    1.383   1_655 S
C668   H698    1.083   .     S
C668   C670    1.401   .     A
C671   N700    1.368   .     A
C671   F717    1.355   .     S
C671   C1034   1.417   1_545 S
C672   F718    1.355   .     S
C672   N699    1.368   .     A
C672   C853    1.417   .     S
C673   F719    1.355   .     S
C673   N700    1.368   .     A
C673   C1032   1.417   1_545 S
C674   F720    1.355   .     S
C674   N699    1.368   .     A
C674   C851    1.417   .     S
C675   C680    1.456   .     S
C675   O708    1.294   .     A
C675   O705    1.292   .     A
C676   C679    1.456   .     S
C676   O707    1.294   .     A
C676   O706    1.292   .     A
C677   O709    1.384   .     S
C677   C687    1.408   .     A
C677   C679    1.415   .     A
C678   O711    1.384   .     S
C678   C688    1.408   .     A
C678   C680    1.415   .     A
C679   C681    1.399   .     A
C680   C682    1.399   .     A
C681   F713    1.361   .     S
C681   C683    1.393   .     A
C682   F714    1.361   .     S
C682   C684    1.393   .     A
C683   C685    1.411   .     A
C683   C689    1.399   .     A
C684   C690    1.399   .     A
C684   C686    1.411   .     A
C685   C687    1.419   .     A
C685   C146    1.410   1_556 S
C686   C688    1.419   .     A
C689   H693    1.084   .     S
C689   C123    1.390   1_556 S
C690   H694    1.084   .     S
Cu691  O703    1.965   .     S
Cu691  Cu692   2.682   .     S
Cu691  N699    2.015   .     S
Cu691  O707    1.966   .     S
Cu691  O705    1.967   .     S
Cu691  O701    1.965   .     S
Cu692  N700    2.015   .     S
Cu692  O708    1.966   .     S
Cu692  O704    1.965   .     S
Cu692  O702    1.965   .     S
Cu692  O706    1.967   .     S
O709   H710    0.990   .     S
O711   H712    0.990   .     S
C721   O764    1.292   .     A
C721   O761    1.292   .     A
C721   C730    1.450   .     S
C722   O763    1.292   .     A
C722   O762    1.292   .     A
C722   C729    1.450   .     S
C723   C748    1.411   .     A
C723   F775    1.358   .     S
C724   C747    1.411   .     A
C724   F776    1.358   .     S
C724   C210    1.390   1_556 S
C725   C730    1.401   .     A
C725   H755    1.083   .     S
C725   C847    1.383   1_455 S
C726   C729    1.401   .     A
C726   H756    1.083   .     S
C726   C788    1.383   .     S
C727   C729    1.401   .     A
C727   H757    1.083   .     S
C727   C785    1.383   .     S
C728   H758    1.083   .     S
C728   C730    1.401   .     A
C728   C846    1.383   1_455 S
C731   N760    1.368   .     A
C731   F777    1.355   .     S
C732   F778    1.355   .     S
C732   N759    1.368   .     A
C732   C913    1.417   .     S
C733   F779    1.355   .     S
C733   N760    1.368   .     A
C734   F780    1.355   .     S
C734   N759    1.368   .     A
C734   C911    1.417   .     S
C735   C740    1.456   .     S
C735   O768    1.294   .     A
C735   O765    1.292   .     A
C736   C739    1.456   .     S
C736   O767    1.294   .     A
C736   O766    1.292   .     A
C737   O769    1.384   .     S
C737   C747    1.408   .     A
C737   C739    1.415   .     A
C738   O771    1.384   .     S
C738   C748    1.408   .     A
C738   C740    1.415   .     A
C739   C741    1.399   .     A
C740   C742    1.399   .     A
C741   F773    1.361   .     S
C741   C743    1.393   .     A
C742   F774    1.361   .     S
C742   C744    1.393   .     A
C743   C745    1.411   .     A
C743   C749    1.399   .     A
C744   C750    1.399   .     A
C744   C746    1.411   .     A
C745   C747    1.419   .     A
C745   C206    1.410   1_556 S
C746   C748    1.419   .     A
C749   H753    1.084   .     S
C749   C183    1.390   1_556 S
C750   H754    1.084   .     S
Cu751  O763    1.965   .     S
Cu751  Cu752   2.682   .     S
Cu751  N759    2.015   .     S
Cu751  O767    1.966   .     S
Cu751  O765    1.967   .     S
Cu751  O761    1.965   .     S
Cu752  N760    2.015   .     S
Cu752  O768    1.966   .     S
Cu752  O764    1.965   .     S
Cu752  O762    1.965   .     S
Cu752  O766    1.967   .     S
O769   H770    0.990   .     S
O771   H772    0.990   .     S
C781   O824    1.292   .     A
C781   O821    1.292   .     A
C781   C790    1.450   .     S
C782   O823    1.292   .     A
C782   O822    1.292   .     A
C782   C789    1.450   .     S
C783   C808    1.411   .     A
C783   F835    1.358   .     S
C784   C807    1.411   .     A
C784   F836    1.358   .     S
C784   C270    1.390   1_556 S
C785   C790    1.401   .     A
C785   H815    1.083   .     S
C786   C789    1.401   .     A
C786   H816    1.083   .     S
C786   C848    1.383   .     S
C787   C789    1.401   .     A
C787   H817    1.083   .     S
C787   C845    1.383   .     S
C788   H818    1.083   .     S
C788   C790    1.401   .     A
C791   N820    1.368   .     A
C791   F837    1.355   .     S
C792   F838    1.355   .     S
C792   N819    1.368   .     A
C792   C973    1.417   .     S
C793   F839    1.355   .     S
C793   N820    1.368   .     A
C794   F840    1.355   .     S
C794   N819    1.368   .     A
C794   C971    1.417   .     S
C795   C800    1.456   .     S
C795   O828    1.294   .     A
C795   O825    1.292   .     A
C796   C799    1.456   .     S
C796   O827    1.294   .     A
C796   O826    1.292   .     A
C797   O829    1.384   .     S
C797   C807    1.408   .     A
C797   C799    1.415   .     A
C798   O831    1.384   .     S
C798   C808    1.408   .     A
C798   C800    1.415   .     A
C799   C801    1.399   .     A
C800   C802    1.399   .     A
C801   F833    1.361   .     S
C801   C803    1.393   .     A
C802   F834    1.361   .     S
C802   C804    1.393   .     A
C803   C805    1.411   .     A
C803   C809    1.399   .     A
C804   C810    1.399   .     A
C804   C806    1.411   .     A
C805   C807    1.419   .     A
C805   C266    1.410   1_556 S
C806   C808    1.419   .     A
C809   H813    1.084   .     S
C809   C243    1.390   1_556 S
C810   H814    1.084   .     S
Cu811  O823    1.965   .     S
Cu811  Cu812   2.682   .     S
Cu811  N819    2.015   .     S
Cu811  O827    1.966   .     S
Cu811  O825    1.967   .     S
Cu811  O821    1.965   .     S
Cu812  N820    2.015   .     S
Cu812  O828    1.966   .     S
Cu812  O824    1.965   .     S
Cu812  O822    1.965   .     S
Cu812  O826    1.967   .     S
O829   H830    0.990   .     S
O831   H832    0.990   .     S
C841   O884    1.292   .     A
C841   O881    1.292   .     A
C841   C850    1.450   .     S
C842   O883    1.292   .     A
C842   O882    1.292   .     A
C842   C849    1.450   .     S
C843   C868    1.411   .     A
C843   F895    1.358   .     S
C844   C867    1.411   .     A
C844   F896    1.358   .     S
C844   C330    1.390   1_556 S
C845   C850    1.401   .     A
C845   H875    1.083   .     S
C846   C849    1.401   .     A
C846   H876    1.083   .     S
C846   C728    1.383   1_655 S
C847   C849    1.401   .     A
C847   H877    1.083   .     S
C847   C725    1.383   1_655 S
C848   H878    1.083   .     S
C848   C850    1.401   .     A
C851   N880    1.368   .     A
C851   F897    1.355   .     S
C852   F898    1.355   .     S
C852   N879    1.368   .     A
C852   C1033   1.417   .     S
C853   F899    1.355   .     S
C853   N880    1.368   .     A
C854   F900    1.355   .     S
C854   N879    1.368   .     A
C854   C1031   1.417   .     S
C855   C860    1.456   .     S
C855   O888    1.294   .     A
C855   O885    1.292   .     A
C856   C859    1.456   .     S
C856   O887    1.294   .     A
C856   O886    1.292   .     A
C857   O889    1.384   .     S
C857   C867    1.408   .     A
C857   C859    1.415   .     A
C858   O891    1.384   .     S
C858   C868    1.408   .     A
C858   C860    1.415   .     A
C859   C861    1.399   .     A
C860   C862    1.399   .     A
C861   F893    1.361   .     S
C861   C863    1.393   .     A
C862   F894    1.361   .     S
C862   C864    1.393   .     A
C863   C865    1.411   .     A
C863   C869    1.399   .     A
C864   C870    1.399   .     A
C864   C866    1.411   .     A
C865   C867    1.419   .     A
C865   C326    1.410   1_556 S
C866   C868    1.419   .     A
C869   H873    1.084   .     S
C869   C303    1.390   1_556 S
C870   H874    1.084   .     S
Cu871  O883    1.965   .     S
Cu871  Cu872   2.682   .     S
Cu871  N879    2.015   .     S
Cu871  O887    1.966   .     S
Cu871  O885    1.967   .     S
Cu871  O881    1.965   .     S
Cu872  N880    2.015   .     S
Cu872  O888    1.966   .     S
Cu872  O884    1.965   .     S
Cu872  O882    1.965   .     S
Cu872  O886    1.967   .     S
O889   H890    0.990   .     S
O891   H892    0.990   .     S
C901   O944    1.292   .     A
C901   O941    1.292   .     A
C901   C910    1.450   .     S
C902   O943    1.292   .     A
C902   O942    1.292   .     A
C902   C909    1.450   .     S
C903   C928    1.411   .     A
C903   F955    1.358   .     S
C904   C927    1.411   .     A
C904   F956    1.358   .     S
C904   C390    1.390   1_556 S
C905   C910    1.401   .     A
C905   H935    1.083   .     S
C905   C1027   1.383   1_455 S
C906   C909    1.401   .     A
C906   H936    1.083   .     S
C906   C968    1.383   .     S
C907   C909    1.401   .     A
C907   H937    1.083   .     S
C907   C965    1.383   .     S
C908   H938    1.083   .     S
C908   C910    1.401   .     A
C908   C1026   1.383   1_455 S
C911   N940    1.368   .     A
C911   F957    1.355   .     S
C912   F958    1.355   .     S
C912   N939    1.368   .     A
C912   C553    1.417   1_565 S
C913   F959    1.355   .     S
C913   N940    1.368   .     A
C914   F960    1.355   .     S
C914   N939    1.368   .     A
C914   C551    1.417   1_565 S
C915   C920    1.456   .     S
C915   O948    1.294   .     A
C915   O945    1.292   .     A
C916   C919    1.456   .     S
C916   O947    1.294   .     A
C916   O946    1.292   .     A
C917   O949    1.384   .     S
C917   C927    1.408   .     A
C917   C919    1.415   .     A
C918   O951    1.384   .     S
C918   C928    1.408   .     A
C918   C920    1.415   .     A
C919   C921    1.399   .     A
C920   C922    1.399   .     A
C921   F953    1.361   .     S
C921   C923    1.393   .     A
C922   F954    1.361   .     S
C922   C924    1.393   .     A
C923   C925    1.411   .     A
C923   C929    1.399   .     A
C924   C930    1.399   .     A
C924   C926    1.411   .     A
C925   C927    1.419   .     A
C925   C386    1.410   1_556 S
C926   C928    1.419   .     A
C929   H933    1.084   .     S
C929   C363    1.390   1_556 S
C930   H934    1.084   .     S
Cu931  O943    1.965   .     S
Cu931  Cu932   2.682   .     S
Cu931  N939    2.015   .     S
Cu931  O947    1.966   .     S
Cu931  O945    1.967   .     S
Cu931  O941    1.965   .     S
Cu932  N940    2.015   .     S
Cu932  O948    1.966   .     S
Cu932  O944    1.965   .     S
Cu932  O942    1.965   .     S
Cu932  O946    1.967   .     S
O949   H950    0.990   .     S
O951   H952    0.990   .     S
C961   O1004   1.292   .     A
C961   O1001   1.292   .     A
C961   C970    1.450   .     S
C962   O1003   1.292   .     A
C962   O1002   1.292   .     A
C962   C969    1.450   .     S
C963   C988    1.411   .     A
C963   F1015   1.358   .     S
C964   C987    1.411   .     A
C964   F1016   1.358   .     S
C964   C450    1.390   1_556 S
C965   C970    1.401   .     A
C965   H995    1.083   .     S
C966   C969    1.401   .     A
C966   H996    1.083   .     S
C966   C1028   1.383   .     S
C967   C969    1.401   .     A
C967   H997    1.083   .     S
C967   C1025   1.383   .     S
C968   H998    1.083   .     S
C968   C970    1.401   .     A
C971   N1000   1.368   .     A
C971   F1017   1.355   .     S
C972   F1018   1.355   .     S
C972   N999    1.368   .     A
C972   C613    1.417   1_565 S
C973   F1019   1.355   .     S
C973   N1000   1.368   .     A
C974   F1020   1.355   .     S
C974   N999    1.368   .     A
C974   C611    1.417   1_565 S
C975   C980    1.456   .     S
C975   O1008   1.294   .     A
C975   O1005   1.292   .     A
C976   C979    1.456   .     S
C976   O1007   1.294   .     A
C976   O1006   1.292   .     A
C977   O1009   1.384   .     S
C977   C987    1.408   .     A
C977   C979    1.415   .     A
C978   O1011   1.384   .     S
C978   C988    1.408   .     A
C978   C980    1.415   .     A
C979   C981    1.399   .     A
C980   C982    1.399   .     A
C981   F1013   1.361   .     S
C981   C983    1.393   .     A
C982   F1014   1.361   .     S
C982   C984    1.393   .     A
C983   C985    1.411   .     A
C983   C989    1.399   .     A
C984   C990    1.399   .     A
C984   C986    1.411   .     A
C985   C987    1.419   .     A
C985   C446    1.410   1_556 S
C986   C988    1.419   .     A
C989   H993    1.084   .     S
C989   C423    1.390   1_556 S
C990   H994    1.084   .     S
Cu991  O1003   1.965   .     S
Cu991  Cu992   2.682   .     S
Cu991  N999    2.015   .     S
Cu991  O1007   1.966   .     S
Cu991  O1005   1.967   .     S
Cu991  O1001   1.965   .     S
Cu992  N1000   2.015   .     S
Cu992  O1008   1.966   .     S
Cu992  O1004   1.965   .     S
Cu992  O1002   1.965   .     S
Cu992  O1006   1.967   .     S
O1009  H1010   0.990   .     S
O1011  H1012   0.990   .     S
C1021  O1064   1.292   .     A
C1021  O1061   1.292   .     A
C1021  C1030   1.450   .     S
C1022  O1063   1.292   .     A
C1022  O1062   1.292   .     A
C1022  C1029   1.450   .     S
C1023  C1048   1.411   .     A
C1023  F1075   1.358   .     S
C1024  C1047   1.411   .     A
C1024  F1076   1.358   .     S
C1024  C510    1.390   1_556 S
C1025  C1030   1.401   .     A
C1025  H1055   1.083   .     S
C1026  C1029   1.401   .     A
C1026  H1056   1.083   .     S
C1026  C908    1.383   1_655 S
C1027  C1029   1.401   .     A
C1027  H1057   1.083   .     S
C1027  C905    1.383   1_655 S
C1028  H1058   1.083   .     S
C1028  C1030   1.401   .     A
C1031  N1060   1.368   .     A
C1031  F1077   1.355   .     S
C1032  F1078   1.355   .     S
C1032  N1059   1.368   .     A
C1032  C673    1.417   1_565 S
C1033  F1079   1.355   .     S
C1033  N1060   1.368   .     A
C1034  F1080   1.355   .     S
C1034  N1059   1.368   .     A
C1034  C671    1.417   1_565 S
C1035  C1040   1.456   .     S
C1035  O1068   1.294   .     A
C1035  O1065   1.292   .     A
C1036  C1039   1.456   .     S
C1036  O1067   1.294   .     A
C1036  O1066   1.292   .     A
C1037  O1069   1.384   .     S
C1037  C1047   1.408   .     A
C1037  C1039   1.415   .     A
C1038  O1071   1.384   .     S
C1038  C1048   1.408   .     A
C1038  C1040   1.415   .     A
C1039  C1041   1.399   .     A
C1040  C1042   1.399   .     A
C1041  F1073   1.361   .     S
C1041  C1043   1.393   .     A
C1042  F1074   1.361   .     S
C1042  C1044   1.393   .     A
C1043  C1045   1.411   .     A
C1043  C1049   1.399   .     A
C1044  C1050   1.399   .     A
C1044  C1046   1.411   .     A
C1045  C1047   1.419   .     A
C1045  C506    1.410   1_556 S
C1046  C1048   1.419   .     A
C1049  H1053   1.084   .     S
C1049  C483    1.390   1_556 S
C1050  H1054   1.084   .     S
Cu1051 O1063   1.965   .     S
Cu1051 Cu1052  2.682   .     S
Cu1051 N1059   2.015   .     S
Cu1051 O1067   1.966   .     S
Cu1051 O1065   1.967   .     S
Cu1051 O1061   1.965   .     S
Cu1052 N1060   2.015   .     S
Cu1052 O1068   1.966   .     S
Cu1052 O1064   1.965   .     S
Cu1052 O1062   1.965   .     S
Cu1052 O1066   1.967   .     S
O1069  H1070   0.990   .     S
O1071  H1072   0.990   .     S
