data_str_m2_o1_o10_pcu_sym.73
_audit_creation_date              2020-01-03
_audit_creation_method            'Materials Studio'
_symmetry_space_group_name_H-M    'P1'
_symmetry_Int_Tables_number       1
_symmetry_cell_setting            triclinic
loop_
_symmetry_equiv_pos_as_xyz
  x,y,z
_cell_length_a                    26.1500
_cell_length_b                    32.4173
_cell_length_c                    28.7956
_cell_angle_alpha                 89.0747
_cell_angle_beta                  97.1839
_cell_angle_gamma                 92.5245
loop_
_atom_site_label
_atom_site_type_symbol
_atom_site_fract_x
_atom_site_fract_y
_atom_site_fract_z
_atom_site_U_iso_or_equiv
_atom_site_adp_type
_atom_site_occupancy
C1     C     0.16608   0.08744   0.16685   0.00000  Uiso   1.00
C2     C     0.18017   0.02120   0.20863   0.00000  Uiso   1.00
C3     C     0.16576   0.29053   0.16647   0.00000  Uiso   1.00
C4     C     0.16511   0.04276   0.16705   0.00000  Uiso   1.00
C5     C     0.13573   0.13957   0.02258   0.00000  Uiso   1.00
C6     C     0.19857   0.19304   0.31089   0.00000  Uiso   1.00
C7     C     0.13429   0.13960   0.30646   0.00000  Uiso   1.00
C8     C     0.19859   0.19399   0.02680   0.00000  Uiso   1.00
C9     C     0.09794   0.10688   0.28134   0.00000  Uiso   1.00
C10    C     0.04146   0.10890   0.29194   0.00000  Uiso   1.00
C11    C     0.02410   0.07113   0.31941   0.00000  Uiso   1.00
C12    C     0.16649   0.24589   0.16646   0.00000  Uiso   1.00
C13    C     0.23665   0.22544   0.05190   0.00000  Uiso   1.00
C14    C     0.22380   0.27049   0.03813   0.00000  Uiso   1.00
C15    C     0.26391   0.29197   0.01060   0.00000  Uiso   1.00
C16    C     0.06808   0.16672   0.15476   0.00000  Uiso   1.00
C17    C     0.26528   0.16750   0.17852   0.00000  Uiso   1.00
C18    C     0.01285   0.16637   0.14812   0.00000  Uiso   1.00
C19    C     0.32052   0.16946   0.18489   0.00000  Uiso   1.00
C20    C     0.14948   0.02140   0.12536   0.00000  Uiso   1.00
C21    C     0.18067   0.31187   0.20831   0.00000  Uiso   1.00
C22    C     0.14942   0.31204   0.12518   0.00000  Uiso   1.00
Cu23   Cu    0.16667   0.16667   0.21355   0.00000  Uiso   1.00
Cu24   Cu    0.16667   0.16666   0.11978   0.00000  Uiso   1.00
H25    H     0.32654   0.16301   0.11271   0.00000  Uiso   1.00
H26    H     0.04839   0.06816   0.02030   0.00000  Uiso   1.00
H27    H     0.31680   0.07417   0.32591   0.00000  Uiso   1.00
H28    H     0.03547   0.13745   0.31109   0.00000  Uiso   1.00
H29    H     0.01536   0.10975   0.25843   0.00000  Uiso   1.00
H30    H     0.09645   0.10869   0.24346   0.00000  Uiso   1.00
H31    H     0.11341   0.07613   0.29139   0.00000  Uiso   1.00
H32    H     0.30250   0.29271   0.03174   0.00000  Uiso   1.00
H33    H     0.26615   0.27593   0.31058   0.00000  Uiso   1.00
H34    H     0.25304   0.32424   0.00230   0.00000  Uiso   1.00
H35    H     0.18496   0.27211   0.01760   0.00000  Uiso   1.00
H36    H     0.00687   0.17362   0.22012   0.00000  Uiso   1.00
H37    H     0.22310   0.28853   0.07047   0.00000  Uiso   1.00
H38    H     0.23933   0.22310   0.08986   0.00000  Uiso   1.00
H39    H     0.27596   0.21862   0.04396   0.00000  Uiso   1.00
H40    H     0.13695   0.03764   0.09303   0.00000  Uiso   1.00
H41    H     0.19320   0.29567   0.24066   0.00000  Uiso   1.00
H42    H     0.13639   0.29590   0.09293   0.00000  Uiso   1.00
H43    H     0.19236   0.03727   0.24111   0.00000  Uiso   1.00
H44    H     0.11179   0.11784   0.03992   0.00000  Uiso   1.00
H45    H     0.22430   0.21353   0.29387   0.00000  Uiso   1.00
H46    H     0.02635   0.04262   0.29900   0.00000  Uiso   1.00
N47    N     0.16668   0.16668   0.28403   0.00000  Uiso   1.00
N48    N     0.16665   0.16666   0.04931   0.00000  Uiso   1.00
O49    O     0.16666   0.10655   0.20625   0.00000  Uiso   1.00
O50    O     0.16667   0.22678   0.12709   0.00000  Uiso   1.00
O51    O     0.16666   0.10654   0.12706   0.00000  Uiso   1.00
O52    O     0.16667   0.22679   0.20628   0.00000  Uiso   1.00
O53    O     0.09161   0.16667   0.19712   0.00000  Uiso   1.00
O54    O     0.24172   0.16666   0.13621   0.00000  Uiso   1.00
O55    O     0.09161   0.16666   0.11793   0.00000  Uiso   1.00
O56    O     0.24172   0.16667   0.21540   0.00000  Uiso   1.00
C57    C     0.49941   0.08744   0.16685   0.00000  Uiso   1.00
C58    C     0.51350   0.02120   0.20863   0.00000  Uiso   1.00
C59    C     0.49909   0.29053   0.16647   0.00000  Uiso   1.00
C60    C     0.49845   0.04276   0.16705   0.00000  Uiso   1.00
C61    C     0.46906   0.13957   0.02258   0.00000  Uiso   1.00
C62    C     0.53191   0.19304   0.31089   0.00000  Uiso   1.00
C63    C     0.46763   0.13960   0.30646   0.00000  Uiso   1.00
C64    C     0.53192   0.19399   0.02680   0.00000  Uiso   1.00
C65    C     0.43128   0.10688   0.28134   0.00000  Uiso   1.00
C66    C     0.37479   0.10890   0.29194   0.00000  Uiso   1.00
C67    C     0.35743   0.07113   0.31941   0.00000  Uiso   1.00
C68    C     0.49982   0.24589   0.16646   0.00000  Uiso   1.00
C69    C     0.56999   0.22544   0.05190   0.00000  Uiso   1.00
C70    C     0.55714   0.27049   0.03813   0.00000  Uiso   1.00
C71    C     0.59724   0.29197   0.01060   0.00000  Uiso   1.00
C72    C     0.40141   0.16672   0.15476   0.00000  Uiso   1.00
C73    C     0.59861   0.16750   0.17852   0.00000  Uiso   1.00
C74    C     0.34619   0.16637   0.14812   0.00000  Uiso   1.00
C75    C     0.65385   0.16946   0.18489   0.00000  Uiso   1.00
C76    C     0.48282   0.02140   0.12536   0.00000  Uiso   1.00
C77    C     0.51401   0.31187   0.20831   0.00000  Uiso   1.00
C78    C     0.48275   0.31204   0.12518   0.00000  Uiso   1.00
Cu79   Cu    0.50000   0.16667   0.21355   0.00000  Uiso   1.00
Cu80   Cu    0.50000   0.16666   0.11978   0.00000  Uiso   1.00
H81    H     0.65988   0.16301   0.11271   0.00000  Uiso   1.00
H82    H     0.38173   0.06816   0.02030   0.00000  Uiso   1.00
H83    H     0.65013   0.07417   0.32591   0.00000  Uiso   1.00
H84    H     0.36881   0.13745   0.31109   0.00000  Uiso   1.00
H85    H     0.34870   0.10975   0.25843   0.00000  Uiso   1.00
H86    H     0.42978   0.10869   0.24346   0.00000  Uiso   1.00
H87    H     0.44674   0.07613   0.29139   0.00000  Uiso   1.00
H88    H     0.63583   0.29271   0.03174   0.00000  Uiso   1.00
H89    H     0.59949   0.27593   0.31058   0.00000  Uiso   1.00
H90    H     0.58638   0.32424   0.00230   0.00000  Uiso   1.00
H91    H     0.51830   0.27211   0.01760   0.00000  Uiso   1.00
H92    H     0.34020   0.17362   0.22012   0.00000  Uiso   1.00
H93    H     0.55643   0.28853   0.07047   0.00000  Uiso   1.00
H94    H     0.57266   0.22310   0.08986   0.00000  Uiso   1.00
H95    H     0.60930   0.21862   0.04396   0.00000  Uiso   1.00
H96    H     0.47028   0.03764   0.09303   0.00000  Uiso   1.00
H97    H     0.52653   0.29567   0.24066   0.00000  Uiso   1.00
H98    H     0.46972   0.29590   0.09293   0.00000  Uiso   1.00
H99    H     0.52569   0.03727   0.24111   0.00000  Uiso   1.00
H100   H     0.44512   0.11784   0.03992   0.00000  Uiso   1.00
H101   H     0.55763   0.21353   0.29387   0.00000  Uiso   1.00
H102   H     0.35968   0.04262   0.29900   0.00000  Uiso   1.00
N103   N     0.50001   0.16668   0.28403   0.00000  Uiso   1.00
N104   N     0.49999   0.16666   0.04931   0.00000  Uiso   1.00
O105   O     0.50000   0.10655   0.20625   0.00000  Uiso   1.00
O106   O     0.50000   0.22678   0.12709   0.00000  Uiso   1.00
O107   O     0.50000   0.10654   0.12706   0.00000  Uiso   1.00
O108   O     0.50000   0.22679   0.20628   0.00000  Uiso   1.00
O109   O     0.42495   0.16667   0.19712   0.00000  Uiso   1.00
O110   O     0.57505   0.16666   0.13621   0.00000  Uiso   1.00
O111   O     0.42494   0.16666   0.11793   0.00000  Uiso   1.00
O112   O     0.57506   0.16667   0.21540   0.00000  Uiso   1.00
C113   C     0.83274   0.08744   0.16685   0.00000  Uiso   1.00
C114   C     0.84684   0.02120   0.20863   0.00000  Uiso   1.00
C115   C     0.83243   0.29053   0.16647   0.00000  Uiso   1.00
C116   C     0.83178   0.04276   0.16705   0.00000  Uiso   1.00
C117   C     0.80239   0.13957   0.02258   0.00000  Uiso   1.00
C118   C     0.86524   0.19304   0.31089   0.00000  Uiso   1.00
C119   C     0.80096   0.13960   0.30646   0.00000  Uiso   1.00
C120   C     0.86525   0.19399   0.02680   0.00000  Uiso   1.00
C121   C     0.76461   0.10688   0.28134   0.00000  Uiso   1.00
C122   C     0.70813   0.10890   0.29194   0.00000  Uiso   1.00
C123   C     0.69077   0.07113   0.31941   0.00000  Uiso   1.00
C124   C     0.83316   0.24589   0.16646   0.00000  Uiso   1.00
C125   C     0.90332   0.22544   0.05190   0.00000  Uiso   1.00
C126   C     0.89047   0.27049   0.03813   0.00000  Uiso   1.00
C127   C     0.93058   0.29197   0.01060   0.00000  Uiso   1.00
C128   C     0.73474   0.16672   0.15476   0.00000  Uiso   1.00
C129   C     0.93194   0.16750   0.17852   0.00000  Uiso   1.00
C130   C     0.67952   0.16637   0.14812   0.00000  Uiso   1.00
C131   C     0.98718   0.16946   0.18489   0.00000  Uiso   1.00
C132   C     0.81615   0.02140   0.12536   0.00000  Uiso   1.00
C133   C     0.84734   0.31187   0.20831   0.00000  Uiso   1.00
C134   C     0.81609   0.31204   0.12518   0.00000  Uiso   1.00
Cu135  Cu    0.83333   0.16667   0.21355   0.00000  Uiso   1.00
Cu136  Cu    0.83333   0.16666   0.11978   0.00000  Uiso   1.00
H137   H     0.99321   0.16301   0.11271   0.00000  Uiso   1.00
H138   H     0.71506   0.06816   0.02030   0.00000  Uiso   1.00
H139   H     0.98346   0.07417   0.32591   0.00000  Uiso   1.00
H140   H     0.70214   0.13745   0.31109   0.00000  Uiso   1.00
H141   H     0.68203   0.10975   0.25843   0.00000  Uiso   1.00
H142   H     0.76311   0.10869   0.24346   0.00000  Uiso   1.00
H143   H     0.78008   0.07613   0.29139   0.00000  Uiso   1.00
H144   H     0.96916   0.29271   0.03174   0.00000  Uiso   1.00
H145   H     0.93282   0.27593   0.31058   0.00000  Uiso   1.00
H146   H     0.91971   0.32424   0.00230   0.00000  Uiso   1.00
H147   H     0.85163   0.27211   0.01760   0.00000  Uiso   1.00
H148   H     0.67353   0.17362   0.22012   0.00000  Uiso   1.00
H149   H     0.88977   0.28853   0.07047   0.00000  Uiso   1.00
H150   H     0.90599   0.22310   0.08986   0.00000  Uiso   1.00
H151   H     0.94263   0.21862   0.04396   0.00000  Uiso   1.00
H152   H     0.80362   0.03764   0.09303   0.00000  Uiso   1.00
H153   H     0.85987   0.29567   0.24066   0.00000  Uiso   1.00
H154   H     0.80306   0.29590   0.09293   0.00000  Uiso   1.00
H155   H     0.85902   0.03727   0.24111   0.00000  Uiso   1.00
H156   H     0.77845   0.11784   0.03992   0.00000  Uiso   1.00
H157   H     0.89096   0.21353   0.29387   0.00000  Uiso   1.00
H158   H     0.69301   0.04262   0.29900   0.00000  Uiso   1.00
N159   N     0.83335   0.16668   0.28403   0.00000  Uiso   1.00
N160   N     0.83332   0.16666   0.04931   0.00000  Uiso   1.00
O161   O     0.83333   0.10655   0.20625   0.00000  Uiso   1.00
O162   O     0.83334   0.22678   0.12709   0.00000  Uiso   1.00
O163   O     0.83333   0.10654   0.12706   0.00000  Uiso   1.00
O164   O     0.83334   0.22679   0.20628   0.00000  Uiso   1.00
O165   O     0.75828   0.16667   0.19712   0.00000  Uiso   1.00
O166   O     0.90839   0.16666   0.13621   0.00000  Uiso   1.00
O167   O     0.75828   0.16666   0.11793   0.00000  Uiso   1.00
O168   O     0.90839   0.16667   0.21540   0.00000  Uiso   1.00
C169   C     0.16608   0.42077   0.16685   0.00000  Uiso   1.00
C170   C     0.18017   0.35453   0.20863   0.00000  Uiso   1.00
C171   C     0.16576   0.62386   0.16647   0.00000  Uiso   1.00
C172   C     0.16511   0.37609   0.16705   0.00000  Uiso   1.00
C173   C     0.13573   0.47290   0.02258   0.00000  Uiso   1.00
C174   C     0.19857   0.52637   0.31089   0.00000  Uiso   1.00
C175   C     0.13429   0.47294   0.30646   0.00000  Uiso   1.00
C176   C     0.19859   0.52732   0.02680   0.00000  Uiso   1.00
C177   C     0.09794   0.44021   0.28134   0.00000  Uiso   1.00
C178   C     0.04146   0.44223   0.29194   0.00000  Uiso   1.00
C179   C     0.02410   0.40446   0.31941   0.00000  Uiso   1.00
C180   C     0.16649   0.57922   0.16646   0.00000  Uiso   1.00
C181   C     0.23665   0.55877   0.05190   0.00000  Uiso   1.00
C182   C     0.22380   0.60382   0.03813   0.00000  Uiso   1.00
C183   C     0.26391   0.62530   0.01060   0.00000  Uiso   1.00
C184   C     0.06808   0.50006   0.15476   0.00000  Uiso   1.00
C185   C     0.26528   0.50083   0.17852   0.00000  Uiso   1.00
C186   C     0.01285   0.49970   0.14812   0.00000  Uiso   1.00
C187   C     0.32052   0.50279   0.18489   0.00000  Uiso   1.00
C188   C     0.14948   0.35474   0.12536   0.00000  Uiso   1.00
C189   C     0.18067   0.64521   0.20831   0.00000  Uiso   1.00
C190   C     0.14942   0.64537   0.12518   0.00000  Uiso   1.00
Cu191  Cu    0.16667   0.50001   0.21355   0.00000  Uiso   1.00
Cu192  Cu    0.16667   0.49999   0.11978   0.00000  Uiso   1.00
H193   H     0.32654   0.49635   0.11271   0.00000  Uiso   1.00
H194   H     0.04839   0.40149   0.02030   0.00000  Uiso   1.00
H195   H     0.31680   0.40750   0.32591   0.00000  Uiso   1.00
H196   H     0.03547   0.47079   0.31109   0.00000  Uiso   1.00
H197   H     0.01536   0.44308   0.25843   0.00000  Uiso   1.00
H198   H     0.09645   0.44203   0.24346   0.00000  Uiso   1.00
H199   H     0.11341   0.40946   0.29139   0.00000  Uiso   1.00
H200   H     0.30250   0.62604   0.03174   0.00000  Uiso   1.00
H201   H     0.26615   0.60927   0.31058   0.00000  Uiso   1.00
H202   H     0.25304   0.65758   0.00230   0.00000  Uiso   1.00
H203   H     0.18496   0.60544   0.01760   0.00000  Uiso   1.00
H204   H     0.00687   0.50696   0.22012   0.00000  Uiso   1.00
H205   H     0.22310   0.62186   0.07047   0.00000  Uiso   1.00
H206   H     0.23933   0.55643   0.08986   0.00000  Uiso   1.00
H207   H     0.27596   0.55196   0.04396   0.00000  Uiso   1.00
H208   H     0.13695   0.37098   0.09303   0.00000  Uiso   1.00
H209   H     0.19320   0.62901   0.24066   0.00000  Uiso   1.00
H210   H     0.13639   0.62924   0.09293   0.00000  Uiso   1.00
H211   H     0.19236   0.37060   0.24111   0.00000  Uiso   1.00
H212   H     0.11179   0.45118   0.03992   0.00000  Uiso   1.00
H213   H     0.22430   0.54686   0.29387   0.00000  Uiso   1.00
H214   H     0.02635   0.37595   0.29900   0.00000  Uiso   1.00
N215   N     0.16668   0.50001   0.28403   0.00000  Uiso   1.00
N216   N     0.16665   0.49999   0.04931   0.00000  Uiso   1.00
O217   O     0.16666   0.43989   0.20625   0.00000  Uiso   1.00
O218   O     0.16667   0.56011   0.12709   0.00000  Uiso   1.00
O219   O     0.16666   0.43988   0.12706   0.00000  Uiso   1.00
O220   O     0.16667   0.56012   0.20628   0.00000  Uiso   1.00
O221   O     0.09161   0.50000   0.19712   0.00000  Uiso   1.00
O222   O     0.24172   0.50000   0.13621   0.00000  Uiso   1.00
O223   O     0.09161   0.49999   0.11793   0.00000  Uiso   1.00
O224   O     0.24172   0.50001   0.21540   0.00000  Uiso   1.00
C225   C     0.49941   0.42077   0.16685   0.00000  Uiso   1.00
C226   C     0.51350   0.35453   0.20863   0.00000  Uiso   1.00
C227   C     0.49909   0.62386   0.16647   0.00000  Uiso   1.00
C228   C     0.49845   0.37609   0.16705   0.00000  Uiso   1.00
C229   C     0.46906   0.47290   0.02258   0.00000  Uiso   1.00
C230   C     0.53191   0.52637   0.31089   0.00000  Uiso   1.00
C231   C     0.46763   0.47294   0.30646   0.00000  Uiso   1.00
C232   C     0.53192   0.52732   0.02680   0.00000  Uiso   1.00
C233   C     0.43128   0.44021   0.28134   0.00000  Uiso   1.00
C234   C     0.37479   0.44223   0.29194   0.00000  Uiso   1.00
C235   C     0.35743   0.40446   0.31941   0.00000  Uiso   1.00
C236   C     0.49982   0.57922   0.16646   0.00000  Uiso   1.00
C237   C     0.56999   0.55877   0.05190   0.00000  Uiso   1.00
C238   C     0.55714   0.60382   0.03813   0.00000  Uiso   1.00
C239   C     0.59724   0.62530   0.01060   0.00000  Uiso   1.00
C240   C     0.40141   0.50006   0.15476   0.00000  Uiso   1.00
C241   C     0.59861   0.50083   0.17852   0.00000  Uiso   1.00
C242   C     0.34619   0.49970   0.14812   0.00000  Uiso   1.00
C243   C     0.65385   0.50279   0.18489   0.00000  Uiso   1.00
C244   C     0.48282   0.35474   0.12536   0.00000  Uiso   1.00
C245   C     0.51401   0.64521   0.20831   0.00000  Uiso   1.00
C246   C     0.48275   0.64537   0.12518   0.00000  Uiso   1.00
Cu247  Cu    0.50000   0.50001   0.21355   0.00000  Uiso   1.00
Cu248  Cu    0.50000   0.49999   0.11978   0.00000  Uiso   1.00
H249   H     0.65988   0.49635   0.11271   0.00000  Uiso   1.00
H250   H     0.38173   0.40149   0.02030   0.00000  Uiso   1.00
H251   H     0.65013   0.40750   0.32591   0.00000  Uiso   1.00
H252   H     0.36881   0.47079   0.31109   0.00000  Uiso   1.00
H253   H     0.34870   0.44308   0.25843   0.00000  Uiso   1.00
H254   H     0.42978   0.44203   0.24346   0.00000  Uiso   1.00
H255   H     0.44674   0.40946   0.29139   0.00000  Uiso   1.00
H256   H     0.63583   0.62604   0.03174   0.00000  Uiso   1.00
H257   H     0.59949   0.60927   0.31058   0.00000  Uiso   1.00
H258   H     0.58638   0.65758   0.00230   0.00000  Uiso   1.00
H259   H     0.51830   0.60544   0.01760   0.00000  Uiso   1.00
H260   H     0.34020   0.50696   0.22012   0.00000  Uiso   1.00
H261   H     0.55643   0.62186   0.07047   0.00000  Uiso   1.00
H262   H     0.57266   0.55643   0.08986   0.00000  Uiso   1.00
H263   H     0.60930   0.55196   0.04396   0.00000  Uiso   1.00
H264   H     0.47028   0.37098   0.09303   0.00000  Uiso   1.00
H265   H     0.52653   0.62901   0.24066   0.00000  Uiso   1.00
H266   H     0.46972   0.62924   0.09293   0.00000  Uiso   1.00
H267   H     0.52569   0.37060   0.24111   0.00000  Uiso   1.00
H268   H     0.44512   0.45118   0.03992   0.00000  Uiso   1.00
H269   H     0.55763   0.54686   0.29387   0.00000  Uiso   1.00
H270   H     0.35968   0.37595   0.29900   0.00000  Uiso   1.00
N271   N     0.50001   0.50001   0.28403   0.00000  Uiso   1.00
N272   N     0.49999   0.49999   0.04931   0.00000  Uiso   1.00
O273   O     0.50000   0.43989   0.20625   0.00000  Uiso   1.00
O274   O     0.50000   0.56011   0.12709   0.00000  Uiso   1.00
O275   O     0.50000   0.43988   0.12706   0.00000  Uiso   1.00
O276   O     0.50000   0.56012   0.20628   0.00000  Uiso   1.00
O277   O     0.42495   0.50000   0.19712   0.00000  Uiso   1.00
O278   O     0.57505   0.50000   0.13621   0.00000  Uiso   1.00
O279   O     0.42494   0.49999   0.11793   0.00000  Uiso   1.00
O280   O     0.57506   0.50001   0.21540   0.00000  Uiso   1.00
C281   C     0.83274   0.42077   0.16685   0.00000  Uiso   1.00
C282   C     0.84684   0.35453   0.20863   0.00000  Uiso   1.00
C283   C     0.83243   0.62386   0.16647   0.00000  Uiso   1.00
C284   C     0.83178   0.37609   0.16705   0.00000  Uiso   1.00
C285   C     0.80239   0.47290   0.02258   0.00000  Uiso   1.00
C286   C     0.86524   0.52637   0.31089   0.00000  Uiso   1.00
C287   C     0.80096   0.47294   0.30646   0.00000  Uiso   1.00
C288   C     0.86525   0.52732   0.02680   0.00000  Uiso   1.00
C289   C     0.76461   0.44021   0.28134   0.00000  Uiso   1.00
C290   C     0.70813   0.44223   0.29194   0.00000  Uiso   1.00
C291   C     0.69077   0.40446   0.31941   0.00000  Uiso   1.00
C292   C     0.83316   0.57922   0.16646   0.00000  Uiso   1.00
C293   C     0.90332   0.55877   0.05190   0.00000  Uiso   1.00
C294   C     0.89047   0.60382   0.03813   0.00000  Uiso   1.00
C295   C     0.93058   0.62530   0.01060   0.00000  Uiso   1.00
C296   C     0.73474   0.50006   0.15476   0.00000  Uiso   1.00
C297   C     0.93194   0.50083   0.17852   0.00000  Uiso   1.00
C298   C     0.67952   0.49970   0.14812   0.00000  Uiso   1.00
C299   C     0.98718   0.50279   0.18489   0.00000  Uiso   1.00
C300   C     0.81615   0.35474   0.12536   0.00000  Uiso   1.00
C301   C     0.84734   0.64521   0.20831   0.00000  Uiso   1.00
C302   C     0.81609   0.64537   0.12518   0.00000  Uiso   1.00
Cu303  Cu    0.83333   0.50001   0.21355   0.00000  Uiso   1.00
Cu304  Cu    0.83333   0.49999   0.11978   0.00000  Uiso   1.00
H305   H     0.99321   0.49635   0.11271   0.00000  Uiso   1.00
H306   H     0.71506   0.40149   0.02030   0.00000  Uiso   1.00
H307   H     0.98346   0.40750   0.32591   0.00000  Uiso   1.00
H308   H     0.70214   0.47079   0.31109   0.00000  Uiso   1.00
H309   H     0.68203   0.44308   0.25843   0.00000  Uiso   1.00
H310   H     0.76311   0.44203   0.24346   0.00000  Uiso   1.00
H311   H     0.78008   0.40946   0.29139   0.00000  Uiso   1.00
H312   H     0.96916   0.62604   0.03174   0.00000  Uiso   1.00
H313   H     0.93282   0.60927   0.31058   0.00000  Uiso   1.00
H314   H     0.91971   0.65758   0.00230   0.00000  Uiso   1.00
H315   H     0.85163   0.60544   0.01760   0.00000  Uiso   1.00
H316   H     0.67353   0.50696   0.22012   0.00000  Uiso   1.00
H317   H     0.88977   0.62186   0.07047   0.00000  Uiso   1.00
H318   H     0.90599   0.55643   0.08986   0.00000  Uiso   1.00
H319   H     0.94263   0.55196   0.04396   0.00000  Uiso   1.00
H320   H     0.80362   0.37098   0.09303   0.00000  Uiso   1.00
H321   H     0.85987   0.62901   0.24066   0.00000  Uiso   1.00
H322   H     0.80306   0.62924   0.09293   0.00000  Uiso   1.00
H323   H     0.85902   0.37060   0.24111   0.00000  Uiso   1.00
H324   H     0.77845   0.45118   0.03992   0.00000  Uiso   1.00
H325   H     0.89096   0.54686   0.29387   0.00000  Uiso   1.00
H326   H     0.69301   0.37595   0.29900   0.00000  Uiso   1.00
N327   N     0.83335   0.50001   0.28403   0.00000  Uiso   1.00
N328   N     0.83332   0.49999   0.04931   0.00000  Uiso   1.00
O329   O     0.83333   0.43989   0.20625   0.00000  Uiso   1.00
O330   O     0.83334   0.56011   0.12709   0.00000  Uiso   1.00
O331   O     0.83333   0.43988   0.12706   0.00000  Uiso   1.00
O332   O     0.83334   0.56012   0.20628   0.00000  Uiso   1.00
O333   O     0.75828   0.50000   0.19712   0.00000  Uiso   1.00
O334   O     0.90839   0.50000   0.13621   0.00000  Uiso   1.00
O335   O     0.75828   0.49999   0.11793   0.00000  Uiso   1.00
O336   O     0.90839   0.50001   0.21540   0.00000  Uiso   1.00
C337   C     0.16608   0.75410   0.16685   0.00000  Uiso   1.00
C338   C     0.18017   0.68787   0.20863   0.00000  Uiso   1.00
C339   C     0.16576   0.95719   0.16647   0.00000  Uiso   1.00
C340   C     0.16511   0.70943   0.16705   0.00000  Uiso   1.00
C341   C     0.13573   0.80623   0.02258   0.00000  Uiso   1.00
C342   C     0.19857   0.85971   0.31089   0.00000  Uiso   1.00
C343   C     0.13429   0.80627   0.30646   0.00000  Uiso   1.00
C344   C     0.19859   0.86066   0.02680   0.00000  Uiso   1.00
C345   C     0.09794   0.77354   0.28134   0.00000  Uiso   1.00
C346   C     0.04146   0.77556   0.29194   0.00000  Uiso   1.00
C347   C     0.02410   0.73780   0.31941   0.00000  Uiso   1.00
C348   C     0.16649   0.91255   0.16646   0.00000  Uiso   1.00
C349   C     0.23665   0.89211   0.05190   0.00000  Uiso   1.00
C350   C     0.22380   0.93716   0.03813   0.00000  Uiso   1.00
C351   C     0.26391   0.95863   0.01060   0.00000  Uiso   1.00
C352   C     0.06808   0.83339   0.15476   0.00000  Uiso   1.00
C353   C     0.26528   0.83416   0.17852   0.00000  Uiso   1.00
C354   C     0.01285   0.83303   0.14812   0.00000  Uiso   1.00
C355   C     0.32052   0.83612   0.18489   0.00000  Uiso   1.00
C356   C     0.14948   0.68807   0.12536   0.00000  Uiso   1.00
C357   C     0.18067   0.97854   0.20831   0.00000  Uiso   1.00
C358   C     0.14942   0.97871   0.12518   0.00000  Uiso   1.00
Cu359  Cu    0.16667   0.83334   0.21355   0.00000  Uiso   1.00
Cu360  Cu    0.16667   0.83333   0.11978   0.00000  Uiso   1.00
H361   H     0.32654   0.82968   0.11271   0.00000  Uiso   1.00
H362   H     0.04839   0.73483   0.02030   0.00000  Uiso   1.00
H363   H     0.31680   0.74084   0.32591   0.00000  Uiso   1.00
H364   H     0.03547   0.80412   0.31109   0.00000  Uiso   1.00
H365   H     0.01536   0.77642   0.25843   0.00000  Uiso   1.00
H366   H     0.09645   0.77536   0.24346   0.00000  Uiso   1.00
H367   H     0.11341   0.74280   0.29139   0.00000  Uiso   1.00
H368   H     0.30250   0.95938   0.03174   0.00000  Uiso   1.00
H369   H     0.26615   0.94260   0.31058   0.00000  Uiso   1.00
H370   H     0.25304   0.99091   0.00230   0.00000  Uiso   1.00
H371   H     0.18496   0.93877   0.01760   0.00000  Uiso   1.00
H372   H     0.00687   0.84029   0.22012   0.00000  Uiso   1.00
H373   H     0.22310   0.95519   0.07047   0.00000  Uiso   1.00
H374   H     0.23933   0.88976   0.08986   0.00000  Uiso   1.00
H375   H     0.27596   0.88529   0.04396   0.00000  Uiso   1.00
H376   H     0.13695   0.70431   0.09303   0.00000  Uiso   1.00
H377   H     0.19320   0.96234   0.24066   0.00000  Uiso   1.00
H378   H     0.13639   0.96257   0.09293   0.00000  Uiso   1.00
H379   H     0.19236   0.70393   0.24111   0.00000  Uiso   1.00
H380   H     0.11179   0.78451   0.03992   0.00000  Uiso   1.00
H381   H     0.22430   0.88019   0.29387   0.00000  Uiso   1.00
H382   H     0.02635   0.70928   0.29900   0.00000  Uiso   1.00
N383   N     0.16668   0.83334   0.28403   0.00000  Uiso   1.00
N384   N     0.16665   0.83332   0.04931   0.00000  Uiso   1.00
O385   O     0.16666   0.77322   0.20625   0.00000  Uiso   1.00
O386   O     0.16667   0.89345   0.12709   0.00000  Uiso   1.00
O387   O     0.16666   0.77321   0.12706   0.00000  Uiso   1.00
O388   O     0.16667   0.89346   0.20628   0.00000  Uiso   1.00
O389   O     0.09161   0.83334   0.19712   0.00000  Uiso   1.00
O390   O     0.24172   0.83333   0.13621   0.00000  Uiso   1.00
O391   O     0.09161   0.83333   0.11793   0.00000  Uiso   1.00
O392   O     0.24172   0.83334   0.21540   0.00000  Uiso   1.00
C393   C     0.49941   0.75410   0.16685   0.00000  Uiso   1.00
C394   C     0.51350   0.68787   0.20863   0.00000  Uiso   1.00
C395   C     0.49909   0.95719   0.16647   0.00000  Uiso   1.00
C396   C     0.49845   0.70943   0.16705   0.00000  Uiso   1.00
C397   C     0.46906   0.80623   0.02258   0.00000  Uiso   1.00
C398   C     0.53191   0.85971   0.31089   0.00000  Uiso   1.00
C399   C     0.46763   0.80627   0.30646   0.00000  Uiso   1.00
C400   C     0.53192   0.86066   0.02680   0.00000  Uiso   1.00
C401   C     0.43128   0.77354   0.28134   0.00000  Uiso   1.00
C402   C     0.37479   0.77556   0.29194   0.00000  Uiso   1.00
C403   C     0.35743   0.73780   0.31941   0.00000  Uiso   1.00
C404   C     0.49982   0.91255   0.16646   0.00000  Uiso   1.00
C405   C     0.56999   0.89211   0.05190   0.00000  Uiso   1.00
C406   C     0.55714   0.93716   0.03813   0.00000  Uiso   1.00
C407   C     0.59724   0.95863   0.01060   0.00000  Uiso   1.00
C408   C     0.40141   0.83339   0.15476   0.00000  Uiso   1.00
C409   C     0.59861   0.83416   0.17852   0.00000  Uiso   1.00
C410   C     0.34619   0.83303   0.14812   0.00000  Uiso   1.00
C411   C     0.65385   0.83612   0.18489   0.00000  Uiso   1.00
C412   C     0.48282   0.68807   0.12536   0.00000  Uiso   1.00
C413   C     0.51401   0.97854   0.20831   0.00000  Uiso   1.00
C414   C     0.48275   0.97871   0.12518   0.00000  Uiso   1.00
Cu415  Cu    0.50000   0.83334   0.21355   0.00000  Uiso   1.00
Cu416  Cu    0.50000   0.83333   0.11978   0.00000  Uiso   1.00
H417   H     0.65988   0.82968   0.11271   0.00000  Uiso   1.00
H418   H     0.38173   0.73483   0.02030   0.00000  Uiso   1.00
H419   H     0.65013   0.74084   0.32591   0.00000  Uiso   1.00
H420   H     0.36881   0.80412   0.31109   0.00000  Uiso   1.00
H421   H     0.34870   0.77642   0.25843   0.00000  Uiso   1.00
H422   H     0.42978   0.77536   0.24346   0.00000  Uiso   1.00
H423   H     0.44674   0.74280   0.29139   0.00000  Uiso   1.00
H424   H     0.63583   0.95938   0.03174   0.00000  Uiso   1.00
H425   H     0.59949   0.94260   0.31058   0.00000  Uiso   1.00
H426   H     0.58638   0.99091   0.00230   0.00000  Uiso   1.00
H427   H     0.51830   0.93877   0.01760   0.00000  Uiso   1.00
H428   H     0.34020   0.84029   0.22012   0.00000  Uiso   1.00
H429   H     0.55643   0.95519   0.07047   0.00000  Uiso   1.00
H430   H     0.57266   0.88976   0.08986   0.00000  Uiso   1.00
H431   H     0.60930   0.88529   0.04396   0.00000  Uiso   1.00
H432   H     0.47028   0.70431   0.09303   0.00000  Uiso   1.00
H433   H     0.52653   0.96234   0.24066   0.00000  Uiso   1.00
H434   H     0.46972   0.96257   0.09293   0.00000  Uiso   1.00
H435   H     0.52569   0.70393   0.24111   0.00000  Uiso   1.00
H436   H     0.44512   0.78451   0.03992   0.00000  Uiso   1.00
H437   H     0.55763   0.88019   0.29387   0.00000  Uiso   1.00
H438   H     0.35968   0.70928   0.29900   0.00000  Uiso   1.00
N439   N     0.50001   0.83334   0.28403   0.00000  Uiso   1.00
N440   N     0.49999   0.83332   0.04931   0.00000  Uiso   1.00
O441   O     0.50000   0.77322   0.20625   0.00000  Uiso   1.00
O442   O     0.50000   0.89345   0.12709   0.00000  Uiso   1.00
O443   O     0.50000   0.77321   0.12706   0.00000  Uiso   1.00
O444   O     0.50000   0.89346   0.20628   0.00000  Uiso   1.00
O445   O     0.42495   0.83334   0.19712   0.00000  Uiso   1.00
O446   O     0.57505   0.83333   0.13621   0.00000  Uiso   1.00
O447   O     0.42494   0.83333   0.11793   0.00000  Uiso   1.00
O448   O     0.57506   0.83334   0.21540   0.00000  Uiso   1.00
C449   C     0.83274   0.75410   0.16685   0.00000  Uiso   1.00
C450   C     0.84684   0.68787   0.20863   0.00000  Uiso   1.00
C451   C     0.83243   0.95719   0.16647   0.00000  Uiso   1.00
C452   C     0.83178   0.70943   0.16705   0.00000  Uiso   1.00
C453   C     0.80239   0.80623   0.02258   0.00000  Uiso   1.00
C454   C     0.86524   0.85971   0.31089   0.00000  Uiso   1.00
C455   C     0.80096   0.80627   0.30646   0.00000  Uiso   1.00
C456   C     0.86525   0.86066   0.02680   0.00000  Uiso   1.00
C457   C     0.76461   0.77354   0.28134   0.00000  Uiso   1.00
C458   C     0.70813   0.77556   0.29194   0.00000  Uiso   1.00
C459   C     0.69077   0.73780   0.31941   0.00000  Uiso   1.00
C460   C     0.83316   0.91255   0.16646   0.00000  Uiso   1.00
C461   C     0.90332   0.89211   0.05190   0.00000  Uiso   1.00
C462   C     0.89047   0.93716   0.03813   0.00000  Uiso   1.00
C463   C     0.93058   0.95863   0.01060   0.00000  Uiso   1.00
C464   C     0.73474   0.83339   0.15476   0.00000  Uiso   1.00
C465   C     0.93194   0.83416   0.17852   0.00000  Uiso   1.00
C466   C     0.67952   0.83303   0.14812   0.00000  Uiso   1.00
C467   C     0.98718   0.83612   0.18489   0.00000  Uiso   1.00
C468   C     0.81615   0.68807   0.12536   0.00000  Uiso   1.00
C469   C     0.84734   0.97854   0.20831   0.00000  Uiso   1.00
C470   C     0.81609   0.97871   0.12518   0.00000  Uiso   1.00
Cu471  Cu    0.83333   0.83334   0.21355   0.00000  Uiso   1.00
Cu472  Cu    0.83333   0.83333   0.11978   0.00000  Uiso   1.00
H473   H     0.99321   0.82968   0.11271   0.00000  Uiso   1.00
H474   H     0.71506   0.73483   0.02030   0.00000  Uiso   1.00
H475   H     0.98346   0.74084   0.32591   0.00000  Uiso   1.00
H476   H     0.70214   0.80412   0.31109   0.00000  Uiso   1.00
H477   H     0.68203   0.77642   0.25843   0.00000  Uiso   1.00
H478   H     0.76311   0.77536   0.24346   0.00000  Uiso   1.00
H479   H     0.78008   0.74280   0.29139   0.00000  Uiso   1.00
H480   H     0.96916   0.95938   0.03174   0.00000  Uiso   1.00
H481   H     0.93282   0.94260   0.31058   0.00000  Uiso   1.00
H482   H     0.91971   0.99091   0.00230   0.00000  Uiso   1.00
H483   H     0.85163   0.93877   0.01760   0.00000  Uiso   1.00
H484   H     0.67353   0.84029   0.22012   0.00000  Uiso   1.00
H485   H     0.88977   0.95519   0.07047   0.00000  Uiso   1.00
H486   H     0.90599   0.88976   0.08986   0.00000  Uiso   1.00
H487   H     0.94263   0.88529   0.04396   0.00000  Uiso   1.00
H488   H     0.80362   0.70431   0.09303   0.00000  Uiso   1.00
H489   H     0.85987   0.96234   0.24066   0.00000  Uiso   1.00
H490   H     0.80306   0.96257   0.09293   0.00000  Uiso   1.00
H491   H     0.85902   0.70393   0.24111   0.00000  Uiso   1.00
H492   H     0.77845   0.78451   0.03992   0.00000  Uiso   1.00
H493   H     0.89096   0.88019   0.29387   0.00000  Uiso   1.00
H494   H     0.69301   0.70928   0.29900   0.00000  Uiso   1.00
N495   N     0.83335   0.83334   0.28403   0.00000  Uiso   1.00
N496   N     0.83332   0.83332   0.04931   0.00000  Uiso   1.00
O497   O     0.83333   0.77322   0.20625   0.00000  Uiso   1.00
O498   O     0.83334   0.89345   0.12709   0.00000  Uiso   1.00
O499   O     0.83333   0.77321   0.12706   0.00000  Uiso   1.00
O500   O     0.83334   0.89346   0.20628   0.00000  Uiso   1.00
O501   O     0.75828   0.83334   0.19712   0.00000  Uiso   1.00
O502   O     0.90839   0.83333   0.13621   0.00000  Uiso   1.00
O503   O     0.75828   0.83333   0.11793   0.00000  Uiso   1.00
O504   O     0.90839   0.83334   0.21540   0.00000  Uiso   1.00
C505   C     0.16608   0.08744   0.50018   0.00000  Uiso   1.00
C506   C     0.18017   0.02120   0.54197   0.00000  Uiso   1.00
C507   C     0.16576   0.29053   0.49981   0.00000  Uiso   1.00
C508   C     0.16511   0.04276   0.50038   0.00000  Uiso   1.00
C509   C     0.13573   0.13957   0.35591   0.00000  Uiso   1.00
C510   C     0.19857   0.19304   0.64423   0.00000  Uiso   1.00
C511   C     0.13429   0.13960   0.63979   0.00000  Uiso   1.00
C512   C     0.19859   0.19399   0.36014   0.00000  Uiso   1.00
C513   C     0.09794   0.10688   0.61468   0.00000  Uiso   1.00
C514   C     0.04146   0.10890   0.62527   0.00000  Uiso   1.00
C515   C     0.02410   0.07113   0.65275   0.00000  Uiso   1.00
C516   C     0.16649   0.24589   0.49980   0.00000  Uiso   1.00
C517   C     0.23665   0.22544   0.38523   0.00000  Uiso   1.00
C518   C     0.22380   0.27049   0.37146   0.00000  Uiso   1.00
C519   C     0.26391   0.29197   0.34393   0.00000  Uiso   1.00
C520   C     0.06808   0.16672   0.48809   0.00000  Uiso   1.00
C521   C     0.26528   0.16750   0.51185   0.00000  Uiso   1.00
C522   C     0.01285   0.16637   0.48145   0.00000  Uiso   1.00
C523   C     0.32052   0.16946   0.51822   0.00000  Uiso   1.00
C524   C     0.14948   0.02140   0.45869   0.00000  Uiso   1.00
C525   C     0.18067   0.31187   0.54165   0.00000  Uiso   1.00
C526   C     0.14942   0.31204   0.45852   0.00000  Uiso   1.00
Cu527  Cu    0.16667   0.16667   0.54689   0.00000  Uiso   1.00
Cu528  Cu    0.16667   0.16666   0.45311   0.00000  Uiso   1.00
H529   H     0.32654   0.16301   0.44605   0.00000  Uiso   1.00
H530   H     0.04839   0.06816   0.35363   0.00000  Uiso   1.00
H531   H     0.31680   0.07417   0.65925   0.00000  Uiso   1.00
H532   H     0.03547   0.13745   0.64443   0.00000  Uiso   1.00
H533   H     0.01536   0.10975   0.59176   0.00000  Uiso   1.00
H534   H     0.09645   0.10869   0.57679   0.00000  Uiso   1.00
H535   H     0.11341   0.07613   0.62472   0.00000  Uiso   1.00
H536   H     0.30250   0.29271   0.36508   0.00000  Uiso   1.00
H537   H     0.26615   0.27593   0.64392   0.00000  Uiso   1.00
H538   H     0.25304   0.32424   0.33564   0.00000  Uiso   1.00
H539   H     0.18496   0.27211   0.35094   0.00000  Uiso   1.00
H540   H     0.00687   0.17362   0.55345   0.00000  Uiso   1.00
H541   H     0.22310   0.28853   0.40381   0.00000  Uiso   1.00
H542   H     0.23933   0.22310   0.42319   0.00000  Uiso   1.00
H543   H     0.27596   0.21862   0.37730   0.00000  Uiso   1.00
H544   H     0.13695   0.03764   0.42636   0.00000  Uiso   1.00
H545   H     0.19320   0.29567   0.57399   0.00000  Uiso   1.00
H546   H     0.13639   0.29590   0.42626   0.00000  Uiso   1.00
H547   H     0.19236   0.03727   0.57445   0.00000  Uiso   1.00
H548   H     0.11179   0.11784   0.37326   0.00000  Uiso   1.00
H549   H     0.22430   0.21353   0.62720   0.00000  Uiso   1.00
H550   H     0.02635   0.04262   0.63234   0.00000  Uiso   1.00
N551   N     0.16668   0.16668   0.61736   0.00000  Uiso   1.00
N552   N     0.16665   0.16666   0.38264   0.00000  Uiso   1.00
O553   O     0.16666   0.10655   0.53958   0.00000  Uiso   1.00
O554   O     0.16667   0.22678   0.46042   0.00000  Uiso   1.00
O555   O     0.16666   0.10654   0.46039   0.00000  Uiso   1.00
O556   O     0.16667   0.22679   0.53961   0.00000  Uiso   1.00
O557   O     0.09161   0.16667   0.53046   0.00000  Uiso   1.00
O558   O     0.24172   0.16666   0.46954   0.00000  Uiso   1.00
O559   O     0.09161   0.16666   0.45127   0.00000  Uiso   1.00
O560   O     0.24172   0.16667   0.54873   0.00000  Uiso   1.00
C561   C     0.49941   0.08744   0.50018   0.00000  Uiso   1.00
C562   C     0.51350   0.02120   0.54197   0.00000  Uiso   1.00
C563   C     0.49909   0.29053   0.49981   0.00000  Uiso   1.00
C564   C     0.49845   0.04276   0.50038   0.00000  Uiso   1.00
C565   C     0.46906   0.13957   0.35591   0.00000  Uiso   1.00
C566   C     0.53191   0.19304   0.64423   0.00000  Uiso   1.00
C567   C     0.46763   0.13960   0.63979   0.00000  Uiso   1.00
C568   C     0.53192   0.19399   0.36014   0.00000  Uiso   1.00
C569   C     0.43128   0.10688   0.61468   0.00000  Uiso   1.00
C570   C     0.37479   0.10890   0.62527   0.00000  Uiso   1.00
C571   C     0.35743   0.07113   0.65275   0.00000  Uiso   1.00
C572   C     0.49982   0.24589   0.49980   0.00000  Uiso   1.00
C573   C     0.56999   0.22544   0.38523   0.00000  Uiso   1.00
C574   C     0.55714   0.27049   0.37146   0.00000  Uiso   1.00
C575   C     0.59724   0.29197   0.34393   0.00000  Uiso   1.00
C576   C     0.40141   0.16672   0.48809   0.00000  Uiso   1.00
C577   C     0.59861   0.16750   0.51185   0.00000  Uiso   1.00
C578   C     0.34619   0.16637   0.48145   0.00000  Uiso   1.00
C579   C     0.65385   0.16946   0.51822   0.00000  Uiso   1.00
C580   C     0.48282   0.02140   0.45869   0.00000  Uiso   1.00
C581   C     0.51401   0.31187   0.54165   0.00000  Uiso   1.00
C582   C     0.48275   0.31204   0.45852   0.00000  Uiso   1.00
Cu583  Cu    0.50000   0.16667   0.54689   0.00000  Uiso   1.00
Cu584  Cu    0.50000   0.16666   0.45311   0.00000  Uiso   1.00
H585   H     0.65988   0.16301   0.44605   0.00000  Uiso   1.00
H586   H     0.38173   0.06816   0.35363   0.00000  Uiso   1.00
H587   H     0.65013   0.07417   0.65925   0.00000  Uiso   1.00
H588   H     0.36881   0.13745   0.64443   0.00000  Uiso   1.00
H589   H     0.34870   0.10975   0.59176   0.00000  Uiso   1.00
H590   H     0.42978   0.10869   0.57679   0.00000  Uiso   1.00
H591   H     0.44674   0.07613   0.62472   0.00000  Uiso   1.00
H592   H     0.63583   0.29271   0.36508   0.00000  Uiso   1.00
H593   H     0.59949   0.27593   0.64392   0.00000  Uiso   1.00
H594   H     0.58638   0.32424   0.33564   0.00000  Uiso   1.00
H595   H     0.51830   0.27211   0.35094   0.00000  Uiso   1.00
H596   H     0.34020   0.17362   0.55345   0.00000  Uiso   1.00
H597   H     0.55643   0.28853   0.40381   0.00000  Uiso   1.00
H598   H     0.57266   0.22310   0.42319   0.00000  Uiso   1.00
H599   H     0.60930   0.21862   0.37730   0.00000  Uiso   1.00
H600   H     0.47028   0.03764   0.42636   0.00000  Uiso   1.00
H601   H     0.52653   0.29567   0.57399   0.00000  Uiso   1.00
H602   H     0.46972   0.29590   0.42626   0.00000  Uiso   1.00
H603   H     0.52569   0.03727   0.57445   0.00000  Uiso   1.00
H604   H     0.44512   0.11784   0.37326   0.00000  Uiso   1.00
H605   H     0.55763   0.21353   0.62720   0.00000  Uiso   1.00
H606   H     0.35968   0.04262   0.63234   0.00000  Uiso   1.00
N607   N     0.50001   0.16668   0.61736   0.00000  Uiso   1.00
N608   N     0.49999   0.16666   0.38264   0.00000  Uiso   1.00
O609   O     0.50000   0.10655   0.53958   0.00000  Uiso   1.00
O610   O     0.50000   0.22678   0.46042   0.00000  Uiso   1.00
O611   O     0.50000   0.10654   0.46039   0.00000  Uiso   1.00
O612   O     0.50000   0.22679   0.53961   0.00000  Uiso   1.00
O613   O     0.42495   0.16667   0.53046   0.00000  Uiso   1.00
O614   O     0.57505   0.16666   0.46954   0.00000  Uiso   1.00
O615   O     0.42494   0.16666   0.45127   0.00000  Uiso   1.00
O616   O     0.57506   0.16667   0.54873   0.00000  Uiso   1.00
C617   C     0.83274   0.08744   0.50018   0.00000  Uiso   1.00
C618   C     0.84684   0.02120   0.54197   0.00000  Uiso   1.00
C619   C     0.83243   0.29053   0.49981   0.00000  Uiso   1.00
C620   C     0.83178   0.04276   0.50038   0.00000  Uiso   1.00
C621   C     0.80239   0.13957   0.35591   0.00000  Uiso   1.00
C622   C     0.86524   0.19304   0.64423   0.00000  Uiso   1.00
C623   C     0.80096   0.13960   0.63979   0.00000  Uiso   1.00
C624   C     0.86525   0.19399   0.36014   0.00000  Uiso   1.00
C625   C     0.76461   0.10688   0.61468   0.00000  Uiso   1.00
C626   C     0.70813   0.10890   0.62527   0.00000  Uiso   1.00
C627   C     0.69077   0.07113   0.65275   0.00000  Uiso   1.00
C628   C     0.83316   0.24589   0.49980   0.00000  Uiso   1.00
C629   C     0.90332   0.22544   0.38523   0.00000  Uiso   1.00
C630   C     0.89047   0.27049   0.37146   0.00000  Uiso   1.00
C631   C     0.93058   0.29197   0.34393   0.00000  Uiso   1.00
C632   C     0.73474   0.16672   0.48809   0.00000  Uiso   1.00
C633   C     0.93194   0.16750   0.51185   0.00000  Uiso   1.00
C634   C     0.67952   0.16637   0.48145   0.00000  Uiso   1.00
C635   C     0.98718   0.16946   0.51822   0.00000  Uiso   1.00
C636   C     0.81615   0.02140   0.45869   0.00000  Uiso   1.00
C637   C     0.84734   0.31187   0.54165   0.00000  Uiso   1.00
C638   C     0.81609   0.31204   0.45852   0.00000  Uiso   1.00
Cu639  Cu    0.83333   0.16667   0.54689   0.00000  Uiso   1.00
Cu640  Cu    0.83333   0.16666   0.45311   0.00000  Uiso   1.00
H641   H     0.99321   0.16301   0.44605   0.00000  Uiso   1.00
H642   H     0.71506   0.06816   0.35363   0.00000  Uiso   1.00
H643   H     0.98346   0.07417   0.65925   0.00000  Uiso   1.00
H644   H     0.70214   0.13745   0.64443   0.00000  Uiso   1.00
H645   H     0.68203   0.10975   0.59176   0.00000  Uiso   1.00
H646   H     0.76311   0.10869   0.57679   0.00000  Uiso   1.00
H647   H     0.78008   0.07613   0.62472   0.00000  Uiso   1.00
H648   H     0.96916   0.29271   0.36508   0.00000  Uiso   1.00
H649   H     0.93282   0.27593   0.64392   0.00000  Uiso   1.00
H650   H     0.91971   0.32424   0.33564   0.00000  Uiso   1.00
H651   H     0.85163   0.27211   0.35094   0.00000  Uiso   1.00
H652   H     0.67353   0.17362   0.55345   0.00000  Uiso   1.00
H653   H     0.88977   0.28853   0.40381   0.00000  Uiso   1.00
H654   H     0.90599   0.22310   0.42319   0.00000  Uiso   1.00
H655   H     0.94263   0.21862   0.37730   0.00000  Uiso   1.00
H656   H     0.80362   0.03764   0.42636   0.00000  Uiso   1.00
H657   H     0.85987   0.29567   0.57399   0.00000  Uiso   1.00
H658   H     0.80306   0.29590   0.42626   0.00000  Uiso   1.00
H659   H     0.85902   0.03727   0.57445   0.00000  Uiso   1.00
H660   H     0.77845   0.11784   0.37326   0.00000  Uiso   1.00
H661   H     0.89096   0.21353   0.62720   0.00000  Uiso   1.00
H662   H     0.69301   0.04262   0.63234   0.00000  Uiso   1.00
N663   N     0.83335   0.16668   0.61736   0.00000  Uiso   1.00
N664   N     0.83332   0.16666   0.38264   0.00000  Uiso   1.00
O665   O     0.83333   0.10655   0.53958   0.00000  Uiso   1.00
O666   O     0.83334   0.22678   0.46042   0.00000  Uiso   1.00
O667   O     0.83333   0.10654   0.46039   0.00000  Uiso   1.00
O668   O     0.83334   0.22679   0.53961   0.00000  Uiso   1.00
O669   O     0.75828   0.16667   0.53046   0.00000  Uiso   1.00
O670   O     0.90839   0.16666   0.46954   0.00000  Uiso   1.00
O671   O     0.75828   0.16666   0.45127   0.00000  Uiso   1.00
O672   O     0.90839   0.16667   0.54873   0.00000  Uiso   1.00
C673   C     0.16608   0.42077   0.50018   0.00000  Uiso   1.00
C674   C     0.18017   0.35453   0.54197   0.00000  Uiso   1.00
C675   C     0.16576   0.62386   0.49981   0.00000  Uiso   1.00
C676   C     0.16511   0.37609   0.50038   0.00000  Uiso   1.00
C677   C     0.13573   0.47290   0.35591   0.00000  Uiso   1.00
C678   C     0.19857   0.52637   0.64423   0.00000  Uiso   1.00
C679   C     0.13429   0.47294   0.63979   0.00000  Uiso   1.00
C680   C     0.19859   0.52732   0.36014   0.00000  Uiso   1.00
C681   C     0.09794   0.44021   0.61468   0.00000  Uiso   1.00
C682   C     0.04146   0.44223   0.62527   0.00000  Uiso   1.00
C683   C     0.02410   0.40446   0.65275   0.00000  Uiso   1.00
C684   C     0.16649   0.57922   0.49980   0.00000  Uiso   1.00
C685   C     0.23665   0.55877   0.38523   0.00000  Uiso   1.00
C686   C     0.22380   0.60382   0.37146   0.00000  Uiso   1.00
C687   C     0.26391   0.62530   0.34393   0.00000  Uiso   1.00
C688   C     0.06808   0.50006   0.48809   0.00000  Uiso   1.00
C689   C     0.26528   0.50083   0.51185   0.00000  Uiso   1.00
C690   C     0.01285   0.49970   0.48145   0.00000  Uiso   1.00
C691   C     0.32052   0.50279   0.51822   0.00000  Uiso   1.00
C692   C     0.14948   0.35474   0.45869   0.00000  Uiso   1.00
C693   C     0.18067   0.64521   0.54165   0.00000  Uiso   1.00
C694   C     0.14942   0.64537   0.45852   0.00000  Uiso   1.00
Cu695  Cu    0.16667   0.50001   0.54689   0.00000  Uiso   1.00
Cu696  Cu    0.16667   0.49999   0.45311   0.00000  Uiso   1.00
H697   H     0.32654   0.49635   0.44605   0.00000  Uiso   1.00
H698   H     0.04839   0.40149   0.35363   0.00000  Uiso   1.00
H699   H     0.31680   0.40750   0.65925   0.00000  Uiso   1.00
H700   H     0.03547   0.47079   0.64443   0.00000  Uiso   1.00
H701   H     0.01536   0.44308   0.59176   0.00000  Uiso   1.00
H702   H     0.09645   0.44203   0.57679   0.00000  Uiso   1.00
H703   H     0.11341   0.40946   0.62472   0.00000  Uiso   1.00
H704   H     0.30250   0.62604   0.36508   0.00000  Uiso   1.00
H705   H     0.26615   0.60927   0.64392   0.00000  Uiso   1.00
H706   H     0.25304   0.65758   0.33564   0.00000  Uiso   1.00
H707   H     0.18496   0.60544   0.35094   0.00000  Uiso   1.00
H708   H     0.00687   0.50696   0.55345   0.00000  Uiso   1.00
H709   H     0.22310   0.62186   0.40381   0.00000  Uiso   1.00
H710   H     0.23933   0.55643   0.42319   0.00000  Uiso   1.00
H711   H     0.27596   0.55196   0.37730   0.00000  Uiso   1.00
H712   H     0.13695   0.37098   0.42636   0.00000  Uiso   1.00
H713   H     0.19320   0.62901   0.57399   0.00000  Uiso   1.00
H714   H     0.13639   0.62924   0.42626   0.00000  Uiso   1.00
H715   H     0.19236   0.37060   0.57445   0.00000  Uiso   1.00
H716   H     0.11179   0.45118   0.37326   0.00000  Uiso   1.00
H717   H     0.22430   0.54686   0.62720   0.00000  Uiso   1.00
H718   H     0.02635   0.37595   0.63234   0.00000  Uiso   1.00
N719   N     0.16668   0.50001   0.61736   0.00000  Uiso   1.00
N720   N     0.16665   0.49999   0.38264   0.00000  Uiso   1.00
O721   O     0.16666   0.43989   0.53958   0.00000  Uiso   1.00
O722   O     0.16667   0.56011   0.46042   0.00000  Uiso   1.00
O723   O     0.16666   0.43988   0.46039   0.00000  Uiso   1.00
O724   O     0.16667   0.56012   0.53961   0.00000  Uiso   1.00
O725   O     0.09161   0.50000   0.53046   0.00000  Uiso   1.00
O726   O     0.24172   0.50000   0.46954   0.00000  Uiso   1.00
O727   O     0.09161   0.49999   0.45127   0.00000  Uiso   1.00
O728   O     0.24172   0.50001   0.54873   0.00000  Uiso   1.00
C729   C     0.49941   0.42077   0.50018   0.00000  Uiso   1.00
C730   C     0.51350   0.35453   0.54197   0.00000  Uiso   1.00
C731   C     0.49909   0.62386   0.49981   0.00000  Uiso   1.00
C732   C     0.49845   0.37609   0.50038   0.00000  Uiso   1.00
C733   C     0.46906   0.47290   0.35591   0.00000  Uiso   1.00
C734   C     0.53191   0.52637   0.64423   0.00000  Uiso   1.00
C735   C     0.46763   0.47294   0.63979   0.00000  Uiso   1.00
C736   C     0.53192   0.52732   0.36014   0.00000  Uiso   1.00
C737   C     0.43128   0.44021   0.61468   0.00000  Uiso   1.00
C738   C     0.37479   0.44223   0.62527   0.00000  Uiso   1.00
C739   C     0.35743   0.40446   0.65275   0.00000  Uiso   1.00
C740   C     0.49982   0.57922   0.49980   0.00000  Uiso   1.00
C741   C     0.56999   0.55877   0.38523   0.00000  Uiso   1.00
C742   C     0.55714   0.60382   0.37146   0.00000  Uiso   1.00
C743   C     0.59724   0.62530   0.34393   0.00000  Uiso   1.00
C744   C     0.40141   0.50006   0.48809   0.00000  Uiso   1.00
C745   C     0.59861   0.50083   0.51185   0.00000  Uiso   1.00
C746   C     0.34619   0.49970   0.48145   0.00000  Uiso   1.00
C747   C     0.65385   0.50279   0.51822   0.00000  Uiso   1.00
C748   C     0.48282   0.35474   0.45869   0.00000  Uiso   1.00
C749   C     0.51401   0.64521   0.54165   0.00000  Uiso   1.00
C750   C     0.48275   0.64537   0.45852   0.00000  Uiso   1.00
Cu751  Cu    0.50000   0.50001   0.54689   0.00000  Uiso   1.00
Cu752  Cu    0.50000   0.49999   0.45311   0.00000  Uiso   1.00
H753   H     0.65988   0.49635   0.44605   0.00000  Uiso   1.00
H754   H     0.38173   0.40149   0.35363   0.00000  Uiso   1.00
H755   H     0.65013   0.40750   0.65925   0.00000  Uiso   1.00
H756   H     0.36881   0.47079   0.64443   0.00000  Uiso   1.00
H757   H     0.34870   0.44308   0.59176   0.00000  Uiso   1.00
H758   H     0.42978   0.44203   0.57679   0.00000  Uiso   1.00
H759   H     0.44674   0.40946   0.62472   0.00000  Uiso   1.00
H760   H     0.63583   0.62604   0.36508   0.00000  Uiso   1.00
H761   H     0.59949   0.60927   0.64392   0.00000  Uiso   1.00
H762   H     0.58638   0.65758   0.33564   0.00000  Uiso   1.00
H763   H     0.51830   0.60544   0.35094   0.00000  Uiso   1.00
H764   H     0.34020   0.50696   0.55345   0.00000  Uiso   1.00
H765   H     0.55643   0.62186   0.40381   0.00000  Uiso   1.00
H766   H     0.57266   0.55643   0.42319   0.00000  Uiso   1.00
H767   H     0.60930   0.55196   0.37730   0.00000  Uiso   1.00
H768   H     0.47028   0.37098   0.42636   0.00000  Uiso   1.00
H769   H     0.52653   0.62901   0.57399   0.00000  Uiso   1.00
H770   H     0.46972   0.62924   0.42626   0.00000  Uiso   1.00
H771   H     0.52569   0.37060   0.57445   0.00000  Uiso   1.00
H772   H     0.44512   0.45118   0.37326   0.00000  Uiso   1.00
H773   H     0.55763   0.54686   0.62720   0.00000  Uiso   1.00
H774   H     0.35968   0.37595   0.63234   0.00000  Uiso   1.00
N775   N     0.50001   0.50001   0.61736   0.00000  Uiso   1.00
N776   N     0.49999   0.49999   0.38264   0.00000  Uiso   1.00
O777   O     0.50000   0.43989   0.53958   0.00000  Uiso   1.00
O778   O     0.50000   0.56011   0.46042   0.00000  Uiso   1.00
O779   O     0.50000   0.43988   0.46039   0.00000  Uiso   1.00
O780   O     0.50000   0.56012   0.53961   0.00000  Uiso   1.00
O781   O     0.42495   0.50000   0.53046   0.00000  Uiso   1.00
O782   O     0.57505   0.50000   0.46954   0.00000  Uiso   1.00
O783   O     0.42494   0.49999   0.45127   0.00000  Uiso   1.00
O784   O     0.57506   0.50001   0.54873   0.00000  Uiso   1.00
C785   C     0.83274   0.42077   0.50018   0.00000  Uiso   1.00
C786   C     0.84684   0.35453   0.54197   0.00000  Uiso   1.00
C787   C     0.83243   0.62386   0.49981   0.00000  Uiso   1.00
C788   C     0.83178   0.37609   0.50038   0.00000  Uiso   1.00
C789   C     0.80239   0.47290   0.35591   0.00000  Uiso   1.00
C790   C     0.86524   0.52637   0.64423   0.00000  Uiso   1.00
C791   C     0.80096   0.47294   0.63979   0.00000  Uiso   1.00
C792   C     0.86525   0.52732   0.36014   0.00000  Uiso   1.00
C793   C     0.76461   0.44021   0.61468   0.00000  Uiso   1.00
C794   C     0.70813   0.44223   0.62527   0.00000  Uiso   1.00
C795   C     0.69077   0.40446   0.65275   0.00000  Uiso   1.00
C796   C     0.83316   0.57922   0.49980   0.00000  Uiso   1.00
C797   C     0.90332   0.55877   0.38523   0.00000  Uiso   1.00
C798   C     0.89047   0.60382   0.37146   0.00000  Uiso   1.00
C799   C     0.93058   0.62530   0.34393   0.00000  Uiso   1.00
C800   C     0.73474   0.50006   0.48809   0.00000  Uiso   1.00
C801   C     0.93194   0.50083   0.51185   0.00000  Uiso   1.00
C802   C     0.67952   0.49970   0.48145   0.00000  Uiso   1.00
C803   C     0.98718   0.50279   0.51822   0.00000  Uiso   1.00
C804   C     0.81615   0.35474   0.45869   0.00000  Uiso   1.00
C805   C     0.84734   0.64521   0.54165   0.00000  Uiso   1.00
C806   C     0.81609   0.64537   0.45852   0.00000  Uiso   1.00
Cu807  Cu    0.83333   0.50001   0.54689   0.00000  Uiso   1.00
Cu808  Cu    0.83333   0.49999   0.45311   0.00000  Uiso   1.00
H809   H     0.99321   0.49635   0.44605   0.00000  Uiso   1.00
H810   H     0.71506   0.40149   0.35363   0.00000  Uiso   1.00
H811   H     0.98346   0.40750   0.65925   0.00000  Uiso   1.00
H812   H     0.70214   0.47079   0.64443   0.00000  Uiso   1.00
H813   H     0.68203   0.44308   0.59176   0.00000  Uiso   1.00
H814   H     0.76311   0.44203   0.57679   0.00000  Uiso   1.00
H815   H     0.78008   0.40946   0.62472   0.00000  Uiso   1.00
H816   H     0.96916   0.62604   0.36508   0.00000  Uiso   1.00
H817   H     0.93282   0.60927   0.64392   0.00000  Uiso   1.00
H818   H     0.91971   0.65758   0.33564   0.00000  Uiso   1.00
H819   H     0.85163   0.60544   0.35094   0.00000  Uiso   1.00
H820   H     0.67353   0.50696   0.55345   0.00000  Uiso   1.00
H821   H     0.88977   0.62186   0.40381   0.00000  Uiso   1.00
H822   H     0.90599   0.55643   0.42319   0.00000  Uiso   1.00
H823   H     0.94263   0.55196   0.37730   0.00000  Uiso   1.00
H824   H     0.80362   0.37098   0.42636   0.00000  Uiso   1.00
H825   H     0.85987   0.62901   0.57399   0.00000  Uiso   1.00
H826   H     0.80306   0.62924   0.42626   0.00000  Uiso   1.00
H827   H     0.85902   0.37060   0.57445   0.00000  Uiso   1.00
H828   H     0.77845   0.45118   0.37326   0.00000  Uiso   1.00
H829   H     0.89096   0.54686   0.62720   0.00000  Uiso   1.00
H830   H     0.69301   0.37595   0.63234   0.00000  Uiso   1.00
N831   N     0.83335   0.50001   0.61736   0.00000  Uiso   1.00
N832   N     0.83332   0.49999   0.38264   0.00000  Uiso   1.00
O833   O     0.83333   0.43989   0.53958   0.00000  Uiso   1.00
O834   O     0.83334   0.56011   0.46042   0.00000  Uiso   1.00
O835   O     0.83333   0.43988   0.46039   0.00000  Uiso   1.00
O836   O     0.83334   0.56012   0.53961   0.00000  Uiso   1.00
O837   O     0.75828   0.50000   0.53046   0.00000  Uiso   1.00
O838   O     0.90839   0.50000   0.46954   0.00000  Uiso   1.00
O839   O     0.75828   0.49999   0.45127   0.00000  Uiso   1.00
O840   O     0.90839   0.50001   0.54873   0.00000  Uiso   1.00
C841   C     0.16608   0.75410   0.50018   0.00000  Uiso   1.00
C842   C     0.18017   0.68787   0.54197   0.00000  Uiso   1.00
C843   C     0.16576   0.95719   0.49981   0.00000  Uiso   1.00
C844   C     0.16511   0.70943   0.50038   0.00000  Uiso   1.00
C845   C     0.13573   0.80623   0.35591   0.00000  Uiso   1.00
C846   C     0.19857   0.85971   0.64423   0.00000  Uiso   1.00
C847   C     0.13429   0.80627   0.63979   0.00000  Uiso   1.00
C848   C     0.19859   0.86066   0.36014   0.00000  Uiso   1.00
C849   C     0.09794   0.77354   0.61468   0.00000  Uiso   1.00
C850   C     0.04146   0.77556   0.62527   0.00000  Uiso   1.00
C851   C     0.02410   0.73780   0.65275   0.00000  Uiso   1.00
C852   C     0.16649   0.91255   0.49980   0.00000  Uiso   1.00
C853   C     0.23665   0.89211   0.38523   0.00000  Uiso   1.00
C854   C     0.22380   0.93716   0.37146   0.00000  Uiso   1.00
C855   C     0.26391   0.95863   0.34393   0.00000  Uiso   1.00
C856   C     0.06808   0.83339   0.48809   0.00000  Uiso   1.00
C857   C     0.26528   0.83416   0.51185   0.00000  Uiso   1.00
C858   C     0.01285   0.83303   0.48145   0.00000  Uiso   1.00
C859   C     0.32052   0.83612   0.51822   0.00000  Uiso   1.00
C860   C     0.14948   0.68807   0.45869   0.00000  Uiso   1.00
C861   C     0.18067   0.97854   0.54165   0.00000  Uiso   1.00
C862   C     0.14942   0.97871   0.45852   0.00000  Uiso   1.00
Cu863  Cu    0.16667   0.83334   0.54689   0.00000  Uiso   1.00
Cu864  Cu    0.16667   0.83333   0.45311   0.00000  Uiso   1.00
H865   H     0.32654   0.82968   0.44605   0.00000  Uiso   1.00
H866   H     0.04839   0.73483   0.35363   0.00000  Uiso   1.00
H867   H     0.31680   0.74084   0.65925   0.00000  Uiso   1.00
H868   H     0.03547   0.80412   0.64443   0.00000  Uiso   1.00
H869   H     0.01536   0.77642   0.59176   0.00000  Uiso   1.00
H870   H     0.09645   0.77536   0.57679   0.00000  Uiso   1.00
H871   H     0.11341   0.74280   0.62472   0.00000  Uiso   1.00
H872   H     0.30250   0.95938   0.36508   0.00000  Uiso   1.00
H873   H     0.26615   0.94260   0.64392   0.00000  Uiso   1.00
H874   H     0.25304   0.99091   0.33564   0.00000  Uiso   1.00
H875   H     0.18496   0.93877   0.35094   0.00000  Uiso   1.00
H876   H     0.00687   0.84029   0.55345   0.00000  Uiso   1.00
H877   H     0.22310   0.95519   0.40381   0.00000  Uiso   1.00
H878   H     0.23933   0.88976   0.42319   0.00000  Uiso   1.00
H879   H     0.27596   0.88529   0.37730   0.00000  Uiso   1.00
H880   H     0.13695   0.70431   0.42636   0.00000  Uiso   1.00
H881   H     0.19320   0.96234   0.57399   0.00000  Uiso   1.00
H882   H     0.13639   0.96257   0.42626   0.00000  Uiso   1.00
H883   H     0.19236   0.70393   0.57445   0.00000  Uiso   1.00
H884   H     0.11179   0.78451   0.37326   0.00000  Uiso   1.00
H885   H     0.22430   0.88019   0.62720   0.00000  Uiso   1.00
H886   H     0.02635   0.70928   0.63234   0.00000  Uiso   1.00
N887   N     0.16668   0.83334   0.61736   0.00000  Uiso   1.00
N888   N     0.16665   0.83332   0.38264   0.00000  Uiso   1.00
O889   O     0.16666   0.77322   0.53958   0.00000  Uiso   1.00
O890   O     0.16667   0.89345   0.46042   0.00000  Uiso   1.00
O891   O     0.16666   0.77321   0.46039   0.00000  Uiso   1.00
O892   O     0.16667   0.89346   0.53961   0.00000  Uiso   1.00
O893   O     0.09161   0.83334   0.53046   0.00000  Uiso   1.00
O894   O     0.24172   0.83333   0.46954   0.00000  Uiso   1.00
O895   O     0.09161   0.83333   0.45127   0.00000  Uiso   1.00
O896   O     0.24172   0.83334   0.54873   0.00000  Uiso   1.00
C897   C     0.49941   0.75410   0.50018   0.00000  Uiso   1.00
C898   C     0.51350   0.68787   0.54197   0.00000  Uiso   1.00
C899   C     0.49909   0.95719   0.49981   0.00000  Uiso   1.00
C900   C     0.49845   0.70943   0.50038   0.00000  Uiso   1.00
C901   C     0.46906   0.80623   0.35591   0.00000  Uiso   1.00
C902   C     0.53191   0.85971   0.64423   0.00000  Uiso   1.00
C903   C     0.46763   0.80627   0.63979   0.00000  Uiso   1.00
C904   C     0.53192   0.86066   0.36014   0.00000  Uiso   1.00
C905   C     0.43128   0.77354   0.61468   0.00000  Uiso   1.00
C906   C     0.37479   0.77556   0.62527   0.00000  Uiso   1.00
C907   C     0.35743   0.73780   0.65275   0.00000  Uiso   1.00
C908   C     0.49982   0.91255   0.49980   0.00000  Uiso   1.00
C909   C     0.56999   0.89211   0.38523   0.00000  Uiso   1.00
C910   C     0.55714   0.93716   0.37146   0.00000  Uiso   1.00
C911   C     0.59724   0.95863   0.34393   0.00000  Uiso   1.00
C912   C     0.40141   0.83339   0.48809   0.00000  Uiso   1.00
C913   C     0.59861   0.83416   0.51185   0.00000  Uiso   1.00
C914   C     0.34619   0.83303   0.48145   0.00000  Uiso   1.00
C915   C     0.65385   0.83612   0.51822   0.00000  Uiso   1.00
C916   C     0.48282   0.68807   0.45869   0.00000  Uiso   1.00
C917   C     0.51401   0.97854   0.54165   0.00000  Uiso   1.00
C918   C     0.48275   0.97871   0.45852   0.00000  Uiso   1.00
Cu919  Cu    0.50000   0.83334   0.54689   0.00000  Uiso   1.00
Cu920  Cu    0.50000   0.83333   0.45311   0.00000  Uiso   1.00
H921   H     0.65988   0.82968   0.44605   0.00000  Uiso   1.00
H922   H     0.38173   0.73483   0.35363   0.00000  Uiso   1.00
H923   H     0.65013   0.74084   0.65925   0.00000  Uiso   1.00
H924   H     0.36881   0.80412   0.64443   0.00000  Uiso   1.00
H925   H     0.34870   0.77642   0.59176   0.00000  Uiso   1.00
H926   H     0.42978   0.77536   0.57679   0.00000  Uiso   1.00
H927   H     0.44674   0.74280   0.62472   0.00000  Uiso   1.00
H928   H     0.63583   0.95938   0.36508   0.00000  Uiso   1.00
H929   H     0.59949   0.94260   0.64392   0.00000  Uiso   1.00
H930   H     0.58638   0.99091   0.33564   0.00000  Uiso   1.00
H931   H     0.51830   0.93877   0.35094   0.00000  Uiso   1.00
H932   H     0.34020   0.84029   0.55345   0.00000  Uiso   1.00
H933   H     0.55643   0.95519   0.40381   0.00000  Uiso   1.00
H934   H     0.57266   0.88976   0.42319   0.00000  Uiso   1.00
H935   H     0.60930   0.88529   0.37730   0.00000  Uiso   1.00
H936   H     0.47028   0.70431   0.42636   0.00000  Uiso   1.00
H937   H     0.52653   0.96234   0.57399   0.00000  Uiso   1.00
H938   H     0.46972   0.96257   0.42626   0.00000  Uiso   1.00
H939   H     0.52569   0.70393   0.57445   0.00000  Uiso   1.00
H940   H     0.44512   0.78451   0.37326   0.00000  Uiso   1.00
H941   H     0.55763   0.88019   0.62720   0.00000  Uiso   1.00
H942   H     0.35968   0.70928   0.63234   0.00000  Uiso   1.00
N943   N     0.50001   0.83334   0.61736   0.00000  Uiso   1.00
N944   N     0.49999   0.83332   0.38264   0.00000  Uiso   1.00
O945   O     0.50000   0.77322   0.53958   0.00000  Uiso   1.00
O946   O     0.50000   0.89345   0.46042   0.00000  Uiso   1.00
O947   O     0.50000   0.77321   0.46039   0.00000  Uiso   1.00
O948   O     0.50000   0.89346   0.53961   0.00000  Uiso   1.00
O949   O     0.42495   0.83334   0.53046   0.00000  Uiso   1.00
O950   O     0.57505   0.83333   0.46954   0.00000  Uiso   1.00
O951   O     0.42494   0.83333   0.45127   0.00000  Uiso   1.00
O952   O     0.57506   0.83334   0.54873   0.00000  Uiso   1.00
C953   C     0.83274   0.75410   0.50018   0.00000  Uiso   1.00
C954   C     0.84684   0.68787   0.54197   0.00000  Uiso   1.00
C955   C     0.83243   0.95719   0.49981   0.00000  Uiso   1.00
C956   C     0.83178   0.70943   0.50038   0.00000  Uiso   1.00
C957   C     0.80239   0.80623   0.35591   0.00000  Uiso   1.00
C958   C     0.86524   0.85971   0.64423   0.00000  Uiso   1.00
C959   C     0.80096   0.80627   0.63979   0.00000  Uiso   1.00
C960   C     0.86525   0.86066   0.36014   0.00000  Uiso   1.00
C961   C     0.76461   0.77354   0.61468   0.00000  Uiso   1.00
C962   C     0.70813   0.77556   0.62527   0.00000  Uiso   1.00
C963   C     0.69077   0.73780   0.65275   0.00000  Uiso   1.00
C964   C     0.83316   0.91255   0.49980   0.00000  Uiso   1.00
C965   C     0.90332   0.89211   0.38523   0.00000  Uiso   1.00
C966   C     0.89047   0.93716   0.37146   0.00000  Uiso   1.00
C967   C     0.93058   0.95863   0.34393   0.00000  Uiso   1.00
C968   C     0.73474   0.83339   0.48809   0.00000  Uiso   1.00
C969   C     0.93194   0.83416   0.51185   0.00000  Uiso   1.00
C970   C     0.67952   0.83303   0.48145   0.00000  Uiso   1.00
C971   C     0.98718   0.83612   0.51822   0.00000  Uiso   1.00
C972   C     0.81615   0.68807   0.45869   0.00000  Uiso   1.00
C973   C     0.84734   0.97854   0.54165   0.00000  Uiso   1.00
C974   C     0.81609   0.97871   0.45852   0.00000  Uiso   1.00
Cu975  Cu    0.83333   0.83334   0.54689   0.00000  Uiso   1.00
Cu976  Cu    0.83333   0.83333   0.45311   0.00000  Uiso   1.00
H977   H     0.99321   0.82968   0.44605   0.00000  Uiso   1.00
H978   H     0.71506   0.73483   0.35363   0.00000  Uiso   1.00
H979   H     0.98346   0.74084   0.65925   0.00000  Uiso   1.00
H980   H     0.70214   0.80412   0.64443   0.00000  Uiso   1.00
H981   H     0.68203   0.77642   0.59176   0.00000  Uiso   1.00
H982   H     0.76311   0.77536   0.57679   0.00000  Uiso   1.00
H983   H     0.78008   0.74280   0.62472   0.00000  Uiso   1.00
H984   H     0.96916   0.95938   0.36508   0.00000  Uiso   1.00
H985   H     0.93282   0.94260   0.64392   0.00000  Uiso   1.00
H986   H     0.91971   0.99091   0.33564   0.00000  Uiso   1.00
H987   H     0.85163   0.93877   0.35094   0.00000  Uiso   1.00
H988   H     0.67353   0.84029   0.55345   0.00000  Uiso   1.00
H989   H     0.88977   0.95519   0.40381   0.00000  Uiso   1.00
H990   H     0.90599   0.88976   0.42319   0.00000  Uiso   1.00
H991   H     0.94263   0.88529   0.37730   0.00000  Uiso   1.00
H992   H     0.80362   0.70431   0.42636   0.00000  Uiso   1.00
H993   H     0.85987   0.96234   0.57399   0.00000  Uiso   1.00
H994   H     0.80306   0.96257   0.42626   0.00000  Uiso   1.00
H995   H     0.85902   0.70393   0.57445   0.00000  Uiso   1.00
H996   H     0.77845   0.78451   0.37326   0.00000  Uiso   1.00
H997   H     0.89096   0.88019   0.62720   0.00000  Uiso   1.00
H998   H     0.69301   0.70928   0.63234   0.00000  Uiso   1.00
N999   N     0.83335   0.83334   0.61736   0.00000  Uiso   1.00
N1000  N     0.83332   0.83332   0.38264   0.00000  Uiso   1.00
O1001  O     0.83333   0.77322   0.53958   0.00000  Uiso   1.00
O1002  O     0.83334   0.89345   0.46042   0.00000  Uiso   1.00
O1003  O     0.83333   0.77321   0.46039   0.00000  Uiso   1.00
O1004  O     0.83334   0.89346   0.53961   0.00000  Uiso   1.00
O1005  O     0.75828   0.83334   0.53046   0.00000  Uiso   1.00
O1006  O     0.90839   0.83333   0.46954   0.00000  Uiso   1.00
O1007  O     0.75828   0.83333   0.45127   0.00000  Uiso   1.00
O1008  O     0.90839   0.83334   0.54873   0.00000  Uiso   1.00
C1009  C     0.16608   0.08744   0.83351   0.00000  Uiso   1.00
C1010  C     0.18017   0.02120   0.87530   0.00000  Uiso   1.00
C1011  C     0.16576   0.29053   0.83314   0.00000  Uiso   1.00
C1012  C     0.16511   0.04276   0.83372   0.00000  Uiso   1.00
C1013  C     0.13573   0.13957   0.68925   0.00000  Uiso   1.00
C1014  C     0.19857   0.19304   0.97756   0.00000  Uiso   1.00
C1015  C     0.13429   0.13960   0.97312   0.00000  Uiso   1.00
C1016  C     0.19859   0.19399   0.69347   0.00000  Uiso   1.00
C1017  C     0.09794   0.10688   0.94801   0.00000  Uiso   1.00
C1018  C     0.04146   0.10890   0.95860   0.00000  Uiso   1.00
C1019  C     0.02410   0.07113   0.98608   0.00000  Uiso   1.00
C1020  C     0.16649   0.24589   0.83313   0.00000  Uiso   1.00
C1021  C     0.23665   0.22544   0.71856   0.00000  Uiso   1.00
C1022  C     0.22380   0.27049   0.70480   0.00000  Uiso   1.00
C1023  C     0.26391   0.29197   0.67726   0.00000  Uiso   1.00
C1024  C     0.06808   0.16672   0.82142   0.00000  Uiso   1.00
C1025  C     0.26528   0.16750   0.84518   0.00000  Uiso   1.00
C1026  C     0.01285   0.16637   0.81479   0.00000  Uiso   1.00
C1027  C     0.32052   0.16946   0.85156   0.00000  Uiso   1.00
C1028  C     0.14948   0.02140   0.79203   0.00000  Uiso   1.00
C1029  C     0.18067   0.31187   0.87498   0.00000  Uiso   1.00
C1030  C     0.14942   0.31204   0.79185   0.00000  Uiso   1.00
Cu1031 Cu    0.16667   0.16667   0.88022   0.00000  Uiso   1.00
Cu1032 Cu    0.16667   0.16666   0.78645   0.00000  Uiso   1.00
H1033  H     0.32654   0.16301   0.77938   0.00000  Uiso   1.00
H1034  H     0.04839   0.06816   0.68696   0.00000  Uiso   1.00
H1035  H     0.31680   0.07417   0.99258   0.00000  Uiso   1.00
H1036  H     0.03547   0.13745   0.97776   0.00000  Uiso   1.00
H1037  H     0.01536   0.10975   0.92509   0.00000  Uiso   1.00
H1038  H     0.09645   0.10869   0.91013   0.00000  Uiso   1.00
H1039  H     0.11341   0.07613   0.95806   0.00000  Uiso   1.00
H1040  H     0.30250   0.29271   0.69841   0.00000  Uiso   1.00
H1041  H     0.26615   0.27593   0.97725   0.00000  Uiso   1.00
H1042  H     0.25304   0.32424   0.66897   0.00000  Uiso   1.00
H1043  H     0.18496   0.27211   0.68427   0.00000  Uiso   1.00
H1044  H     0.00687   0.17362   0.88678   0.00000  Uiso   1.00
H1045  H     0.22310   0.28853   0.73714   0.00000  Uiso   1.00
H1046  H     0.23933   0.22310   0.75653   0.00000  Uiso   1.00
H1047  H     0.27596   0.21862   0.71063   0.00000  Uiso   1.00
H1048  H     0.13695   0.03764   0.75970   0.00000  Uiso   1.00
H1049  H     0.19320   0.29567   0.90733   0.00000  Uiso   1.00
H1050  H     0.13639   0.29590   0.75960   0.00000  Uiso   1.00
H1051  H     0.19236   0.03727   0.90778   0.00000  Uiso   1.00
H1052  H     0.11179   0.11784   0.70659   0.00000  Uiso   1.00
H1053  H     0.22430   0.21353   0.96053   0.00000  Uiso   1.00
H1054  H     0.02635   0.04262   0.96567   0.00000  Uiso   1.00
N1055  N     0.16668   0.16668   0.95069   0.00000  Uiso   1.00
N1056  N     0.16665   0.16666   0.71597   0.00000  Uiso   1.00
O1057  O     0.16666   0.10655   0.87291   0.00000  Uiso   1.00
O1058  O     0.16667   0.22678   0.79375   0.00000  Uiso   1.00
O1059  O     0.16666   0.10654   0.79372   0.00000  Uiso   1.00
O1060  O     0.16667   0.22679   0.87294   0.00000  Uiso   1.00
O1061  O     0.09161   0.16667   0.86379   0.00000  Uiso   1.00
O1062  O     0.24172   0.16666   0.80288   0.00000  Uiso   1.00
O1063  O     0.09161   0.16666   0.78460   0.00000  Uiso   1.00
O1064  O     0.24172   0.16667   0.88207   0.00000  Uiso   1.00
C1065  C     0.49941   0.08744   0.83351   0.00000  Uiso   1.00
C1066  C     0.51350   0.02120   0.87530   0.00000  Uiso   1.00
C1067  C     0.49909   0.29053   0.83314   0.00000  Uiso   1.00
C1068  C     0.49845   0.04276   0.83372   0.00000  Uiso   1.00
C1069  C     0.46906   0.13957   0.68925   0.00000  Uiso   1.00
C1070  C     0.53191   0.19304   0.97756   0.00000  Uiso   1.00
C1071  C     0.46763   0.13960   0.97312   0.00000  Uiso   1.00
C1072  C     0.53192   0.19399   0.69347   0.00000  Uiso   1.00
C1073  C     0.43128   0.10688   0.94801   0.00000  Uiso   1.00
C1074  C     0.37479   0.10890   0.95860   0.00000  Uiso   1.00
C1075  C     0.35743   0.07113   0.98608   0.00000  Uiso   1.00
C1076  C     0.49982   0.24589   0.83313   0.00000  Uiso   1.00
C1077  C     0.56999   0.22544   0.71856   0.00000  Uiso   1.00
C1078  C     0.55714   0.27049   0.70480   0.00000  Uiso   1.00
C1079  C     0.59724   0.29197   0.67726   0.00000  Uiso   1.00
C1080  C     0.40141   0.16672   0.82142   0.00000  Uiso   1.00
C1081  C     0.59861   0.16750   0.84518   0.00000  Uiso   1.00
C1082  C     0.34619   0.16637   0.81479   0.00000  Uiso   1.00
C1083  C     0.65385   0.16946   0.85156   0.00000  Uiso   1.00
C1084  C     0.48282   0.02140   0.79203   0.00000  Uiso   1.00
C1085  C     0.51401   0.31187   0.87498   0.00000  Uiso   1.00
C1086  C     0.48275   0.31204   0.79185   0.00000  Uiso   1.00
Cu1087 Cu    0.50000   0.16667   0.88022   0.00000  Uiso   1.00
Cu1088 Cu    0.50000   0.16666   0.78645   0.00000  Uiso   1.00
H1089  H     0.65988   0.16301   0.77938   0.00000  Uiso   1.00
H1090  H     0.38173   0.06816   0.68696   0.00000  Uiso   1.00
H1091  H     0.65013   0.07417   0.99258   0.00000  Uiso   1.00
H1092  H     0.36881   0.13745   0.97776   0.00000  Uiso   1.00
H1093  H     0.34870   0.10975   0.92509   0.00000  Uiso   1.00
H1094  H     0.42978   0.10869   0.91013   0.00000  Uiso   1.00
H1095  H     0.44674   0.07613   0.95806   0.00000  Uiso   1.00
H1096  H     0.63583   0.29271   0.69841   0.00000  Uiso   1.00
H1097  H     0.59949   0.27593   0.97725   0.00000  Uiso   1.00
H1098  H     0.58638   0.32424   0.66897   0.00000  Uiso   1.00
H1099  H     0.51830   0.27211   0.68427   0.00000  Uiso   1.00
H1100  H     0.34020   0.17362   0.88678   0.00000  Uiso   1.00
H1101  H     0.55643   0.28853   0.73714   0.00000  Uiso   1.00
H1102  H     0.57266   0.22310   0.75653   0.00000  Uiso   1.00
H1103  H     0.60930   0.21862   0.71063   0.00000  Uiso   1.00
H1104  H     0.47028   0.03764   0.75970   0.00000  Uiso   1.00
H1105  H     0.52653   0.29567   0.90733   0.00000  Uiso   1.00
H1106  H     0.46972   0.29590   0.75960   0.00000  Uiso   1.00
H1107  H     0.52569   0.03727   0.90778   0.00000  Uiso   1.00
H1108  H     0.44512   0.11784   0.70659   0.00000  Uiso   1.00
H1109  H     0.55763   0.21353   0.96053   0.00000  Uiso   1.00
H1110  H     0.35968   0.04262   0.96567   0.00000  Uiso   1.00
N1111  N     0.50001   0.16668   0.95069   0.00000  Uiso   1.00
N1112  N     0.49999   0.16666   0.71597   0.00000  Uiso   1.00
O1113  O     0.50000   0.10655   0.87291   0.00000  Uiso   1.00
O1114  O     0.50000   0.22678   0.79375   0.00000  Uiso   1.00
O1115  O     0.50000   0.10654   0.79372   0.00000  Uiso   1.00
O1116  O     0.50000   0.22679   0.87294   0.00000  Uiso   1.00
O1117  O     0.42495   0.16667   0.86379   0.00000  Uiso   1.00
O1118  O     0.57505   0.16666   0.80288   0.00000  Uiso   1.00
O1119  O     0.42494   0.16666   0.78460   0.00000  Uiso   1.00
O1120  O     0.57506   0.16667   0.88207   0.00000  Uiso   1.00
C1121  C     0.83274   0.08744   0.83351   0.00000  Uiso   1.00
C1122  C     0.84684   0.02120   0.87530   0.00000  Uiso   1.00
C1123  C     0.83243   0.29053   0.83314   0.00000  Uiso   1.00
C1124  C     0.83178   0.04276   0.83372   0.00000  Uiso   1.00
C1125  C     0.80239   0.13957   0.68925   0.00000  Uiso   1.00
C1126  C     0.86524   0.19304   0.97756   0.00000  Uiso   1.00
C1127  C     0.80096   0.13960   0.97312   0.00000  Uiso   1.00
C1128  C     0.86525   0.19399   0.69347   0.00000  Uiso   1.00
C1129  C     0.76461   0.10688   0.94801   0.00000  Uiso   1.00
C1130  C     0.70813   0.10890   0.95860   0.00000  Uiso   1.00
C1131  C     0.69077   0.07113   0.98608   0.00000  Uiso   1.00
C1132  C     0.83316   0.24589   0.83313   0.00000  Uiso   1.00
C1133  C     0.90332   0.22544   0.71856   0.00000  Uiso   1.00
C1134  C     0.89047   0.27049   0.70480   0.00000  Uiso   1.00
C1135  C     0.93058   0.29197   0.67726   0.00000  Uiso   1.00
C1136  C     0.73474   0.16672   0.82142   0.00000  Uiso   1.00
C1137  C     0.93194   0.16750   0.84518   0.00000  Uiso   1.00
C1138  C     0.67952   0.16637   0.81479   0.00000  Uiso   1.00
C1139  C     0.98718   0.16946   0.85156   0.00000  Uiso   1.00
C1140  C     0.81615   0.02140   0.79203   0.00000  Uiso   1.00
C1141  C     0.84734   0.31187   0.87498   0.00000  Uiso   1.00
C1142  C     0.81609   0.31204   0.79185   0.00000  Uiso   1.00
Cu1143 Cu    0.83333   0.16667   0.88022   0.00000  Uiso   1.00
Cu1144 Cu    0.83333   0.16666   0.78645   0.00000  Uiso   1.00
H1145  H     0.99321   0.16301   0.77938   0.00000  Uiso   1.00
H1146  H     0.71506   0.06816   0.68696   0.00000  Uiso   1.00
H1147  H     0.98346   0.07417   0.99258   0.00000  Uiso   1.00
H1148  H     0.70214   0.13745   0.97776   0.00000  Uiso   1.00
H1149  H     0.68203   0.10975   0.92509   0.00000  Uiso   1.00
H1150  H     0.76311   0.10869   0.91013   0.00000  Uiso   1.00
H1151  H     0.78008   0.07613   0.95806   0.00000  Uiso   1.00
H1152  H     0.96916   0.29271   0.69841   0.00000  Uiso   1.00
H1153  H     0.93282   0.27593   0.97725   0.00000  Uiso   1.00
H1154  H     0.91971   0.32424   0.66897   0.00000  Uiso   1.00
H1155  H     0.85163   0.27211   0.68427   0.00000  Uiso   1.00
H1156  H     0.67353   0.17362   0.88678   0.00000  Uiso   1.00
H1157  H     0.88977   0.28853   0.73714   0.00000  Uiso   1.00
H1158  H     0.90599   0.22310   0.75653   0.00000  Uiso   1.00
H1159  H     0.94263   0.21862   0.71063   0.00000  Uiso   1.00
H1160  H     0.80362   0.03764   0.75970   0.00000  Uiso   1.00
H1161  H     0.85987   0.29567   0.90733   0.00000  Uiso   1.00
H1162  H     0.80306   0.29590   0.75960   0.00000  Uiso   1.00
H1163  H     0.85902   0.03727   0.90778   0.00000  Uiso   1.00
H1164  H     0.77845   0.11784   0.70659   0.00000  Uiso   1.00
H1165  H     0.89096   0.21353   0.96053   0.00000  Uiso   1.00
H1166  H     0.69301   0.04262   0.96567   0.00000  Uiso   1.00
N1167  N     0.83335   0.16668   0.95069   0.00000  Uiso   1.00
N1168  N     0.83332   0.16666   0.71597   0.00000  Uiso   1.00
O1169  O     0.83333   0.10655   0.87291   0.00000  Uiso   1.00
O1170  O     0.83334   0.22678   0.79375   0.00000  Uiso   1.00
O1171  O     0.83333   0.10654   0.79372   0.00000  Uiso   1.00
O1172  O     0.83334   0.22679   0.87294   0.00000  Uiso   1.00
O1173  O     0.75828   0.16667   0.86379   0.00000  Uiso   1.00
O1174  O     0.90839   0.16666   0.80288   0.00000  Uiso   1.00
O1175  O     0.75828   0.16666   0.78460   0.00000  Uiso   1.00
O1176  O     0.90839   0.16667   0.88207   0.00000  Uiso   1.00
C1177  C     0.16608   0.42077   0.83351   0.00000  Uiso   1.00
C1178  C     0.18017   0.35453   0.87530   0.00000  Uiso   1.00
C1179  C     0.16576   0.62386   0.83314   0.00000  Uiso   1.00
C1180  C     0.16511   0.37609   0.83372   0.00000  Uiso   1.00
C1181  C     0.13573   0.47290   0.68925   0.00000  Uiso   1.00
C1182  C     0.19857   0.52637   0.97756   0.00000  Uiso   1.00
C1183  C     0.13429   0.47294   0.97312   0.00000  Uiso   1.00
C1184  C     0.19859   0.52732   0.69347   0.00000  Uiso   1.00
C1185  C     0.09794   0.44021   0.94801   0.00000  Uiso   1.00
C1186  C     0.04146   0.44223   0.95860   0.00000  Uiso   1.00
C1187  C     0.02410   0.40446   0.98608   0.00000  Uiso   1.00
C1188  C     0.16649   0.57922   0.83313   0.00000  Uiso   1.00
C1189  C     0.23665   0.55877   0.71856   0.00000  Uiso   1.00
C1190  C     0.22380   0.60382   0.70480   0.00000  Uiso   1.00
C1191  C     0.26391   0.62530   0.67726   0.00000  Uiso   1.00
C1192  C     0.06808   0.50006   0.82142   0.00000  Uiso   1.00
C1193  C     0.26528   0.50083   0.84518   0.00000  Uiso   1.00
C1194  C     0.01285   0.49970   0.81479   0.00000  Uiso   1.00
C1195  C     0.32052   0.50279   0.85156   0.00000  Uiso   1.00
C1196  C     0.14948   0.35474   0.79203   0.00000  Uiso   1.00
C1197  C     0.18067   0.64521   0.87498   0.00000  Uiso   1.00
C1198  C     0.14942   0.64537   0.79185   0.00000  Uiso   1.00
Cu1199 Cu    0.16667   0.50001   0.88022   0.00000  Uiso   1.00
Cu1200 Cu    0.16667   0.49999   0.78645   0.00000  Uiso   1.00
H1201  H     0.32654   0.49635   0.77938   0.00000  Uiso   1.00
H1202  H     0.04839   0.40149   0.68696   0.00000  Uiso   1.00
H1203  H     0.31680   0.40750   0.99258   0.00000  Uiso   1.00
H1204  H     0.03547   0.47079   0.97776   0.00000  Uiso   1.00
H1205  H     0.01536   0.44308   0.92509   0.00000  Uiso   1.00
H1206  H     0.09645   0.44203   0.91013   0.00000  Uiso   1.00
H1207  H     0.11341   0.40946   0.95806   0.00000  Uiso   1.00
H1208  H     0.30250   0.62604   0.69841   0.00000  Uiso   1.00
H1209  H     0.26615   0.60927   0.97725   0.00000  Uiso   1.00
H1210  H     0.25304   0.65758   0.66897   0.00000  Uiso   1.00
H1211  H     0.18496   0.60544   0.68427   0.00000  Uiso   1.00
H1212  H     0.00687   0.50696   0.88678   0.00000  Uiso   1.00
H1213  H     0.22310   0.62186   0.73714   0.00000  Uiso   1.00
H1214  H     0.23933   0.55643   0.75653   0.00000  Uiso   1.00
H1215  H     0.27596   0.55196   0.71063   0.00000  Uiso   1.00
H1216  H     0.13695   0.37098   0.75970   0.00000  Uiso   1.00
H1217  H     0.19320   0.62901   0.90733   0.00000  Uiso   1.00
H1218  H     0.13639   0.62924   0.75960   0.00000  Uiso   1.00
H1219  H     0.19236   0.37060   0.90778   0.00000  Uiso   1.00
H1220  H     0.11179   0.45118   0.70659   0.00000  Uiso   1.00
H1221  H     0.22430   0.54686   0.96053   0.00000  Uiso   1.00
H1222  H     0.02635   0.37595   0.96567   0.00000  Uiso   1.00
N1223  N     0.16668   0.50001   0.95069   0.00000  Uiso   1.00
N1224  N     0.16665   0.49999   0.71597   0.00000  Uiso   1.00
O1225  O     0.16666   0.43989   0.87291   0.00000  Uiso   1.00
O1226  O     0.16667   0.56011   0.79375   0.00000  Uiso   1.00
O1227  O     0.16666   0.43988   0.79372   0.00000  Uiso   1.00
O1228  O     0.16667   0.56012   0.87294   0.00000  Uiso   1.00
O1229  O     0.09161   0.50000   0.86379   0.00000  Uiso   1.00
O1230  O     0.24172   0.50000   0.80288   0.00000  Uiso   1.00
O1231  O     0.09161   0.49999   0.78460   0.00000  Uiso   1.00
O1232  O     0.24172   0.50001   0.88207   0.00000  Uiso   1.00
C1233  C     0.49941   0.42077   0.83351   0.00000  Uiso   1.00
C1234  C     0.51350   0.35453   0.87530   0.00000  Uiso   1.00
C1235  C     0.49909   0.62386   0.83314   0.00000  Uiso   1.00
C1236  C     0.49845   0.37609   0.83372   0.00000  Uiso   1.00
C1237  C     0.46906   0.47290   0.68925   0.00000  Uiso   1.00
C1238  C     0.53191   0.52637   0.97756   0.00000  Uiso   1.00
C1239  C     0.46763   0.47294   0.97312   0.00000  Uiso   1.00
C1240  C     0.53192   0.52732   0.69347   0.00000  Uiso   1.00
C1241  C     0.43128   0.44021   0.94801   0.00000  Uiso   1.00
C1242  C     0.37479   0.44223   0.95860   0.00000  Uiso   1.00
C1243  C     0.35743   0.40446   0.98608   0.00000  Uiso   1.00
C1244  C     0.49982   0.57922   0.83313   0.00000  Uiso   1.00
C1245  C     0.56999   0.55877   0.71856   0.00000  Uiso   1.00
C1246  C     0.55714   0.60382   0.70480   0.00000  Uiso   1.00
C1247  C     0.59724   0.62530   0.67726   0.00000  Uiso   1.00
C1248  C     0.40141   0.50006   0.82142   0.00000  Uiso   1.00
C1249  C     0.59861   0.50083   0.84518   0.00000  Uiso   1.00
C1250  C     0.34619   0.49970   0.81479   0.00000  Uiso   1.00
C1251  C     0.65385   0.50279   0.85156   0.00000  Uiso   1.00
C1252  C     0.48282   0.35474   0.79203   0.00000  Uiso   1.00
C1253  C     0.51401   0.64521   0.87498   0.00000  Uiso   1.00
C1254  C     0.48275   0.64537   0.79185   0.00000  Uiso   1.00
Cu1255 Cu    0.50000   0.50001   0.88022   0.00000  Uiso   1.00
Cu1256 Cu    0.50000   0.49999   0.78645   0.00000  Uiso   1.00
H1257  H     0.65988   0.49635   0.77938   0.00000  Uiso   1.00
H1258  H     0.38173   0.40149   0.68696   0.00000  Uiso   1.00
H1259  H     0.65013   0.40750   0.99258   0.00000  Uiso   1.00
H1260  H     0.36881   0.47079   0.97776   0.00000  Uiso   1.00
H1261  H     0.34870   0.44308   0.92509   0.00000  Uiso   1.00
H1262  H     0.42978   0.44203   0.91013   0.00000  Uiso   1.00
H1263  H     0.44674   0.40946   0.95806   0.00000  Uiso   1.00
H1264  H     0.63583   0.62604   0.69841   0.00000  Uiso   1.00
H1265  H     0.59949   0.60927   0.97725   0.00000  Uiso   1.00
H1266  H     0.58638   0.65758   0.66897   0.00000  Uiso   1.00
H1267  H     0.51830   0.60544   0.68427   0.00000  Uiso   1.00
H1268  H     0.34020   0.50696   0.88678   0.00000  Uiso   1.00
H1269  H     0.55643   0.62186   0.73714   0.00000  Uiso   1.00
H1270  H     0.57266   0.55643   0.75653   0.00000  Uiso   1.00
H1271  H     0.60930   0.55196   0.71063   0.00000  Uiso   1.00
H1272  H     0.47028   0.37098   0.75970   0.00000  Uiso   1.00
H1273  H     0.52653   0.62901   0.90733   0.00000  Uiso   1.00
H1274  H     0.46972   0.62924   0.75960   0.00000  Uiso   1.00
H1275  H     0.52569   0.37060   0.90778   0.00000  Uiso   1.00
H1276  H     0.44512   0.45118   0.70659   0.00000  Uiso   1.00
H1277  H     0.55763   0.54686   0.96053   0.00000  Uiso   1.00
H1278  H     0.35968   0.37595   0.96567   0.00000  Uiso   1.00
N1279  N     0.50001   0.50001   0.95069   0.00000  Uiso   1.00
N1280  N     0.49999   0.49999   0.71597   0.00000  Uiso   1.00
O1281  O     0.50000   0.43989   0.87291   0.00000  Uiso   1.00
O1282  O     0.50000   0.56011   0.79375   0.00000  Uiso   1.00
O1283  O     0.50000   0.43988   0.79372   0.00000  Uiso   1.00
O1284  O     0.50000   0.56012   0.87294   0.00000  Uiso   1.00
O1285  O     0.42495   0.50000   0.86379   0.00000  Uiso   1.00
O1286  O     0.57505   0.50000   0.80288   0.00000  Uiso   1.00
O1287  O     0.42494   0.49999   0.78460   0.00000  Uiso   1.00
O1288  O     0.57506   0.50001   0.88207   0.00000  Uiso   1.00
C1289  C     0.83274   0.42077   0.83351   0.00000  Uiso   1.00
C1290  C     0.84684   0.35453   0.87530   0.00000  Uiso   1.00
C1291  C     0.83243   0.62386   0.83314   0.00000  Uiso   1.00
C1292  C     0.83178   0.37609   0.83372   0.00000  Uiso   1.00
C1293  C     0.80239   0.47290   0.68925   0.00000  Uiso   1.00
C1294  C     0.86524   0.52637   0.97756   0.00000  Uiso   1.00
C1295  C     0.80096   0.47294   0.97312   0.00000  Uiso   1.00
C1296  C     0.86525   0.52732   0.69347   0.00000  Uiso   1.00
C1297  C     0.76461   0.44021   0.94801   0.00000  Uiso   1.00
C1298  C     0.70813   0.44223   0.95860   0.00000  Uiso   1.00
C1299  C     0.69077   0.40446   0.98608   0.00000  Uiso   1.00
C1300  C     0.83316   0.57922   0.83313   0.00000  Uiso   1.00
C1301  C     0.90332   0.55877   0.71856   0.00000  Uiso   1.00
C1302  C     0.89047   0.60382   0.70480   0.00000  Uiso   1.00
C1303  C     0.93058   0.62530   0.67726   0.00000  Uiso   1.00
C1304  C     0.73474   0.50006   0.82142   0.00000  Uiso   1.00
C1305  C     0.93194   0.50083   0.84518   0.00000  Uiso   1.00
C1306  C     0.67952   0.49970   0.81479   0.00000  Uiso   1.00
C1307  C     0.98718   0.50279   0.85156   0.00000  Uiso   1.00
C1308  C     0.81615   0.35474   0.79203   0.00000  Uiso   1.00
C1309  C     0.84734   0.64521   0.87498   0.00000  Uiso   1.00
C1310  C     0.81609   0.64537   0.79185   0.00000  Uiso   1.00
Cu1311 Cu    0.83333   0.50001   0.88022   0.00000  Uiso   1.00
Cu1312 Cu    0.83333   0.49999   0.78645   0.00000  Uiso   1.00
H1313  H     0.99321   0.49635   0.77938   0.00000  Uiso   1.00
H1314  H     0.71506   0.40149   0.68696   0.00000  Uiso   1.00
H1315  H     0.98346   0.40750   0.99258   0.00000  Uiso   1.00
H1316  H     0.70214   0.47079   0.97776   0.00000  Uiso   1.00
H1317  H     0.68203   0.44308   0.92509   0.00000  Uiso   1.00
H1318  H     0.76311   0.44203   0.91013   0.00000  Uiso   1.00
H1319  H     0.78008   0.40946   0.95806   0.00000  Uiso   1.00
H1320  H     0.96916   0.62604   0.69841   0.00000  Uiso   1.00
H1321  H     0.93282   0.60927   0.97725   0.00000  Uiso   1.00
H1322  H     0.91971   0.65758   0.66897   0.00000  Uiso   1.00
H1323  H     0.85163   0.60544   0.68427   0.00000  Uiso   1.00
H1324  H     0.67353   0.50696   0.88678   0.00000  Uiso   1.00
H1325  H     0.88977   0.62186   0.73714   0.00000  Uiso   1.00
H1326  H     0.90599   0.55643   0.75653   0.00000  Uiso   1.00
H1327  H     0.94263   0.55196   0.71063   0.00000  Uiso   1.00
H1328  H     0.80362   0.37098   0.75970   0.00000  Uiso   1.00
H1329  H     0.85987   0.62901   0.90733   0.00000  Uiso   1.00
H1330  H     0.80306   0.62924   0.75960   0.00000  Uiso   1.00
H1331  H     0.85902   0.37060   0.90778   0.00000  Uiso   1.00
H1332  H     0.77845   0.45118   0.70659   0.00000  Uiso   1.00
H1333  H     0.89096   0.54686   0.96053   0.00000  Uiso   1.00
H1334  H     0.69301   0.37595   0.96567   0.00000  Uiso   1.00
N1335  N     0.83335   0.50001   0.95069   0.00000  Uiso   1.00
N1336  N     0.83332   0.49999   0.71597   0.00000  Uiso   1.00
O1337  O     0.83333   0.43989   0.87291   0.00000  Uiso   1.00
O1338  O     0.83334   0.56011   0.79375   0.00000  Uiso   1.00
O1339  O     0.83333   0.43988   0.79372   0.00000  Uiso   1.00
O1340  O     0.83334   0.56012   0.87294   0.00000  Uiso   1.00
O1341  O     0.75828   0.50000   0.86379   0.00000  Uiso   1.00
O1342  O     0.90839   0.50000   0.80288   0.00000  Uiso   1.00
O1343  O     0.75828   0.49999   0.78460   0.00000  Uiso   1.00
O1344  O     0.90839   0.50001   0.88207   0.00000  Uiso   1.00
C1345  C     0.16608   0.75410   0.83351   0.00000  Uiso   1.00
C1346  C     0.18017   0.68787   0.87530   0.00000  Uiso   1.00
C1347  C     0.16576   0.95719   0.83314   0.00000  Uiso   1.00
C1348  C     0.16511   0.70943   0.83372   0.00000  Uiso   1.00
C1349  C     0.13573   0.80623   0.68925   0.00000  Uiso   1.00
C1350  C     0.19857   0.85971   0.97756   0.00000  Uiso   1.00
C1351  C     0.13429   0.80627   0.97312   0.00000  Uiso   1.00
C1352  C     0.19859   0.86066   0.69347   0.00000  Uiso   1.00
C1353  C     0.09794   0.77354   0.94801   0.00000  Uiso   1.00
C1354  C     0.04146   0.77556   0.95860   0.00000  Uiso   1.00
C1355  C     0.02410   0.73780   0.98608   0.00000  Uiso   1.00
C1356  C     0.16649   0.91255   0.83313   0.00000  Uiso   1.00
C1357  C     0.23665   0.89211   0.71856   0.00000  Uiso   1.00
C1358  C     0.22380   0.93716   0.70480   0.00000  Uiso   1.00
C1359  C     0.26391   0.95863   0.67726   0.00000  Uiso   1.00
C1360  C     0.06808   0.83339   0.82142   0.00000  Uiso   1.00
C1361  C     0.26528   0.83416   0.84518   0.00000  Uiso   1.00
C1362  C     0.01285   0.83303   0.81479   0.00000  Uiso   1.00
C1363  C     0.32052   0.83612   0.85156   0.00000  Uiso   1.00
C1364  C     0.14948   0.68807   0.79203   0.00000  Uiso   1.00
C1365  C     0.18067   0.97854   0.87498   0.00000  Uiso   1.00
C1366  C     0.14942   0.97871   0.79185   0.00000  Uiso   1.00
Cu1367 Cu    0.16667   0.83334   0.88022   0.00000  Uiso   1.00
Cu1368 Cu    0.16667   0.83333   0.78645   0.00000  Uiso   1.00
H1369  H     0.32654   0.82968   0.77938   0.00000  Uiso   1.00
H1370  H     0.04839   0.73483   0.68696   0.00000  Uiso   1.00
H1371  H     0.31680   0.74084   0.99258   0.00000  Uiso   1.00
H1372  H     0.03547   0.80412   0.97776   0.00000  Uiso   1.00
H1373  H     0.01536   0.77642   0.92509   0.00000  Uiso   1.00
H1374  H     0.09645   0.77536   0.91013   0.00000  Uiso   1.00
H1375  H     0.11341   0.74280   0.95806   0.00000  Uiso   1.00
H1376  H     0.30250   0.95938   0.69841   0.00000  Uiso   1.00
H1377  H     0.26615   0.94260   0.97725   0.00000  Uiso   1.00
H1378  H     0.25304   0.99091   0.66897   0.00000  Uiso   1.00
H1379  H     0.18496   0.93877   0.68427   0.00000  Uiso   1.00
H1380  H     0.00687   0.84029   0.88678   0.00000  Uiso   1.00
H1381  H     0.22310   0.95519   0.73714   0.00000  Uiso   1.00
H1382  H     0.23933   0.88976   0.75653   0.00000  Uiso   1.00
H1383  H     0.27596   0.88529   0.71063   0.00000  Uiso   1.00
H1384  H     0.13695   0.70431   0.75970   0.00000  Uiso   1.00
H1385  H     0.19320   0.96234   0.90733   0.00000  Uiso   1.00
H1386  H     0.13639   0.96257   0.75960   0.00000  Uiso   1.00
H1387  H     0.19236   0.70393   0.90778   0.00000  Uiso   1.00
H1388  H     0.11179   0.78451   0.70659   0.00000  Uiso   1.00
H1389  H     0.22430   0.88019   0.96053   0.00000  Uiso   1.00
H1390  H     0.02635   0.70928   0.96567   0.00000  Uiso   1.00
N1391  N     0.16668   0.83334   0.95069   0.00000  Uiso   1.00
N1392  N     0.16665   0.83332   0.71597   0.00000  Uiso   1.00
O1393  O     0.16666   0.77322   0.87291   0.00000  Uiso   1.00
O1394  O     0.16667   0.89345   0.79375   0.00000  Uiso   1.00
O1395  O     0.16666   0.77321   0.79372   0.00000  Uiso   1.00
O1396  O     0.16667   0.89346   0.87294   0.00000  Uiso   1.00
O1397  O     0.09161   0.83334   0.86379   0.00000  Uiso   1.00
O1398  O     0.24172   0.83333   0.80288   0.00000  Uiso   1.00
O1399  O     0.09161   0.83333   0.78460   0.00000  Uiso   1.00
O1400  O     0.24172   0.83334   0.88207   0.00000  Uiso   1.00
C1401  C     0.49941   0.75410   0.83351   0.00000  Uiso   1.00
C1402  C     0.51350   0.68787   0.87530   0.00000  Uiso   1.00
C1403  C     0.49909   0.95719   0.83314   0.00000  Uiso   1.00
C1404  C     0.49845   0.70943   0.83372   0.00000  Uiso   1.00
C1405  C     0.46906   0.80623   0.68925   0.00000  Uiso   1.00
C1406  C     0.53191   0.85971   0.97756   0.00000  Uiso   1.00
C1407  C     0.46763   0.80627   0.97312   0.00000  Uiso   1.00
C1408  C     0.53192   0.86066   0.69347   0.00000  Uiso   1.00
C1409  C     0.43128   0.77354   0.94801   0.00000  Uiso   1.00
C1410  C     0.37479   0.77556   0.95860   0.00000  Uiso   1.00
C1411  C     0.35743   0.73780   0.98608   0.00000  Uiso   1.00
C1412  C     0.49982   0.91255   0.83313   0.00000  Uiso   1.00
C1413  C     0.56999   0.89211   0.71856   0.00000  Uiso   1.00
C1414  C     0.55714   0.93716   0.70480   0.00000  Uiso   1.00
C1415  C     0.59724   0.95863   0.67726   0.00000  Uiso   1.00
C1416  C     0.40141   0.83339   0.82142   0.00000  Uiso   1.00
C1417  C     0.59861   0.83416   0.84518   0.00000  Uiso   1.00
C1418  C     0.34619   0.83303   0.81479   0.00000  Uiso   1.00
C1419  C     0.65385   0.83612   0.85156   0.00000  Uiso   1.00
C1420  C     0.48282   0.68807   0.79203   0.00000  Uiso   1.00
C1421  C     0.51401   0.97854   0.87498   0.00000  Uiso   1.00
C1422  C     0.48275   0.97871   0.79185   0.00000  Uiso   1.00
Cu1423 Cu    0.50000   0.83334   0.88022   0.00000  Uiso   1.00
Cu1424 Cu    0.50000   0.83333   0.78645   0.00000  Uiso   1.00
H1425  H     0.65988   0.82968   0.77938   0.00000  Uiso   1.00
H1426  H     0.38173   0.73483   0.68696   0.00000  Uiso   1.00
H1427  H     0.65013   0.74084   0.99258   0.00000  Uiso   1.00
H1428  H     0.36881   0.80412   0.97776   0.00000  Uiso   1.00
H1429  H     0.34870   0.77642   0.92509   0.00000  Uiso   1.00
H1430  H     0.42978   0.77536   0.91013   0.00000  Uiso   1.00
H1431  H     0.44674   0.74280   0.95806   0.00000  Uiso   1.00
H1432  H     0.63583   0.95938   0.69841   0.00000  Uiso   1.00
H1433  H     0.59949   0.94260   0.97725   0.00000  Uiso   1.00
H1434  H     0.58638   0.99091   0.66897   0.00000  Uiso   1.00
H1435  H     0.51830   0.93877   0.68427   0.00000  Uiso   1.00
H1436  H     0.34020   0.84029   0.88678   0.00000  Uiso   1.00
H1437  H     0.55643   0.95519   0.73714   0.00000  Uiso   1.00
H1438  H     0.57266   0.88976   0.75653   0.00000  Uiso   1.00
H1439  H     0.60930   0.88529   0.71063   0.00000  Uiso   1.00
H1440  H     0.47028   0.70431   0.75970   0.00000  Uiso   1.00
H1441  H     0.52653   0.96234   0.90733   0.00000  Uiso   1.00
H1442  H     0.46972   0.96257   0.75960   0.00000  Uiso   1.00
H1443  H     0.52569   0.70393   0.90778   0.00000  Uiso   1.00
H1444  H     0.44512   0.78451   0.70659   0.00000  Uiso   1.00
H1445  H     0.55763   0.88019   0.96053   0.00000  Uiso   1.00
H1446  H     0.35968   0.70928   0.96567   0.00000  Uiso   1.00
N1447  N     0.50001   0.83334   0.95069   0.00000  Uiso   1.00
N1448  N     0.49999   0.83332   0.71597   0.00000  Uiso   1.00
O1449  O     0.50000   0.77322   0.87291   0.00000  Uiso   1.00
O1450  O     0.50000   0.89345   0.79375   0.00000  Uiso   1.00
O1451  O     0.50000   0.77321   0.79372   0.00000  Uiso   1.00
O1452  O     0.50000   0.89346   0.87294   0.00000  Uiso   1.00
O1453  O     0.42495   0.83334   0.86379   0.00000  Uiso   1.00
O1454  O     0.57505   0.83333   0.80288   0.00000  Uiso   1.00
O1455  O     0.42494   0.83333   0.78460   0.00000  Uiso   1.00
O1456  O     0.57506   0.83334   0.88207   0.00000  Uiso   1.00
C1457  C     0.83274   0.75410   0.83351   0.00000  Uiso   1.00
C1458  C     0.84684   0.68787   0.87530   0.00000  Uiso   1.00
C1459  C     0.83243   0.95719   0.83314   0.00000  Uiso   1.00
C1460  C     0.83178   0.70943   0.83372   0.00000  Uiso   1.00
C1461  C     0.80239   0.80623   0.68925   0.00000  Uiso   1.00
C1462  C     0.86524   0.85971   0.97756   0.00000  Uiso   1.00
C1463  C     0.80096   0.80627   0.97312   0.00000  Uiso   1.00
C1464  C     0.86525   0.86066   0.69347   0.00000  Uiso   1.00
C1465  C     0.76461   0.77354   0.94801   0.00000  Uiso   1.00
C1466  C     0.70813   0.77556   0.95860   0.00000  Uiso   1.00
C1467  C     0.69077   0.73780   0.98608   0.00000  Uiso   1.00
C1468  C     0.83316   0.91255   0.83313   0.00000  Uiso   1.00
C1469  C     0.90332   0.89211   0.71856   0.00000  Uiso   1.00
C1470  C     0.89047   0.93716   0.70480   0.00000  Uiso   1.00
C1471  C     0.93058   0.95863   0.67726   0.00000  Uiso   1.00
C1472  C     0.73474   0.83339   0.82142   0.00000  Uiso   1.00
C1473  C     0.93194   0.83416   0.84518   0.00000  Uiso   1.00
C1474  C     0.67952   0.83303   0.81479   0.00000  Uiso   1.00
C1475  C     0.98718   0.83612   0.85156   0.00000  Uiso   1.00
C1476  C     0.81615   0.68807   0.79203   0.00000  Uiso   1.00
C1477  C     0.84734   0.97854   0.87498   0.00000  Uiso   1.00
C1478  C     0.81609   0.97871   0.79185   0.00000  Uiso   1.00
Cu1479 Cu    0.83333   0.83334   0.88022   0.00000  Uiso   1.00
Cu1480 Cu    0.83333   0.83333   0.78645   0.00000  Uiso   1.00
H1481  H     0.99321   0.82968   0.77938   0.00000  Uiso   1.00
H1482  H     0.71506   0.73483   0.68696   0.00000  Uiso   1.00
H1483  H     0.98346   0.74084   0.99258   0.00000  Uiso   1.00
H1484  H     0.70214   0.80412   0.97776   0.00000  Uiso   1.00
H1485  H     0.68203   0.77642   0.92509   0.00000  Uiso   1.00
H1486  H     0.76311   0.77536   0.91013   0.00000  Uiso   1.00
H1487  H     0.78008   0.74280   0.95806   0.00000  Uiso   1.00
H1488  H     0.96916   0.95938   0.69841   0.00000  Uiso   1.00
H1489  H     0.93282   0.94260   0.97725   0.00000  Uiso   1.00
H1490  H     0.91971   0.99091   0.66897   0.00000  Uiso   1.00
H1491  H     0.85163   0.93877   0.68427   0.00000  Uiso   1.00
H1492  H     0.67353   0.84029   0.88678   0.00000  Uiso   1.00
H1493  H     0.88977   0.95519   0.73714   0.00000  Uiso   1.00
H1494  H     0.90599   0.88976   0.75653   0.00000  Uiso   1.00
H1495  H     0.94263   0.88529   0.71063   0.00000  Uiso   1.00
H1496  H     0.80362   0.70431   0.75970   0.00000  Uiso   1.00
H1497  H     0.85987   0.96234   0.90733   0.00000  Uiso   1.00
H1498  H     0.80306   0.96257   0.75960   0.00000  Uiso   1.00
H1499  H     0.85902   0.70393   0.90778   0.00000  Uiso   1.00
H1500  H     0.77845   0.78451   0.70659   0.00000  Uiso   1.00
H1501  H     0.89096   0.88019   0.96053   0.00000  Uiso   1.00
H1502  H     0.69301   0.70928   0.96567   0.00000  Uiso   1.00
N1503  N     0.83335   0.83334   0.95069   0.00000  Uiso   1.00
N1504  N     0.83332   0.83332   0.71597   0.00000  Uiso   1.00
O1505  O     0.83333   0.77322   0.87291   0.00000  Uiso   1.00
O1506  O     0.83334   0.89345   0.79375   0.00000  Uiso   1.00
O1507  O     0.83333   0.77321   0.79372   0.00000  Uiso   1.00
O1508  O     0.83334   0.89346   0.87294   0.00000  Uiso   1.00
O1509  O     0.75828   0.83334   0.86379   0.00000  Uiso   1.00
O1510  O     0.90839   0.83333   0.80288   0.00000  Uiso   1.00
O1511  O     0.75828   0.83333   0.78460   0.00000  Uiso   1.00
O1512  O     0.90839   0.83334   0.88207   0.00000  Uiso   1.00
loop_
_geom_bond_atom_site_label_1
_geom_bond_atom_site_label_2
_geom_bond_distance
_geom_bond_site_symmetry_2
_ccdc_geom_bond_type
C1     C4      1.447   .     S
C1     O51     1.295   .     A
C1     O49     1.300   .     A
C2     C4      1.399   .     A
C2     H43     1.084   .     S
C2     C357    1.384   1_545 S
C3     C21     1.403   .     A
C3     C22     1.398   .     A
C3     C12     1.448   .     S
C4     C20     1.402   .     A
C5     H44     1.079   .     S
C5     N48     1.349   .     A
C5     C1015   1.420   1_554 S
C6     H45     1.080   .     S
C6     N47     1.350   .     A
C6     C512    1.419   .     S
C7     C9      1.522   .     S
C7     N47     1.399   .     A
C7     C509    1.420   .     S
C8     N48     1.398   .     A
C8     C13     1.519   .     S
C8     C1014   1.419   1_554 S
C9     C10     1.549   .     S
C9     H30     1.087   .     S
C9     H31     1.112   .     S
C10    H29     1.111   .     S
C10    C11     1.530   .     S
C10    H28     1.112   .     S
C11    H46     1.111   .     S
C11    H530    1.109   .     S
C11    H139    1.111   1_455 S
C12    O50     1.301   .     A
C12    O52     1.294   .     A
C13    C14     1.547   .     S
C13    H38     1.088   .     S
C13    H39     1.113   .     S
C14    H37     1.110   .     S
C14    H35     1.112   .     S
C14    C15     1.529   .     S
C15    H34     1.111   .     S
C15    H32     1.111   .     S
C15    H1041   1.108   1_554 S
C16    O55     1.291   .     A
C16    C18     1.432   .     S
C16    O53     1.296   .     A
C17    O56     1.292   .     A
C17    C19     1.432   .     S
C17    O54     1.295   .     A
C18    C131    1.330   1_455 S
C18    H137    1.088   1_455 S
C19    C74     1.330   .     S
C19    H92     1.086   .     S
C20    H40     1.084   .     S
C20    C358    1.384   1_545 S
C21    H41     1.083   .     S
C21    C170    1.384   .     S
C22    H42     1.083   .     S
C22    C188    1.384   .     S
Cu23   Cu24    2.700   .     S
Cu23   O52     1.957   .     S
Cu23   O53     1.960   .     S
Cu23   O49     1.964   .     S
Cu23   O56     1.957   .     S
Cu23   N47     2.029   .     S
Cu24   O51     1.957   .     S
Cu24   O55     1.957   .     S
Cu24   O50     1.964   .     S
Cu24   O54     1.960   .     S
Cu24   N48     2.029   .     S
H25    C74     1.088   .     S
H26    C1019   1.109   1_554 S
H27    C67     1.111   .     S
H33    C519    1.108   .     S
H36    C131    1.086   1_455 S
C57    C60     1.447   .     S
C57    O107    1.295   .     A
C57    O105    1.300   .     A
C58    C60     1.399   .     A
C58    H99     1.084   .     S
C58    C413    1.384   1_545 S
C59    C77     1.403   .     A
C59    C78     1.398   .     A
C59    C68     1.448   .     S
C60    C76     1.402   .     A
C61    H100    1.079   .     S
C61    N104    1.349   .     A
C61    C1071   1.420   1_554 S
C62    H101    1.080   .     S
C62    N103    1.350   .     A
C62    C568    1.419   .     S
C63    C65     1.522   .     S
C63    N103    1.399   .     A
C63    C565    1.420   .     S
C64    N104    1.398   .     A
C64    C69     1.519   .     S
C64    C1070   1.419   1_554 S
C65    C66     1.549   .     S
C65    H86     1.087   .     S
C65    H87     1.112   .     S
C66    H85     1.111   .     S
C66    C67     1.530   .     S
C66    H84     1.112   .     S
C67    H102    1.111   .     S
C67    H586    1.109   .     S
C68    O106    1.301   .     A
C68    O108    1.294   .     A
C69    C70     1.547   .     S
C69    H94     1.088   .     S
C69    H95     1.113   .     S
C70    H93     1.110   .     S
C70    H91     1.112   .     S
C70    C71     1.529   .     S
C71    H90     1.111   .     S
C71    H88     1.111   .     S
C71    H1097   1.108   1_554 S
C72    O111    1.291   .     A
C72    C74     1.432   .     S
C72    O109    1.296   .     A
C73    O112    1.292   .     A
C73    C75     1.432   .     S
C73    O110    1.295   .     A
C75    C130    1.330   .     S
C75    H148    1.086   .     S
C76    H96     1.084   .     S
C76    C414    1.384   1_545 S
C77    H97     1.083   .     S
C77    C226    1.384   .     S
C78    H98     1.083   .     S
C78    C244    1.384   .     S
Cu79   Cu80    2.700   .     S
Cu79   O108    1.957   .     S
Cu79   O109    1.960   .     S
Cu79   O105    1.964   .     S
Cu79   O112    1.957   .     S
Cu79   N103    2.029   .     S
Cu80   O107    1.957   .     S
Cu80   O111    1.957   .     S
Cu80   O106    1.964   .     S
Cu80   O110    1.960   .     S
Cu80   N104    2.029   .     S
H81    C130    1.088   .     S
H82    C1075   1.109   1_554 S
H83    C123    1.111   .     S
H89    C575    1.108   .     S
C113   C116    1.447   .     S
C113   O163    1.295   .     A
C113   O161    1.300   .     A
C114   C116    1.399   .     A
C114   H155    1.084   .     S
C114   C469    1.384   1_545 S
C115   C133    1.403   .     A
C115   C134    1.398   .     A
C115   C124    1.448   .     S
C116   C132    1.402   .     A
C117   H156    1.079   .     S
C117   N160    1.349   .     A
C117   C1127   1.420   1_554 S
C118   H157    1.080   .     S
C118   N159    1.350   .     A
C118   C624    1.419   .     S
C119   C121    1.522   .     S
C119   N159    1.399   .     A
C119   C621    1.420   .     S
C120   N160    1.398   .     A
C120   C125    1.519   .     S
C120   C1126   1.419   1_554 S
C121   C122    1.549   .     S
C121   H142    1.087   .     S
C121   H143    1.112   .     S
C122   H141    1.111   .     S
C122   C123    1.530   .     S
C122   H140    1.112   .     S
C123   H158    1.111   .     S
C123   H642    1.109   .     S
C124   O162    1.301   .     A
C124   O164    1.294   .     A
C125   C126    1.547   .     S
C125   H150    1.088   .     S
C125   H151    1.113   .     S
C126   H149    1.110   .     S
C126   H147    1.112   .     S
C126   C127    1.529   .     S
C127   H146    1.111   .     S
C127   H144    1.111   .     S
C127   H1153   1.108   1_554 S
C128   O167    1.291   .     A
C128   C130    1.432   .     S
C128   O165    1.296   .     A
C129   O168    1.292   .     A
C129   C131    1.432   .     S
C129   O166    1.295   .     A
C131   C18     1.330   1_655 S
C131   H36     1.086   1_655 S
C132   H152    1.084   .     S
C132   C470    1.384   1_545 S
C133   H153    1.083   .     S
C133   C282    1.384   .     S
C134   H154    1.083   .     S
C134   C300    1.384   .     S
Cu135  Cu136   2.700   .     S
Cu135  O164    1.957   .     S
Cu135  O165    1.960   .     S
Cu135  O161    1.964   .     S
Cu135  O168    1.957   .     S
Cu135  N159    2.029   .     S
Cu136  O163    1.957   .     S
Cu136  O167    1.957   .     S
Cu136  O162    1.964   .     S
Cu136  O166    1.960   .     S
Cu136  N160    2.029   .     S
H137   C18     1.088   1_655 S
H138   C1131   1.109   1_554 S
H139   C11     1.111   1_655 S
H145   C631    1.108   .     S
C169   C172    1.447   .     S
C169   O219    1.295   .     A
C169   O217    1.300   .     A
C170   C172    1.399   .     A
C170   H211    1.084   .     S
C171   C189    1.403   .     A
C171   C190    1.398   .     A
C171   C180    1.448   .     S
C172   C188    1.402   .     A
C173   H212    1.079   .     S
C173   N216    1.349   .     A
C173   C1183   1.420   1_554 S
C174   H213    1.080   .     S
C174   N215    1.350   .     A
C174   C680    1.419   .     S
C175   C177    1.522   .     S
C175   N215    1.399   .     A
C175   C677    1.420   .     S
C176   N216    1.398   .     A
C176   C181    1.519   .     S
C176   C1182   1.419   1_554 S
C177   C178    1.549   .     S
C177   H198    1.087   .     S
C177   H199    1.112   .     S
C178   H197    1.111   .     S
C178   C179    1.530   .     S
C178   H196    1.112   .     S
C179   H214    1.111   .     S
C179   H698    1.109   .     S
C179   H307    1.111   1_455 S
C180   O218    1.301   .     A
C180   O220    1.294   .     A
C181   C182    1.547   .     S
C181   H206    1.088   .     S
C181   H207    1.113   .     S
C182   H205    1.110   .     S
C182   H203    1.112   .     S
C182   C183    1.529   .     S
C183   H202    1.111   .     S
C183   H200    1.111   .     S
C183   H1209   1.108   1_554 S
C184   O223    1.291   .     A
C184   C186    1.432   .     S
C184   O221    1.296   .     A
C185   O224    1.292   .     A
C185   C187    1.432   .     S
C185   O222    1.295   .     A
C186   C299    1.330   1_455 S
C186   H305    1.088   1_455 S
C187   C242    1.330   .     S
C187   H260    1.086   .     S
C188   H208    1.084   .     S
C189   H209    1.083   .     S
C189   C338    1.384   .     S
C190   H210    1.083   .     S
C190   C356    1.384   .     S
Cu191  Cu192   2.700   .     S
Cu191  O220    1.957   .     S
Cu191  O221    1.960   .     S
Cu191  O217    1.964   .     S
Cu191  O224    1.957   .     S
Cu191  N215    2.029   .     S
Cu192  O219    1.957   .     S
Cu192  O223    1.957   .     S
Cu192  O218    1.964   .     S
Cu192  O222    1.960   .     S
Cu192  N216    2.029   .     S
H193   C242    1.088   .     S
H194   C1187   1.109   1_554 S
H195   C235    1.111   .     S
H201   C687    1.108   .     S
H204   C299    1.086   1_455 S
C225   C228    1.447   .     S
C225   O275    1.295   .     A
C225   O273    1.300   .     A
C226   C228    1.399   .     A
C226   H267    1.084   .     S
C227   C245    1.403   .     A
C227   C246    1.398   .     A
C227   C236    1.448   .     S
C228   C244    1.402   .     A
C229   H268    1.079   .     S
C229   N272    1.349   .     A
C229   C1239   1.420   1_554 S
C230   H269    1.080   .     S
C230   N271    1.350   .     A
C230   C736    1.419   .     S
C231   C233    1.522   .     S
C231   N271    1.399   .     A
C231   C733    1.420   .     S
C232   N272    1.398   .     A
C232   C237    1.519   .     S
C232   C1238   1.419   1_554 S
C233   C234    1.549   .     S
C233   H254    1.087   .     S
C233   H255    1.112   .     S
C234   H253    1.111   .     S
C234   C235    1.530   .     S
C234   H252    1.112   .     S
C235   H270    1.111   .     S
C235   H754    1.109   .     S
C236   O274    1.301   .     A
C236   O276    1.294   .     A
C237   C238    1.547   .     S
C237   H262    1.088   .     S
C237   H263    1.113   .     S
C238   H261    1.110   .     S
C238   H259    1.112   .     S
C238   C239    1.529   .     S
C239   H258    1.111   .     S
C239   H256    1.111   .     S
C239   H1265   1.108   1_554 S
C240   O279    1.291   .     A
C240   C242    1.432   .     S
C240   O277    1.296   .     A
C241   O280    1.292   .     A
C241   C243    1.432   .     S
C241   O278    1.295   .     A
C243   C298    1.330   .     S
C243   H316    1.086   .     S
C244   H264    1.084   .     S
C245   H265    1.083   .     S
C245   C394    1.384   .     S
C246   H266    1.083   .     S
C246   C412    1.384   .     S
Cu247  Cu248   2.700   .     S
Cu247  O276    1.957   .     S
Cu247  O277    1.960   .     S
Cu247  O273    1.964   .     S
Cu247  O280    1.957   .     S
Cu247  N271    2.029   .     S
Cu248  O275    1.957   .     S
Cu248  O279    1.957   .     S
Cu248  O274    1.964   .     S
Cu248  O278    1.960   .     S
Cu248  N272    2.029   .     S
H249   C298    1.088   .     S
H250   C1243   1.109   1_554 S
H251   C291    1.111   .     S
H257   C743    1.108   .     S
C281   C284    1.447   .     S
C281   O331    1.295   .     A
C281   O329    1.300   .     A
C282   C284    1.399   .     A
C282   H323    1.084   .     S
C283   C301    1.403   .     A
C283   C302    1.398   .     A
C283   C292    1.448   .     S
C284   C300    1.402   .     A
C285   H324    1.079   .     S
C285   N328    1.349   .     A
C285   C1295   1.420   1_554 S
C286   H325    1.080   .     S
C286   N327    1.350   .     A
C286   C792    1.419   .     S
C287   C289    1.522   .     S
C287   N327    1.399   .     A
C287   C789    1.420   .     S
C288   N328    1.398   .     A
C288   C293    1.519   .     S
C288   C1294   1.419   1_554 S
C289   C290    1.549   .     S
C289   H310    1.087   .     S
C289   H311    1.112   .     S
C290   H309    1.111   .     S
C290   C291    1.530   .     S
C290   H308    1.112   .     S
C291   H326    1.111   .     S
C291   H810    1.109   .     S
C292   O330    1.301   .     A
C292   O332    1.294   .     A
C293   C294    1.547   .     S
C293   H318    1.088   .     S
C293   H319    1.113   .     S
C294   H317    1.110   .     S
C294   H315    1.112   .     S
C294   C295    1.529   .     S
C295   H314    1.111   .     S
C295   H312    1.111   .     S
C295   H1321   1.108   1_554 S
C296   O335    1.291   .     A
C296   C298    1.432   .     S
C296   O333    1.296   .     A
C297   O336    1.292   .     A
C297   C299    1.432   .     S
C297   O334    1.295   .     A
C299   C186    1.330   1_655 S
C299   H204    1.086   1_655 S
C300   H320    1.084   .     S
C301   H321    1.083   .     S
C301   C450    1.384   .     S
C302   H322    1.083   .     S
C302   C468    1.384   .     S
Cu303  Cu304   2.700   .     S
Cu303  O332    1.957   .     S
Cu303  O333    1.960   .     S
Cu303  O329    1.964   .     S
Cu303  O336    1.957   .     S
Cu303  N327    2.029   .     S
Cu304  O331    1.957   .     S
Cu304  O335    1.957   .     S
Cu304  O330    1.964   .     S
Cu304  O334    1.960   .     S
Cu304  N328    2.029   .     S
H305   C186    1.088   1_655 S
H306   C1299   1.109   1_554 S
H307   C179    1.111   1_655 S
H313   C799    1.108   .     S
C337   C340    1.447   .     S
C337   O387    1.295   .     A
C337   O385    1.300   .     A
C338   C340    1.399   .     A
C338   H379    1.084   .     S
C339   C357    1.403   .     A
C339   C358    1.398   .     A
C339   C348    1.448   .     S
C340   C356    1.402   .     A
C341   H380    1.079   .     S
C341   N384    1.349   .     A
C341   C1351   1.420   1_554 S
C342   H381    1.080   .     S
C342   N383    1.350   .     A
C342   C848    1.419   .     S
C343   C345    1.522   .     S
C343   N383    1.399   .     A
C343   C845    1.420   .     S
C344   N384    1.398   .     A
C344   C349    1.519   .     S
C344   C1350   1.419   1_554 S
C345   C346    1.549   .     S
C345   H366    1.087   .     S
C345   H367    1.112   .     S
C346   H365    1.111   .     S
C346   C347    1.530   .     S
C346   H364    1.112   .     S
C347   H382    1.111   .     S
C347   H866    1.109   .     S
C347   H475    1.111   1_455 S
C348   O386    1.301   .     A
C348   O388    1.294   .     A
C349   C350    1.547   .     S
C349   H374    1.088   .     S
C349   H375    1.113   .     S
C350   H373    1.110   .     S
C350   H371    1.112   .     S
C350   C351    1.529   .     S
C351   H370    1.111   .     S
C351   H368    1.111   .     S
C351   H1377   1.108   1_554 S
C352   O391    1.291   .     A
C352   C354    1.432   .     S
C352   O389    1.296   .     A
C353   O392    1.292   .     A
C353   C355    1.432   .     S
C353   O390    1.295   .     A
C354   C467    1.330   1_455 S
C354   H473    1.088   1_455 S
C355   C410    1.330   .     S
C355   H428    1.086   .     S
C356   H376    1.084   .     S
C357   H377    1.083   .     S
C357   C2      1.384   1_565 S
C358   H378    1.083   .     S
C358   C20     1.384   1_565 S
Cu359  Cu360   2.700   .     S
Cu359  O388    1.957   .     S
Cu359  O389    1.960   .     S
Cu359  O385    1.964   .     S
Cu359  O392    1.957   .     S
Cu359  N383    2.029   .     S
Cu360  O387    1.957   .     S
Cu360  O391    1.957   .     S
Cu360  O386    1.964   .     S
Cu360  O390    1.960   .     S
Cu360  N384    2.029   .     S
H361   C410    1.088   .     S
H362   C1355   1.109   1_554 S
H363   C403    1.111   .     S
H369   C855    1.108   .     S
H372   C467    1.086   1_455 S
C393   C396    1.447   .     S
C393   O443    1.295   .     A
C393   O441    1.300   .     A
C394   C396    1.399   .     A
C394   H435    1.084   .     S
C395   C413    1.403   .     A
C395   C414    1.398   .     A
C395   C404    1.448   .     S
C396   C412    1.402   .     A
C397   H436    1.079   .     S
C397   N440    1.349   .     A
C397   C1407   1.420   1_554 S
C398   H437    1.080   .     S
C398   N439    1.350   .     A
C398   C904    1.419   .     S
C399   C401    1.522   .     S
C399   N439    1.399   .     A
C399   C901    1.420   .     S
C400   N440    1.398   .     A
C400   C405    1.519   .     S
C400   C1406   1.419   1_554 S
C401   C402    1.549   .     S
C401   H422    1.087   .     S
C401   H423    1.112   .     S
C402   H421    1.111   .     S
C402   C403    1.530   .     S
C402   H420    1.112   .     S
C403   H438    1.111   .     S
C403   H922    1.109   .     S
C404   O442    1.301   .     A
C404   O444    1.294   .     A
C405   C406    1.547   .     S
C405   H430    1.088   .     S
C405   H431    1.113   .     S
C406   H429    1.110   .     S
C406   H427    1.112   .     S
C406   C407    1.529   .     S
C407   H426    1.111   .     S
C407   H424    1.111   .     S
C407   H1433   1.108   1_554 S
C408   O447    1.291   .     A
C408   C410    1.432   .     S
C408   O445    1.296   .     A
C409   O448    1.292   .     A
C409   C411    1.432   .     S
C409   O446    1.295   .     A
C411   C466    1.330   .     S
C411   H484    1.086   .     S
C412   H432    1.084   .     S
C413   H433    1.083   .     S
C413   C58     1.384   1_565 S
C414   H434    1.083   .     S
C414   C76     1.384   1_565 S
Cu415  Cu416   2.700   .     S
Cu415  O444    1.957   .     S
Cu415  O445    1.960   .     S
Cu415  O441    1.964   .     S
Cu415  O448    1.957   .     S
Cu415  N439    2.029   .     S
Cu416  O443    1.957   .     S
Cu416  O447    1.957   .     S
Cu416  O442    1.964   .     S
Cu416  O446    1.960   .     S
Cu416  N440    2.029   .     S
H417   C466    1.088   .     S
H418   C1411   1.109   1_554 S
H419   C459    1.111   .     S
H425   C911    1.108   .     S
C449   C452    1.447   .     S
C449   O499    1.295   .     A
C449   O497    1.300   .     A
C450   C452    1.399   .     A
C450   H491    1.084   .     S
C451   C469    1.403   .     A
C451   C470    1.398   .     A
C451   C460    1.448   .     S
C452   C468    1.402   .     A
C453   H492    1.079   .     S
C453   N496    1.349   .     A
C453   C1463   1.420   1_554 S
C454   H493    1.080   .     S
C454   N495    1.350   .     A
C454   C960    1.419   .     S
C455   C457    1.522   .     S
C455   N495    1.399   .     A
C455   C957    1.420   .     S
C456   N496    1.398   .     A
C456   C461    1.519   .     S
C456   C1462   1.419   1_554 S
C457   C458    1.549   .     S
C457   H478    1.087   .     S
C457   H479    1.112   .     S
C458   H477    1.111   .     S
C458   C459    1.530   .     S
C458   H476    1.112   .     S
C459   H494    1.111   .     S
C459   H978    1.109   .     S
C460   O498    1.301   .     A
C460   O500    1.294   .     A
C461   C462    1.547   .     S
C461   H486    1.088   .     S
C461   H487    1.113   .     S
C462   H485    1.110   .     S
C462   H483    1.112   .     S
C462   C463    1.529   .     S
C463   H482    1.111   .     S
C463   H480    1.111   .     S
C463   H1489   1.108   1_554 S
C464   O503    1.291   .     A
C464   C466    1.432   .     S
C464   O501    1.296   .     A
C465   O504    1.292   .     A
C465   C467    1.432   .     S
C465   O502    1.295   .     A
C467   C354    1.330   1_655 S
C467   H372    1.086   1_655 S
C468   H488    1.084   .     S
C469   H489    1.083   .     S
C469   C114    1.384   1_565 S
C470   H490    1.083   .     S
C470   C132    1.384   1_565 S
Cu471  Cu472   2.700   .     S
Cu471  O500    1.957   .     S
Cu471  O501    1.960   .     S
Cu471  O497    1.964   .     S
Cu471  O504    1.957   .     S
Cu471  N495    2.029   .     S
Cu472  O499    1.957   .     S
Cu472  O503    1.957   .     S
Cu472  O498    1.964   .     S
Cu472  O502    1.960   .     S
Cu472  N496    2.029   .     S
H473   C354    1.088   1_655 S
H474   C1467   1.109   1_554 S
H475   C347    1.111   1_655 S
H481   C967    1.108   .     S
C505   C508    1.447   .     S
C505   O555    1.295   .     A
C505   O553    1.300   .     A
C506   C508    1.399   .     A
C506   H547    1.084   .     S
C506   C861    1.384   1_545 S
C507   C525    1.403   .     A
C507   C526    1.398   .     A
C507   C516    1.448   .     S
C508   C524    1.402   .     A
C509   H548    1.079   .     S
C509   N552    1.349   .     A
C510   H549    1.080   .     S
C510   N551    1.350   .     A
C510   C1016   1.419   .     S
C511   C513    1.522   .     S
C511   N551    1.399   .     A
C511   C1013   1.420   .     S
C512   N552    1.398   .     A
C512   C517    1.519   .     S
C513   C514    1.549   .     S
C513   H534    1.087   .     S
C513   H535    1.112   .     S
C514   H533    1.111   .     S
C514   C515    1.530   .     S
C514   H532    1.112   .     S
C515   H550    1.111   .     S
C515   H1034   1.109   .     S
C515   H643    1.111   1_455 S
C516   O554    1.301   .     A
C516   O556    1.294   .     A
C517   C518    1.547   .     S
C517   H542    1.088   .     S
C517   H543    1.113   .     S
C518   H541    1.110   .     S
C518   H539    1.112   .     S
C518   C519    1.529   .     S
C519   H538    1.111   .     S
C519   H536    1.111   .     S
C520   O559    1.291   .     A
C520   C522    1.432   .     S
C520   O557    1.296   .     A
C521   O560    1.292   .     A
C521   C523    1.432   .     S
C521   O558    1.295   .     A
C522   C635    1.330   1_455 S
C522   H641    1.088   1_455 S
C523   C578    1.330   .     S
C523   H596    1.086   .     S
C524   H544    1.084   .     S
C524   C862    1.384   1_545 S
C525   H545    1.083   .     S
C525   C674    1.384   .     S
C526   H546    1.083   .     S
C526   C692    1.384   .     S
Cu527  Cu528   2.700   .     S
Cu527  O556    1.957   .     S
Cu527  O557    1.960   .     S
Cu527  O553    1.964   .     S
Cu527  O560    1.957   .     S
Cu527  N551    2.029   .     S
Cu528  O555    1.957   .     S
Cu528  O559    1.957   .     S
Cu528  O554    1.964   .     S
Cu528  O558    1.960   .     S
Cu528  N552    2.029   .     S
H529   C578    1.088   .     S
H531   C571    1.111   .     S
H537   C1023   1.108   .     S
H540   C635    1.086   1_455 S
C561   C564    1.447   .     S
C561   O611    1.295   .     A
C561   O609    1.300   .     A
C562   C564    1.399   .     A
C562   H603    1.084   .     S
C562   C917    1.384   1_545 S
C563   C581    1.403   .     A
C563   C582    1.398   .     A
C563   C572    1.448   .     S
C564   C580    1.402   .     A
C565   H604    1.079   .     S
C565   N608    1.349   .     A
C566   H605    1.080   .     S
C566   N607    1.350   .     A
C566   C1072   1.419   .     S
C567   C569    1.522   .     S
C567   N607    1.399   .     A
C567   C1069   1.420   .     S
C568   N608    1.398   .     A
C568   C573    1.519   .     S
C569   C570    1.549   .     S
C569   H590    1.087   .     S
C569   H591    1.112   .     S
C570   H589    1.111   .     S
C570   C571    1.530   .     S
C570   H588    1.112   .     S
C571   H606    1.111   .     S
C571   H1090   1.109   .     S
C572   O610    1.301   .     A
C572   O612    1.294   .     A
C573   C574    1.547   .     S
C573   H598    1.088   .     S
C573   H599    1.113   .     S
C574   H597    1.110   .     S
C574   H595    1.112   .     S
C574   C575    1.529   .     S
C575   H594    1.111   .     S
C575   H592    1.111   .     S
C576   O615    1.291   .     A
C576   C578    1.432   .     S
C576   O613    1.296   .     A
C577   O616    1.292   .     A
C577   C579    1.432   .     S
C577   O614    1.295   .     A
C579   C634    1.330   .     S
C579   H652    1.086   .     S
C580   H600    1.084   .     S
C580   C918    1.384   1_545 S
C581   H601    1.083   .     S
C581   C730    1.384   .     S
C582   H602    1.083   .     S
C582   C748    1.384   .     S
Cu583  Cu584   2.700   .     S
Cu583  O612    1.957   .     S
Cu583  O613    1.960   .     S
Cu583  O609    1.964   .     S
Cu583  O616    1.957   .     S
Cu583  N607    2.029   .     S
Cu584  O611    1.957   .     S
Cu584  O615    1.957   .     S
Cu584  O610    1.964   .     S
Cu584  O614    1.960   .     S
Cu584  N608    2.029   .     S
H585   C634    1.088   .     S
H587   C627    1.111   .     S
H593   C1079   1.108   .     S
C617   C620    1.447   .     S
C617   O667    1.295   .     A
C617   O665    1.300   .     A
C618   C620    1.399   .     A
C618   H659    1.084   .     S
C618   C973    1.384   1_545 S
C619   C637    1.403   .     A
C619   C638    1.398   .     A
C619   C628    1.448   .     S
C620   C636    1.402   .     A
C621   H660    1.079   .     S
C621   N664    1.349   .     A
C622   H661    1.080   .     S
C622   N663    1.350   .     A
C622   C1128   1.419   .     S
C623   C625    1.522   .     S
C623   N663    1.399   .     A
C623   C1125   1.420   .     S
C624   N664    1.398   .     A
C624   C629    1.519   .     S
C625   C626    1.549   .     S
C625   H646    1.087   .     S
C625   H647    1.112   .     S
C626   H645    1.111   .     S
C626   C627    1.530   .     S
C626   H644    1.112   .     S
C627   H662    1.111   .     S
C627   H1146   1.109   .     S
C628   O666    1.301   .     A
C628   O668    1.294   .     A
C629   C630    1.547   .     S
C629   H654    1.088   .     S
C629   H655    1.113   .     S
C630   H653    1.110   .     S
C630   H651    1.112   .     S
C630   C631    1.529   .     S
C631   H650    1.111   .     S
C631   H648    1.111   .     S
C632   O671    1.291   .     A
C632   C634    1.432   .     S
C632   O669    1.296   .     A
C633   O672    1.292   .     A
C633   C635    1.432   .     S
C633   O670    1.295   .     A
C635   C522    1.330   1_655 S
C635   H540    1.086   1_655 S
C636   H656    1.084   .     S
C636   C974    1.384   1_545 S
C637   H657    1.083   .     S
C637   C786    1.384   .     S
C638   H658    1.083   .     S
C638   C804    1.384   .     S
Cu639  Cu640   2.700   .     S
Cu639  O668    1.957   .     S
Cu639  O669    1.960   .     S
Cu639  O665    1.964   .     S
Cu639  O672    1.957   .     S
Cu639  N663    2.029   .     S
Cu640  O667    1.957   .     S
Cu640  O671    1.957   .     S
Cu640  O666    1.964   .     S
Cu640  O670    1.960   .     S
Cu640  N664    2.029   .     S
H641   C522    1.088   1_655 S
H643   C515    1.111   1_655 S
H649   C1135   1.108   .     S
C673   C676    1.447   .     S
C673   O723    1.295   .     A
C673   O721    1.300   .     A
C674   C676    1.399   .     A
C674   H715    1.084   .     S
C675   C693    1.403   .     A
C675   C694    1.398   .     A
C675   C684    1.448   .     S
C676   C692    1.402   .     A
C677   H716    1.079   .     S
C677   N720    1.349   .     A
C678   H717    1.080   .     S
C678   N719    1.350   .     A
C678   C1184   1.419   .     S
C679   C681    1.522   .     S
C679   N719    1.399   .     A
C679   C1181   1.420   .     S
C680   N720    1.398   .     A
C680   C685    1.519   .     S
C681   C682    1.549   .     S
C681   H702    1.087   .     S
C681   H703    1.112   .     S
C682   H701    1.111   .     S
C682   C683    1.530   .     S
C682   H700    1.112   .     S
C683   H718    1.111   .     S
C683   H1202   1.109   .     S
C683   H811    1.111   1_455 S
C684   O722    1.301   .     A
C684   O724    1.294   .     A
C685   C686    1.547   .     S
C685   H710    1.088   .     S
C685   H711    1.113   .     S
C686   H709    1.110   .     S
C686   H707    1.112   .     S
C686   C687    1.529   .     S
C687   H706    1.111   .     S
C687   H704    1.111   .     S
C688   O727    1.291   .     A
C688   C690    1.432   .     S
C688   O725    1.296   .     A
C689   O728    1.292   .     A
C689   C691    1.432   .     S
C689   O726    1.295   .     A
C690   C803    1.330   1_455 S
C690   H809    1.088   1_455 S
C691   C746    1.330   .     S
C691   H764    1.086   .     S
C692   H712    1.084   .     S
C693   H713    1.083   .     S
C693   C842    1.384   .     S
C694   H714    1.083   .     S
C694   C860    1.384   .     S
Cu695  Cu696   2.700   .     S
Cu695  O724    1.957   .     S
Cu695  O725    1.960   .     S
Cu695  O721    1.964   .     S
Cu695  O728    1.957   .     S
Cu695  N719    2.029   .     S
Cu696  O723    1.957   .     S
Cu696  O727    1.957   .     S
Cu696  O722    1.964   .     S
Cu696  O726    1.960   .     S
Cu696  N720    2.029   .     S
H697   C746    1.088   .     S
H699   C739    1.111   .     S
H705   C1191   1.108   .     S
H708   C803    1.086   1_455 S
C729   C732    1.447   .     S
C729   O779    1.295   .     A
C729   O777    1.300   .     A
C730   C732    1.399   .     A
C730   H771    1.084   .     S
C731   C749    1.403   .     A
C731   C750    1.398   .     A
C731   C740    1.448   .     S
C732   C748    1.402   .     A
C733   H772    1.079   .     S
C733   N776    1.349   .     A
C734   H773    1.080   .     S
C734   N775    1.350   .     A
C734   C1240   1.419   .     S
C735   C737    1.522   .     S
C735   N775    1.399   .     A
C735   C1237   1.420   .     S
C736   N776    1.398   .     A
C736   C741    1.519   .     S
C737   C738    1.549   .     S
C737   H758    1.087   .     S
C737   H759    1.112   .     S
C738   H757    1.111   .     S
C738   C739    1.530   .     S
C738   H756    1.112   .     S
C739   H774    1.111   .     S
C739   H1258   1.109   .     S
C740   O778    1.301   .     A
C740   O780    1.294   .     A
C741   C742    1.547   .     S
C741   H766    1.088   .     S
C741   H767    1.113   .     S
C742   H765    1.110   .     S
C742   H763    1.112   .     S
C742   C743    1.529   .     S
C743   H762    1.111   .     S
C743   H760    1.111   .     S
C744   O783    1.291   .     A
C744   C746    1.432   .     S
C744   O781    1.296   .     A
C745   O784    1.292   .     A
C745   C747    1.432   .     S
C745   O782    1.295   .     A
C747   C802    1.330   .     S
C747   H820    1.086   .     S
C748   H768    1.084   .     S
C749   H769    1.083   .     S
C749   C898    1.384   .     S
C750   H770    1.083   .     S
C750   C916    1.384   .     S
Cu751  Cu752   2.700   .     S
Cu751  O780    1.957   .     S
Cu751  O781    1.960   .     S
Cu751  O777    1.964   .     S
Cu751  O784    1.957   .     S
Cu751  N775    2.029   .     S
Cu752  O779    1.957   .     S
Cu752  O783    1.957   .     S
Cu752  O778    1.964   .     S
Cu752  O782    1.960   .     S
Cu752  N776    2.029   .     S
H753   C802    1.088   .     S
H755   C795    1.111   .     S
H761   C1247   1.108   .     S
C785   C788    1.447   .     S
C785   O835    1.295   .     A
C785   O833    1.300   .     A
C786   C788    1.399   .     A
C786   H827    1.084   .     S
C787   C805    1.403   .     A
C787   C806    1.398   .     A
C787   C796    1.448   .     S
C788   C804    1.402   .     A
C789   H828    1.079   .     S
C789   N832    1.349   .     A
C790   H829    1.080   .     S
C790   N831    1.350   .     A
C790   C1296   1.419   .     S
C791   C793    1.522   .     S
C791   N831    1.399   .     A
C791   C1293   1.420   .     S
C792   N832    1.398   .     A
C792   C797    1.519   .     S
C793   C794    1.549   .     S
C793   H814    1.087   .     S
C793   H815    1.112   .     S
C794   H813    1.111   .     S
C794   C795    1.530   .     S
C794   H812    1.112   .     S
C795   H830    1.111   .     S
C795   H1314   1.109   .     S
C796   O834    1.301   .     A
C796   O836    1.294   .     A
C797   C798    1.547   .     S
C797   H822    1.088   .     S
C797   H823    1.113   .     S
C798   H821    1.110   .     S
C798   H819    1.112   .     S
C798   C799    1.529   .     S
C799   H818    1.111   .     S
C799   H816    1.111   .     S
C800   O839    1.291   .     A
C800   C802    1.432   .     S
C800   O837    1.296   .     A
C801   O840    1.292   .     A
C801   C803    1.432   .     S
C801   O838    1.295   .     A
C803   C690    1.330   1_655 S
C803   H708    1.086   1_655 S
C804   H824    1.084   .     S
C805   H825    1.083   .     S
C805   C954    1.384   .     S
C806   H826    1.083   .     S
C806   C972    1.384   .     S
Cu807  Cu808   2.700   .     S
Cu807  O836    1.957   .     S
Cu807  O837    1.960   .     S
Cu807  O833    1.964   .     S
Cu807  O840    1.957   .     S
Cu807  N831    2.029   .     S
Cu808  O835    1.957   .     S
Cu808  O839    1.957   .     S
Cu808  O834    1.964   .     S
Cu808  O838    1.960   .     S
Cu808  N832    2.029   .     S
H809   C690    1.088   1_655 S
H811   C683    1.111   1_655 S
H817   C1303   1.108   .     S
C841   C844    1.447   .     S
C841   O891    1.295   .     A
C841   O889    1.300   .     A
C842   C844    1.399   .     A
C842   H883    1.084   .     S
C843   C861    1.403   .     A
C843   C862    1.398   .     A
C843   C852    1.448   .     S
C844   C860    1.402   .     A
C845   H884    1.079   .     S
C845   N888    1.349   .     A
C846   H885    1.080   .     S
C846   N887    1.350   .     A
C846   C1352   1.419   .     S
C847   C849    1.522   .     S
C847   N887    1.399   .     A
C847   C1349   1.420   .     S
C848   N888    1.398   .     A
C848   C853    1.519   .     S
C849   C850    1.549   .     S
C849   H870    1.087   .     S
C849   H871    1.112   .     S
C850   H869    1.111   .     S
C850   C851    1.530   .     S
C850   H868    1.112   .     S
C851   H886    1.111   .     S
C851   H1370   1.109   .     S
C851   H979    1.111   1_455 S
C852   O890    1.301   .     A
C852   O892    1.294   .     A
C853   C854    1.547   .     S
C853   H878    1.088   .     S
C853   H879    1.113   .     S
C854   H877    1.110   .     S
C854   H875    1.112   .     S
C854   C855    1.529   .     S
C855   H874    1.111   .     S
C855   H872    1.111   .     S
C856   O895    1.291   .     A
C856   C858    1.432   .     S
C856   O893    1.296   .     A
C857   O896    1.292   .     A
C857   C859    1.432   .     S
C857   O894    1.295   .     A
C858   C971    1.330   1_455 S
C858   H977    1.088   1_455 S
C859   C914    1.330   .     S
C859   H932    1.086   .     S
C860   H880    1.084   .     S
C861   H881    1.083   .     S
C861   C506    1.384   1_565 S
C862   H882    1.083   .     S
C862   C524    1.384   1_565 S
Cu863  Cu864   2.700   .     S
Cu863  O892    1.957   .     S
Cu863  O893    1.960   .     S
Cu863  O889    1.964   .     S
Cu863  O896    1.957   .     S
Cu863  N887    2.029   .     S
Cu864  O891    1.957   .     S
Cu864  O895    1.957   .     S
Cu864  O890    1.964   .     S
Cu864  O894    1.960   .     S
Cu864  N888    2.029   .     S
H865   C914    1.088   .     S
H867   C907    1.111   .     S
H873   C1359   1.108   .     S
H876   C971    1.086   1_455 S
C897   C900    1.447   .     S
C897   O947    1.295   .     A
C897   O945    1.300   .     A
C898   C900    1.399   .     A
C898   H939    1.084   .     S
C899   C917    1.403   .     A
C899   C918    1.398   .     A
C899   C908    1.448   .     S
C900   C916    1.402   .     A
C901   H940    1.079   .     S
C901   N944    1.349   .     A
C902   H941    1.080   .     S
C902   N943    1.350   .     A
C902   C1408   1.419   .     S
C903   C905    1.522   .     S
C903   N943    1.399   .     A
C903   C1405   1.420   .     S
C904   N944    1.398   .     A
C904   C909    1.519   .     S
C905   C906    1.549   .     S
C905   H926    1.087   .     S
C905   H927    1.112   .     S
C906   H925    1.111   .     S
C906   C907    1.530   .     S
C906   H924    1.112   .     S
C907   H942    1.111   .     S
C907   H1426   1.109   .     S
C908   O946    1.301   .     A
C908   O948    1.294   .     A
C909   C910    1.547   .     S
C909   H934    1.088   .     S
C909   H935    1.113   .     S
C910   H933    1.110   .     S
C910   H931    1.112   .     S
C910   C911    1.529   .     S
C911   H930    1.111   .     S
C911   H928    1.111   .     S
C912   O951    1.291   .     A
C912   C914    1.432   .     S
C912   O949    1.296   .     A
C913   O952    1.292   .     A
C913   C915    1.432   .     S
C913   O950    1.295   .     A
C915   C970    1.330   .     S
C915   H988    1.086   .     S
C916   H936    1.084   .     S
C917   H937    1.083   .     S
C917   C562    1.384   1_565 S
C918   H938    1.083   .     S
C918   C580    1.384   1_565 S
Cu919  Cu920   2.700   .     S
Cu919  O948    1.957   .     S
Cu919  O949    1.960   .     S
Cu919  O945    1.964   .     S
Cu919  O952    1.957   .     S
Cu919  N943    2.029   .     S
Cu920  O947    1.957   .     S
Cu920  O951    1.957   .     S
Cu920  O946    1.964   .     S
Cu920  O950    1.960   .     S
Cu920  N944    2.029   .     S
H921   C970    1.088   .     S
H923   C963    1.111   .     S
H929   C1415   1.108   .     S
C953   C956    1.447   .     S
C953   O1003   1.295   .     A
C953   O1001   1.300   .     A
C954   C956    1.399   .     A
C954   H995    1.084   .     S
C955   C973    1.403   .     A
C955   C974    1.398   .     A
C955   C964    1.448   .     S
C956   C972    1.402   .     A
C957   H996    1.079   .     S
C957   N1000   1.349   .     A
C958   H997    1.080   .     S
C958   N999    1.350   .     A
C958   C1464   1.419   .     S
C959   C961    1.522   .     S
C959   N999    1.399   .     A
C959   C1461   1.420   .     S
C960   N1000   1.398   .     A
C960   C965    1.519   .     S
C961   C962    1.549   .     S
C961   H982    1.087   .     S
C961   H983    1.112   .     S
C962   H981    1.111   .     S
C962   C963    1.530   .     S
C962   H980    1.112   .     S
C963   H998    1.111   .     S
C963   H1482   1.109   .     S
C964   O1002   1.301   .     A
C964   O1004   1.294   .     A
C965   C966    1.547   .     S
C965   H990    1.088   .     S
C965   H991    1.113   .     S
C966   H989    1.110   .     S
C966   H987    1.112   .     S
C966   C967    1.529   .     S
C967   H986    1.111   .     S
C967   H984    1.111   .     S
C968   O1007   1.291   .     A
C968   C970    1.432   .     S
C968   O1005   1.296   .     A
C969   O1008   1.292   .     A
C969   C971    1.432   .     S
C969   O1006   1.295   .     A
C971   C858    1.330   1_655 S
C971   H876    1.086   1_655 S
C972   H992    1.084   .     S
C973   H993    1.083   .     S
C973   C618    1.384   1_565 S
C974   H994    1.083   .     S
C974   C636    1.384   1_565 S
Cu975  Cu976   2.700   .     S
Cu975  O1004   1.957   .     S
Cu975  O1005   1.960   .     S
Cu975  O1001   1.964   .     S
Cu975  O1008   1.957   .     S
Cu975  N999    2.029   .     S
Cu976  O1003   1.957   .     S
Cu976  O1007   1.957   .     S
Cu976  O1002   1.964   .     S
Cu976  O1006   1.960   .     S
Cu976  N1000   2.029   .     S
H977   C858    1.088   1_655 S
H979   C851    1.111   1_655 S
H985   C1471   1.108   .     S
C1009  C1012   1.447   .     S
C1009  O1059   1.295   .     A
C1009  O1057   1.300   .     A
C1010  C1012   1.399   .     A
C1010  H1051   1.084   .     S
C1010  C1365   1.384   1_545 S
C1011  C1029   1.403   .     A
C1011  C1030   1.398   .     A
C1011  C1020   1.448   .     S
C1012  C1028   1.402   .     A
C1013  H1052   1.079   .     S
C1013  N1056   1.349   .     A
C1014  H1053   1.080   .     S
C1014  N1055   1.350   .     A
C1014  C8      1.419   1_556 S
C1015  C1017   1.522   .     S
C1015  N1055   1.399   .     A
C1015  C5      1.420   1_556 S
C1016  N1056   1.398   .     A
C1016  C1021   1.519   .     S
C1017  C1018   1.549   .     S
C1017  H1038   1.087   .     S
C1017  H1039   1.112   .     S
C1018  H1037   1.111   .     S
C1018  C1019   1.530   .     S
C1018  H1036   1.112   .     S
C1019  H1054   1.111   .     S
C1019  H26     1.109   1_556 S
C1019  H1147   1.111   1_455 S
C1020  O1058   1.301   .     A
C1020  O1060   1.294   .     A
C1021  C1022   1.547   .     S
C1021  H1046   1.088   .     S
C1021  H1047   1.113   .     S
C1022  H1045   1.110   .     S
C1022  H1043   1.112   .     S
C1022  C1023   1.529   .     S
C1023  H1042   1.111   .     S
C1023  H1040   1.111   .     S
C1024  O1063   1.291   .     A
C1024  C1026   1.432   .     S
C1024  O1061   1.296   .     A
C1025  O1064   1.292   .     A
C1025  C1027   1.432   .     S
C1025  O1062   1.295   .     A
C1026  C1139   1.330   1_455 S
C1026  H1145   1.088   1_455 S
C1027  C1082   1.330   .     S
C1027  H1100   1.086   .     S
C1028  H1048   1.084   .     S
C1028  C1366   1.384   1_545 S
C1029  H1049   1.083   .     S
C1029  C1178   1.384   .     S
C1030  H1050   1.083   .     S
C1030  C1196   1.384   .     S
Cu1031 Cu1032  2.700   .     S
Cu1031 O1060   1.957   .     S
Cu1031 O1061   1.960   .     S
Cu1031 O1057   1.964   .     S
Cu1031 O1064   1.957   .     S
Cu1031 N1055   2.029   .     S
Cu1032 O1059   1.957   .     S
Cu1032 O1063   1.957   .     S
Cu1032 O1058   1.964   .     S
Cu1032 O1062   1.960   .     S
Cu1032 N1056   2.029   .     S
H1033  C1082   1.088   .     S
H1035  C1075   1.111   .     S
H1041  C15     1.108   1_556 S
H1044  C1139   1.086   1_455 S
C1065  C1068   1.447   .     S
C1065  O1115   1.295   .     A
C1065  O1113   1.300   .     A
C1066  C1068   1.399   .     A
C1066  H1107   1.084   .     S
C1066  C1421   1.384   1_545 S
C1067  C1085   1.403   .     A
C1067  C1086   1.398   .     A
C1067  C1076   1.448   .     S
C1068  C1084   1.402   .     A
C1069  H1108   1.079   .     S
C1069  N1112   1.349   .     A
C1070  H1109   1.080   .     S
C1070  N1111   1.350   .     A
C1070  C64     1.419   1_556 S
C1071  C1073   1.522   .     S
C1071  N1111   1.399   .     A
C1071  C61     1.420   1_556 S
C1072  N1112   1.398   .     A
C1072  C1077   1.519   .     S
C1073  C1074   1.549   .     S
C1073  H1094   1.087   .     S
C1073  H1095   1.112   .     S
C1074  H1093   1.111   .     S
C1074  C1075   1.530   .     S
C1074  H1092   1.112   .     S
C1075  H1110   1.111   .     S
C1075  H82     1.109   1_556 S
C1076  O1114   1.301   .     A
C1076  O1116   1.294   .     A
C1077  C1078   1.547   .     S
C1077  H1102   1.088   .     S
C1077  H1103   1.113   .     S
C1078  H1101   1.110   .     S
C1078  H1099   1.112   .     S
C1078  C1079   1.529   .     S
C1079  H1098   1.111   .     S
C1079  H1096   1.111   .     S
C1080  O1119   1.291   .     A
C1080  C1082   1.432   .     S
C1080  O1117   1.296   .     A
C1081  O1120   1.292   .     A
C1081  C1083   1.432   .     S
C1081  O1118   1.295   .     A
C1083  C1138   1.330   .     S
C1083  H1156   1.086   .     S
C1084  H1104   1.084   .     S
C1084  C1422   1.384   1_545 S
C1085  H1105   1.083   .     S
C1085  C1234   1.384   .     S
C1086  H1106   1.083   .     S
C1086  C1252   1.384   .     S
Cu1087 Cu1088  2.700   .     S
Cu1087 O1116   1.957   .     S
Cu1087 O1117   1.960   .     S
Cu1087 O1113   1.964   .     S
Cu1087 O1120   1.957   .     S
Cu1087 N1111   2.029   .     S
Cu1088 O1115   1.957   .     S
Cu1088 O1119   1.957   .     S
Cu1088 O1114   1.964   .     S
Cu1088 O1118   1.960   .     S
Cu1088 N1112   2.029   .     S
H1089  C1138   1.088   .     S
H1091  C1131   1.111   .     S
H1097  C71     1.108   1_556 S
C1121  C1124   1.447   .     S
C1121  O1171   1.295   .     A
C1121  O1169   1.300   .     A
C1122  C1124   1.399   .     A
C1122  H1163   1.084   .     S
C1122  C1477   1.384   1_545 S
C1123  C1141   1.403   .     A
C1123  C1142   1.398   .     A
C1123  C1132   1.448   .     S
C1124  C1140   1.402   .     A
C1125  H1164   1.079   .     S
C1125  N1168   1.349   .     A
C1126  H1165   1.080   .     S
C1126  N1167   1.350   .     A
C1126  C120    1.419   1_556 S
C1127  C1129   1.522   .     S
C1127  N1167   1.399   .     A
C1127  C117    1.420   1_556 S
C1128  N1168   1.398   .     A
C1128  C1133   1.519   .     S
C1129  C1130   1.549   .     S
C1129  H1150   1.087   .     S
C1129  H1151   1.112   .     S
C1130  H1149   1.111   .     S
C1130  C1131   1.530   .     S
C1130  H1148   1.112   .     S
C1131  H1166   1.111   .     S
C1131  H138    1.109   1_556 S
C1132  O1170   1.301   .     A
C1132  O1172   1.294   .     A
C1133  C1134   1.547   .     S
C1133  H1158   1.088   .     S
C1133  H1159   1.113   .     S
C1134  H1157   1.110   .     S
C1134  H1155   1.112   .     S
C1134  C1135   1.529   .     S
C1135  H1154   1.111   .     S
C1135  H1152   1.111   .     S
C1136  O1175   1.291   .     A
C1136  C1138   1.432   .     S
C1136  O1173   1.296   .     A
C1137  O1176   1.292   .     A
C1137  C1139   1.432   .     S
C1137  O1174   1.295   .     A
C1139  C1026   1.330   1_655 S
C1139  H1044   1.086   1_655 S
C1140  H1160   1.084   .     S
C1140  C1478   1.384   1_545 S
C1141  H1161   1.083   .     S
C1141  C1290   1.384   .     S
C1142  H1162   1.083   .     S
C1142  C1308   1.384   .     S
Cu1143 Cu1144  2.700   .     S
Cu1143 O1172   1.957   .     S
Cu1143 O1173   1.960   .     S
Cu1143 O1169   1.964   .     S
Cu1143 O1176   1.957   .     S
Cu1143 N1167   2.029   .     S
Cu1144 O1171   1.957   .     S
Cu1144 O1175   1.957   .     S
Cu1144 O1170   1.964   .     S
Cu1144 O1174   1.960   .     S
Cu1144 N1168   2.029   .     S
H1145  C1026   1.088   1_655 S
H1147  C1019   1.111   1_655 S
H1153  C127    1.108   1_556 S
C1177  C1180   1.447   .     S
C1177  O1227   1.295   .     A
C1177  O1225   1.300   .     A
C1178  C1180   1.399   .     A
C1178  H1219   1.084   .     S
C1179  C1197   1.403   .     A
C1179  C1198   1.398   .     A
C1179  C1188   1.448   .     S
C1180  C1196   1.402   .     A
C1181  H1220   1.079   .     S
C1181  N1224   1.349   .     A
C1182  H1221   1.080   .     S
C1182  N1223   1.350   .     A
C1182  C176    1.419   1_556 S
C1183  C1185   1.522   .     S
C1183  N1223   1.399   .     A
C1183  C173    1.420   1_556 S
C1184  N1224   1.398   .     A
C1184  C1189   1.519   .     S
C1185  C1186   1.549   .     S
C1185  H1206   1.087   .     S
C1185  H1207   1.112   .     S
C1186  H1205   1.111   .     S
C1186  C1187   1.530   .     S
C1186  H1204   1.112   .     S
C1187  H1222   1.111   .     S
C1187  H194    1.109   1_556 S
C1187  H1315   1.111   1_455 S
C1188  O1226   1.301   .     A
C1188  O1228   1.294   .     A
C1189  C1190   1.547   .     S
C1189  H1214   1.088   .     S
C1189  H1215   1.113   .     S
C1190  H1213   1.110   .     S
C1190  H1211   1.112   .     S
C1190  C1191   1.529   .     S
C1191  H1210   1.111   .     S
C1191  H1208   1.111   .     S
C1192  O1231   1.291   .     A
C1192  C1194   1.432   .     S
C1192  O1229   1.296   .     A
C1193  O1232   1.292   .     A
C1193  C1195   1.432   .     S
C1193  O1230   1.295   .     A
C1194  C1307   1.330   1_455 S
C1194  H1313   1.088   1_455 S
C1195  C1250   1.330   .     S
C1195  H1268   1.086   .     S
C1196  H1216   1.084   .     S
C1197  H1217   1.083   .     S
C1197  C1346   1.384   .     S
C1198  H1218   1.083   .     S
C1198  C1364   1.384   .     S
Cu1199 Cu1200  2.700   .     S
Cu1199 O1228   1.957   .     S
Cu1199 O1229   1.960   .     S
Cu1199 O1225   1.964   .     S
Cu1199 O1232   1.957   .     S
Cu1199 N1223   2.029   .     S
Cu1200 O1227   1.957   .     S
Cu1200 O1231   1.957   .     S
Cu1200 O1226   1.964   .     S
Cu1200 O1230   1.960   .     S
Cu1200 N1224   2.029   .     S
H1201  C1250   1.088   .     S
H1203  C1243   1.111   .     S
H1209  C183    1.108   1_556 S
H1212  C1307   1.086   1_455 S
C1233  C1236   1.447   .     S
C1233  O1283   1.295   .     A
C1233  O1281   1.300   .     A
C1234  C1236   1.399   .     A
C1234  H1275   1.084   .     S
C1235  C1253   1.403   .     A
C1235  C1254   1.398   .     A
C1235  C1244   1.448   .     S
C1236  C1252   1.402   .     A
C1237  H1276   1.079   .     S
C1237  N1280   1.349   .     A
C1238  H1277   1.080   .     S
C1238  N1279   1.350   .     A
C1238  C232    1.419   1_556 S
C1239  C1241   1.522   .     S
C1239  N1279   1.399   .     A
C1239  C229    1.420   1_556 S
C1240  N1280   1.398   .     A
C1240  C1245   1.519   .     S
C1241  C1242   1.549   .     S
C1241  H1262   1.087   .     S
C1241  H1263   1.112   .     S
C1242  H1261   1.111   .     S
C1242  C1243   1.530   .     S
C1242  H1260   1.112   .     S
C1243  H1278   1.111   .     S
C1243  H250    1.109   1_556 S
C1244  O1282   1.301   .     A
C1244  O1284   1.294   .     A
C1245  C1246   1.547   .     S
C1245  H1270   1.088   .     S
C1245  H1271   1.113   .     S
C1246  H1269   1.110   .     S
C1246  H1267   1.112   .     S
C1246  C1247   1.529   .     S
C1247  H1266   1.111   .     S
C1247  H1264   1.111   .     S
C1248  O1287   1.291   .     A
C1248  C1250   1.432   .     S
C1248  O1285   1.296   .     A
C1249  O1288   1.292   .     A
C1249  C1251   1.432   .     S
C1249  O1286   1.295   .     A
C1251  C1306   1.330   .     S
C1251  H1324   1.086   .     S
C1252  H1272   1.084   .     S
C1253  H1273   1.083   .     S
C1253  C1402   1.384   .     S
C1254  H1274   1.083   .     S
C1254  C1420   1.384   .     S
Cu1255 Cu1256  2.700   .     S
Cu1255 O1284   1.957   .     S
Cu1255 O1285   1.960   .     S
Cu1255 O1281   1.964   .     S
Cu1255 O1288   1.957   .     S
Cu1255 N1279   2.029   .     S
Cu1256 O1283   1.957   .     S
Cu1256 O1287   1.957   .     S
Cu1256 O1282   1.964   .     S
Cu1256 O1286   1.960   .     S
Cu1256 N1280   2.029   .     S
H1257  C1306   1.088   .     S
H1259  C1299   1.111   .     S
H1265  C239    1.108   1_556 S
C1289  C1292   1.447   .     S
C1289  O1339   1.295   .     A
C1289  O1337   1.300   .     A
C1290  C1292   1.399   .     A
C1290  H1331   1.084   .     S
C1291  C1309   1.403   .     A
C1291  C1310   1.398   .     A
C1291  C1300   1.448   .     S
C1292  C1308   1.402   .     A
C1293  H1332   1.079   .     S
C1293  N1336   1.349   .     A
C1294  H1333   1.080   .     S
C1294  N1335   1.350   .     A
C1294  C288    1.419   1_556 S
C1295  C1297   1.522   .     S
C1295  N1335   1.399   .     A
C1295  C285    1.420   1_556 S
C1296  N1336   1.398   .     A
C1296  C1301   1.519   .     S
C1297  C1298   1.549   .     S
C1297  H1318   1.087   .     S
C1297  H1319   1.112   .     S
C1298  H1317   1.111   .     S
C1298  C1299   1.530   .     S
C1298  H1316   1.112   .     S
C1299  H1334   1.111   .     S
C1299  H306    1.109   1_556 S
C1300  O1338   1.301   .     A
C1300  O1340   1.294   .     A
C1301  C1302   1.547   .     S
C1301  H1326   1.088   .     S
C1301  H1327   1.113   .     S
C1302  H1325   1.110   .     S
C1302  H1323   1.112   .     S
C1302  C1303   1.529   .     S
C1303  H1322   1.111   .     S
C1303  H1320   1.111   .     S
C1304  O1343   1.291   .     A
C1304  C1306   1.432   .     S
C1304  O1341   1.296   .     A
C1305  O1344   1.292   .     A
C1305  C1307   1.432   .     S
C1305  O1342   1.295   .     A
C1307  C1194   1.330   1_655 S
C1307  H1212   1.086   1_655 S
C1308  H1328   1.084   .     S
C1309  H1329   1.083   .     S
C1309  C1458   1.384   .     S
C1310  H1330   1.083   .     S
C1310  C1476   1.384   .     S
Cu1311 Cu1312  2.700   .     S
Cu1311 O1340   1.957   .     S
Cu1311 O1341   1.960   .     S
Cu1311 O1337   1.964   .     S
Cu1311 O1344   1.957   .     S
Cu1311 N1335   2.029   .     S
Cu1312 O1339   1.957   .     S
Cu1312 O1343   1.957   .     S
Cu1312 O1338   1.964   .     S
Cu1312 O1342   1.960   .     S
Cu1312 N1336   2.029   .     S
H1313  C1194   1.088   1_655 S
H1315  C1187   1.111   1_655 S
H1321  C295    1.108   1_556 S
C1345  C1348   1.447   .     S
C1345  O1395   1.295   .     A
C1345  O1393   1.300   .     A
C1346  C1348   1.399   .     A
C1346  H1387   1.084   .     S
C1347  C1365   1.403   .     A
C1347  C1366   1.398   .     A
C1347  C1356   1.448   .     S
C1348  C1364   1.402   .     A
C1349  H1388   1.079   .     S
C1349  N1392   1.349   .     A
C1350  H1389   1.080   .     S
C1350  N1391   1.350   .     A
C1350  C344    1.419   1_556 S
C1351  C1353   1.522   .     S
C1351  N1391   1.399   .     A
C1351  C341    1.420   1_556 S
C1352  N1392   1.398   .     A
C1352  C1357   1.519   .     S
C1353  C1354   1.549   .     S
C1353  H1374   1.087   .     S
C1353  H1375   1.112   .     S
C1354  H1373   1.111   .     S
C1354  C1355   1.530   .     S
C1354  H1372   1.112   .     S
C1355  H1390   1.111   .     S
C1355  H362    1.109   1_556 S
C1355  H1483   1.111   1_455 S
C1356  O1394   1.301   .     A
C1356  O1396   1.294   .     A
C1357  C1358   1.547   .     S
C1357  H1382   1.088   .     S
C1357  H1383   1.113   .     S
C1358  H1381   1.110   .     S
C1358  H1379   1.112   .     S
C1358  C1359   1.529   .     S
C1359  H1378   1.111   .     S
C1359  H1376   1.111   .     S
C1360  O1399   1.291   .     A
C1360  C1362   1.432   .     S
C1360  O1397   1.296   .     A
C1361  O1400   1.292   .     A
C1361  C1363   1.432   .     S
C1361  O1398   1.295   .     A
C1362  C1475   1.330   1_455 S
C1362  H1481   1.088   1_455 S
C1363  C1418   1.330   .     S
C1363  H1436   1.086   .     S
C1364  H1384   1.084   .     S
C1365  H1385   1.083   .     S
C1365  C1010   1.384   1_565 S
C1366  H1386   1.083   .     S
C1366  C1028   1.384   1_565 S
Cu1367 Cu1368  2.700   .     S
Cu1367 O1396   1.957   .     S
Cu1367 O1397   1.960   .     S
Cu1367 O1393   1.964   .     S
Cu1367 O1400   1.957   .     S
Cu1367 N1391   2.029   .     S
Cu1368 O1395   1.957   .     S
Cu1368 O1399   1.957   .     S
Cu1368 O1394   1.964   .     S
Cu1368 O1398   1.960   .     S
Cu1368 N1392   2.029   .     S
H1369  C1418   1.088   .     S
H1371  C1411   1.111   .     S
H1377  C351    1.108   1_556 S
H1380  C1475   1.086   1_455 S
C1401  C1404   1.447   .     S
C1401  O1451   1.295   .     A
C1401  O1449   1.300   .     A
C1402  C1404   1.399   .     A
C1402  H1443   1.084   .     S
C1403  C1421   1.403   .     A
C1403  C1422   1.398   .     A
C1403  C1412   1.448   .     S
C1404  C1420   1.402   .     A
C1405  H1444   1.079   .     S
C1405  N1448   1.349   .     A
C1406  H1445   1.080   .     S
C1406  N1447   1.350   .     A
C1406  C400    1.419   1_556 S
C1407  C1409   1.522   .     S
C1407  N1447   1.399   .     A
C1407  C397    1.420   1_556 S
C1408  N1448   1.398   .     A
C1408  C1413   1.519   .     S
C1409  C1410   1.549   .     S
C1409  H1430   1.087   .     S
C1409  H1431   1.112   .     S
C1410  H1429   1.111   .     S
C1410  C1411   1.530   .     S
C1410  H1428   1.112   .     S
C1411  H1446   1.111   .     S
C1411  H418    1.109   1_556 S
C1412  O1450   1.301   .     A
C1412  O1452   1.294   .     A
C1413  C1414   1.547   .     S
C1413  H1438   1.088   .     S
C1413  H1439   1.113   .     S
C1414  H1437   1.110   .     S
C1414  H1435   1.112   .     S
C1414  C1415   1.529   .     S
C1415  H1434   1.111   .     S
C1415  H1432   1.111   .     S
C1416  O1455   1.291   .     A
C1416  C1418   1.432   .     S
C1416  O1453   1.296   .     A
C1417  O1456   1.292   .     A
C1417  C1419   1.432   .     S
C1417  O1454   1.295   .     A
C1419  C1474   1.330   .     S
C1419  H1492   1.086   .     S
C1420  H1440   1.084   .     S
C1421  H1441   1.083   .     S
C1421  C1066   1.384   1_565 S
C1422  H1442   1.083   .     S
C1422  C1084   1.384   1_565 S
Cu1423 Cu1424  2.700   .     S
Cu1423 O1452   1.957   .     S
Cu1423 O1453   1.960   .     S
Cu1423 O1449   1.964   .     S
Cu1423 O1456   1.957   .     S
Cu1423 N1447   2.029   .     S
Cu1424 O1451   1.957   .     S
Cu1424 O1455   1.957   .     S
Cu1424 O1450   1.964   .     S
Cu1424 O1454   1.960   .     S
Cu1424 N1448   2.029   .     S
H1425  C1474   1.088   .     S
H1427  C1467   1.111   .     S
H1433  C407    1.108   1_556 S
C1457  C1460   1.447   .     S
C1457  O1507   1.295   .     A
C1457  O1505   1.300   .     A
C1458  C1460   1.399   .     A
C1458  H1499   1.084   .     S
C1459  C1477   1.403   .     A
C1459  C1478   1.398   .     A
C1459  C1468   1.448   .     S
C1460  C1476   1.402   .     A
C1461  H1500   1.079   .     S
C1461  N1504   1.349   .     A
C1462  H1501   1.080   .     S
C1462  N1503   1.350   .     A
C1462  C456    1.419   1_556 S
C1463  C1465   1.522   .     S
C1463  N1503   1.399   .     A
C1463  C453    1.420   1_556 S
C1464  N1504   1.398   .     A
C1464  C1469   1.519   .     S
C1465  C1466   1.549   .     S
C1465  H1486   1.087   .     S
C1465  H1487   1.112   .     S
C1466  H1485   1.111   .     S
C1466  C1467   1.530   .     S
C1466  H1484   1.112   .     S
C1467  H1502   1.111   .     S
C1467  H474    1.109   1_556 S
C1468  O1506   1.301   .     A
C1468  O1508   1.294   .     A
C1469  C1470   1.547   .     S
C1469  H1494   1.088   .     S
C1469  H1495   1.113   .     S
C1470  H1493   1.110   .     S
C1470  H1491   1.112   .     S
C1470  C1471   1.529   .     S
C1471  H1490   1.111   .     S
C1471  H1488   1.111   .     S
C1472  O1511   1.291   .     A
C1472  C1474   1.432   .     S
C1472  O1509   1.296   .     A
C1473  O1512   1.292   .     A
C1473  C1475   1.432   .     S
C1473  O1510   1.295   .     A
C1475  C1362   1.330   1_655 S
C1475  H1380   1.086   1_655 S
C1476  H1496   1.084   .     S
C1477  H1497   1.083   .     S
C1477  C1122   1.384   1_565 S
C1478  H1498   1.083   .     S
C1478  C1140   1.384   1_565 S
Cu1479 Cu1480  2.700   .     S
Cu1479 O1508   1.957   .     S
Cu1479 O1509   1.960   .     S
Cu1479 O1505   1.964   .     S
Cu1479 O1512   1.957   .     S
Cu1479 N1503   2.029   .     S
Cu1480 O1507   1.957   .     S
Cu1480 O1511   1.957   .     S
Cu1480 O1506   1.964   .     S
Cu1480 O1510   1.960   .     S
Cu1480 N1504   2.029   .     S
H1481  C1362   1.088   1_655 S
H1483  C1355   1.111   1_655 S
H1489  C463    1.108   1_556 S
