data_str_m2_o2_o5_pcu_sym.3
_audit_creation_date              2020-01-03
_audit_creation_method            'Materials Studio'
_symmetry_space_group_name_H-M    'P1'
_symmetry_Int_Tables_number       1
_symmetry_cell_setting            triclinic
loop_
_symmetry_equiv_pos_as_xyz
  x,y,z
_cell_length_a                    30.2812
_cell_length_b                    27.7401
_cell_length_c                    27.2573
_cell_angle_alpha                 90.0000
_cell_angle_beta                  90.1536
_cell_angle_gamma                 90.0001
loop_
_atom_site_label
_atom_site_type_symbol
_atom_site_fract_x
_atom_site_fract_y
_atom_site_fract_z
_atom_site_U_iso_or_equiv
_atom_site_adp_type
_atom_site_occupancy
C1     C     0.16494   0.25000   0.16663   0.00000  Uiso   1.00
C2     C     0.27162   0.44603   0.20374   0.00000  Uiso   1.00
C3     C     0.24998   0.25000   0.07351   0.00000  Uiso   1.00
C4     C     0.25002   0.25000   0.25982   0.00000  Uiso   1.00
C5     C     0.25000   0.02732   0.16667   0.00000  Uiso   1.00
C6     C     0.25000   0.47264   0.16667   0.00000  Uiso   1.00
C7     C     0.24999   0.25001   0.02183   0.00000  Uiso   1.00
C8     C     0.25001   0.25001   0.31150   0.00000  Uiso   1.00
C9     C     0.04756   0.29115   0.15169   0.00000  Uiso   1.00
C10    C     0.45234   0.20876   0.15180   0.00000  Uiso   1.00
C11    C     0.45244   0.29115   0.18167   0.00000  Uiso   1.00
C12    C     0.33506   0.25000   0.16671   0.00000  Uiso   1.00
C13    C     0.04766   0.20876   0.18155   0.00000  Uiso   1.00
C14    C     0.09347   0.29127   0.15199   0.00000  Uiso   1.00
C15    C     0.40644   0.20866   0.15216   0.00000  Uiso   1.00
C16    C     0.40653   0.29127   0.18136   0.00000  Uiso   1.00
C17    C     0.09356   0.20866   0.18119   0.00000  Uiso   1.00
C18    C     0.11671   0.24998   0.16660   0.00000  Uiso   1.00
C19    C     0.38329   0.24998   0.16674   0.00000  Uiso   1.00
C20    C     0.02428   0.24996   0.16665   0.00000  Uiso   1.00
C21    C     0.47572   0.24996   0.16671   0.00000  Uiso   1.00
C22    C     0.28380   0.10467   0.18832   0.00000  Uiso   1.00
C23    C     0.22851   0.39530   0.13049   0.00000  Uiso   1.00
C24    C     0.21620   0.10467   0.14502   0.00000  Uiso   1.00
C25    C     0.27149   0.39530   0.20285   0.00000  Uiso   1.00
C26    C     0.28461   0.05394   0.18840   0.00000  Uiso   1.00
C27    C     0.22838   0.44603   0.12959   0.00000  Uiso   1.00
C28    C     0.21539   0.05394   0.14493   0.00000  Uiso   1.00
Cu29   Cu    0.25000   0.29821   0.16667   0.00000  Uiso   1.00
Cu30   Cu    0.25000   0.20178   0.16667   0.00000  Uiso   1.00
H31    H     0.31053   0.12424   0.20557   0.00000  Uiso   1.00
H32    H     0.38909   0.17651   0.14037   0.00000  Uiso   1.00
H33    H     0.38925   0.32341   0.19319   0.00000  Uiso   1.00
H34    H     0.11091   0.17651   0.19298   0.00000  Uiso   1.00
H35    H     0.31263   0.03597   0.20492   0.00000  Uiso   1.00
H36    H     0.21185   0.46399   0.09950   0.00000  Uiso   1.00
H37    H     0.18737   0.03597   0.12842   0.00000  Uiso   1.00
H38    H     0.28815   0.46399   0.23383   0.00000  Uiso   1.00
H39    H     0.21144   0.37567   0.10189   0.00000  Uiso   1.00
H40    H     0.18947   0.12424   0.12777   0.00000  Uiso   1.00
H41    H     0.28856   0.37567   0.23145   0.00000  Uiso   1.00
H42    H     0.03032   0.32308   0.13919   0.00000  Uiso   1.00
H43    H     0.46951   0.17682   0.13929   0.00000  Uiso   1.00
H44    H     0.46968   0.32308   0.19417   0.00000  Uiso   1.00
H45    H     0.03050   0.17682   0.19408   0.00000  Uiso   1.00
H46    H     0.11075   0.32341   0.14016   0.00000  Uiso   1.00
N47    N     0.25000   0.12934   0.16667   0.00000  Uiso   1.00
N48    N     0.25000   0.37065   0.16667   0.00000  Uiso   1.00
O49    O     0.18573   0.29071   0.16667   0.00000  Uiso   1.00
O50    O     0.31427   0.20928   0.16666   0.00000  Uiso   1.00
O51    O     0.31427   0.29071   0.16666   0.00000  Uiso   1.00
O52    O     0.18573   0.20928   0.16667   0.00000  Uiso   1.00
O53    O     0.25000   0.29071   0.09613   0.00000  Uiso   1.00
O54    O     0.25000   0.20929   0.23720   0.00000  Uiso   1.00
O55    O     0.25000   0.29071   0.23720   0.00000  Uiso   1.00
O56    O     0.25000   0.20929   0.09613   0.00000  Uiso   1.00
C57    C     0.66494   0.25000   0.16663   0.00000  Uiso   1.00
C58    C     0.77162   0.44603   0.20374   0.00000  Uiso   1.00
C59    C     0.74998   0.25000   0.07351   0.00000  Uiso   1.00
C60    C     0.75002   0.25000   0.25982   0.00000  Uiso   1.00
C61    C     0.75000   0.02732   0.16667   0.00000  Uiso   1.00
C62    C     0.75000   0.47264   0.16667   0.00000  Uiso   1.00
C63    C     0.74999   0.25001   0.02183   0.00000  Uiso   1.00
C64    C     0.75001   0.25001   0.31150   0.00000  Uiso   1.00
C65    C     0.54756   0.29115   0.15169   0.00000  Uiso   1.00
C66    C     0.95234   0.20876   0.15180   0.00000  Uiso   1.00
C67    C     0.95244   0.29115   0.18167   0.00000  Uiso   1.00
C68    C     0.83506   0.25000   0.16671   0.00000  Uiso   1.00
C69    C     0.54766   0.20876   0.18155   0.00000  Uiso   1.00
C70    C     0.59347   0.29127   0.15199   0.00000  Uiso   1.00
C71    C     0.90644   0.20866   0.15216   0.00000  Uiso   1.00
C72    C     0.90653   0.29127   0.18136   0.00000  Uiso   1.00
C73    C     0.59356   0.20866   0.18119   0.00000  Uiso   1.00
C74    C     0.61671   0.24998   0.16660   0.00000  Uiso   1.00
C75    C     0.88329   0.24998   0.16674   0.00000  Uiso   1.00
C76    C     0.52428   0.24996   0.16665   0.00000  Uiso   1.00
C77    C     0.97572   0.24996   0.16671   0.00000  Uiso   1.00
C78    C     0.78380   0.10467   0.18832   0.00000  Uiso   1.00
C79    C     0.72851   0.39530   0.13049   0.00000  Uiso   1.00
C80    C     0.71620   0.10467   0.14502   0.00000  Uiso   1.00
C81    C     0.77149   0.39530   0.20285   0.00000  Uiso   1.00
C82    C     0.78461   0.05394   0.18840   0.00000  Uiso   1.00
C83    C     0.72838   0.44603   0.12959   0.00000  Uiso   1.00
C84    C     0.71539   0.05394   0.14493   0.00000  Uiso   1.00
Cu85   Cu    0.75000   0.29821   0.16667   0.00000  Uiso   1.00
Cu86   Cu    0.75000   0.20178   0.16667   0.00000  Uiso   1.00
H87    H     0.81053   0.12424   0.20557   0.00000  Uiso   1.00
H88    H     0.88909   0.17651   0.14037   0.00000  Uiso   1.00
H89    H     0.88925   0.32341   0.19319   0.00000  Uiso   1.00
H90    H     0.61091   0.17651   0.19298   0.00000  Uiso   1.00
H91    H     0.81263   0.03597   0.20492   0.00000  Uiso   1.00
H92    H     0.71185   0.46399   0.09950   0.00000  Uiso   1.00
H93    H     0.68737   0.03597   0.12842   0.00000  Uiso   1.00
H94    H     0.78815   0.46399   0.23383   0.00000  Uiso   1.00
H95    H     0.71144   0.37567   0.10189   0.00000  Uiso   1.00
H96    H     0.68947   0.12424   0.12777   0.00000  Uiso   1.00
H97    H     0.78856   0.37567   0.23145   0.00000  Uiso   1.00
H98    H     0.53032   0.32308   0.13919   0.00000  Uiso   1.00
H99    H     0.96951   0.17682   0.13929   0.00000  Uiso   1.00
H100   H     0.96968   0.32308   0.19417   0.00000  Uiso   1.00
H101   H     0.53050   0.17682   0.19408   0.00000  Uiso   1.00
H102   H     0.61075   0.32341   0.14016   0.00000  Uiso   1.00
N103   N     0.75000   0.12934   0.16667   0.00000  Uiso   1.00
N104   N     0.75000   0.37065   0.16667   0.00000  Uiso   1.00
O105   O     0.68573   0.29071   0.16667   0.00000  Uiso   1.00
O106   O     0.81427   0.20928   0.16666   0.00000  Uiso   1.00
O107   O     0.81427   0.29071   0.16666   0.00000  Uiso   1.00
O108   O     0.68573   0.20928   0.16667   0.00000  Uiso   1.00
O109   O     0.75000   0.29071   0.09613   0.00000  Uiso   1.00
O110   O     0.75000   0.20929   0.23720   0.00000  Uiso   1.00
O111   O     0.75000   0.29071   0.23720   0.00000  Uiso   1.00
O112   O     0.75000   0.20929   0.09613   0.00000  Uiso   1.00
C113   C     0.16494   0.75000   0.16663   0.00000  Uiso   1.00
C114   C     0.27162   0.94603   0.20374   0.00000  Uiso   1.00
C115   C     0.24998   0.75000   0.07351   0.00000  Uiso   1.00
C116   C     0.25002   0.75000   0.25982   0.00000  Uiso   1.00
C117   C     0.25000   0.52732   0.16667   0.00000  Uiso   1.00
C118   C     0.25000   0.97264   0.16667   0.00000  Uiso   1.00
C119   C     0.24999   0.75001   0.02183   0.00000  Uiso   1.00
C120   C     0.25001   0.75001   0.31150   0.00000  Uiso   1.00
C121   C     0.04756   0.79115   0.15169   0.00000  Uiso   1.00
C122   C     0.45234   0.70876   0.15180   0.00000  Uiso   1.00
C123   C     0.45244   0.79115   0.18167   0.00000  Uiso   1.00
C124   C     0.33506   0.75000   0.16671   0.00000  Uiso   1.00
C125   C     0.04766   0.70876   0.18155   0.00000  Uiso   1.00
C126   C     0.09347   0.79127   0.15199   0.00000  Uiso   1.00
C127   C     0.40644   0.70866   0.15216   0.00000  Uiso   1.00
C128   C     0.40653   0.79127   0.18136   0.00000  Uiso   1.00
C129   C     0.09356   0.70866   0.18119   0.00000  Uiso   1.00
C130   C     0.11671   0.74998   0.16660   0.00000  Uiso   1.00
C131   C     0.38329   0.74998   0.16674   0.00000  Uiso   1.00
C132   C     0.02428   0.74996   0.16665   0.00000  Uiso   1.00
C133   C     0.47572   0.74996   0.16671   0.00000  Uiso   1.00
C134   C     0.28380   0.60467   0.18832   0.00000  Uiso   1.00
C135   C     0.22851   0.89530   0.13049   0.00000  Uiso   1.00
C136   C     0.21620   0.60467   0.14502   0.00000  Uiso   1.00
C137   C     0.27149   0.89530   0.20285   0.00000  Uiso   1.00
C138   C     0.28461   0.55394   0.18840   0.00000  Uiso   1.00
C139   C     0.22838   0.94603   0.12959   0.00000  Uiso   1.00
C140   C     0.21539   0.55394   0.14493   0.00000  Uiso   1.00
Cu141  Cu    0.25000   0.79821   0.16667   0.00000  Uiso   1.00
Cu142  Cu    0.25000   0.70178   0.16667   0.00000  Uiso   1.00
H143   H     0.31053   0.62424   0.20557   0.00000  Uiso   1.00
H144   H     0.38909   0.67651   0.14037   0.00000  Uiso   1.00
H145   H     0.38925   0.82341   0.19319   0.00000  Uiso   1.00
H146   H     0.11091   0.67651   0.19298   0.00000  Uiso   1.00
H147   H     0.31263   0.53597   0.20492   0.00000  Uiso   1.00
H148   H     0.21185   0.96399   0.09950   0.00000  Uiso   1.00
H149   H     0.18737   0.53597   0.12842   0.00000  Uiso   1.00
H150   H     0.28815   0.96399   0.23383   0.00000  Uiso   1.00
H151   H     0.21144   0.87567   0.10189   0.00000  Uiso   1.00
H152   H     0.18947   0.62424   0.12777   0.00000  Uiso   1.00
H153   H     0.28856   0.87567   0.23145   0.00000  Uiso   1.00
H154   H     0.03032   0.82308   0.13919   0.00000  Uiso   1.00
H155   H     0.46951   0.67682   0.13929   0.00000  Uiso   1.00
H156   H     0.46968   0.82308   0.19417   0.00000  Uiso   1.00
H157   H     0.03050   0.67682   0.19408   0.00000  Uiso   1.00
H158   H     0.11075   0.82341   0.14016   0.00000  Uiso   1.00
N159   N     0.25000   0.62934   0.16667   0.00000  Uiso   1.00
N160   N     0.25000   0.87065   0.16667   0.00000  Uiso   1.00
O161   O     0.18573   0.79071   0.16667   0.00000  Uiso   1.00
O162   O     0.31427   0.70928   0.16666   0.00000  Uiso   1.00
O163   O     0.31427   0.79071   0.16666   0.00000  Uiso   1.00
O164   O     0.18573   0.70928   0.16667   0.00000  Uiso   1.00
O165   O     0.25000   0.79071   0.09613   0.00000  Uiso   1.00
O166   O     0.25000   0.70929   0.23720   0.00000  Uiso   1.00
O167   O     0.25000   0.79071   0.23720   0.00000  Uiso   1.00
O168   O     0.25000   0.70929   0.09613   0.00000  Uiso   1.00
C169   C     0.66494   0.75000   0.16663   0.00000  Uiso   1.00
C170   C     0.77162   0.94603   0.20374   0.00000  Uiso   1.00
C171   C     0.74998   0.75000   0.07351   0.00000  Uiso   1.00
C172   C     0.75002   0.75000   0.25982   0.00000  Uiso   1.00
C173   C     0.75000   0.52732   0.16667   0.00000  Uiso   1.00
C174   C     0.75000   0.97264   0.16667   0.00000  Uiso   1.00
C175   C     0.74999   0.75001   0.02183   0.00000  Uiso   1.00
C176   C     0.75001   0.75001   0.31150   0.00000  Uiso   1.00
C177   C     0.54756   0.79115   0.15169   0.00000  Uiso   1.00
C178   C     0.95234   0.70876   0.15180   0.00000  Uiso   1.00
C179   C     0.95244   0.79115   0.18167   0.00000  Uiso   1.00
C180   C     0.83506   0.75000   0.16671   0.00000  Uiso   1.00
C181   C     0.54766   0.70876   0.18155   0.00000  Uiso   1.00
C182   C     0.59347   0.79127   0.15199   0.00000  Uiso   1.00
C183   C     0.90644   0.70866   0.15216   0.00000  Uiso   1.00
C184   C     0.90653   0.79127   0.18136   0.00000  Uiso   1.00
C185   C     0.59356   0.70866   0.18119   0.00000  Uiso   1.00
C186   C     0.61671   0.74998   0.16660   0.00000  Uiso   1.00
C187   C     0.88329   0.74998   0.16674   0.00000  Uiso   1.00
C188   C     0.52428   0.74996   0.16665   0.00000  Uiso   1.00
C189   C     0.97572   0.74996   0.16671   0.00000  Uiso   1.00
C190   C     0.78380   0.60467   0.18832   0.00000  Uiso   1.00
C191   C     0.72851   0.89530   0.13049   0.00000  Uiso   1.00
C192   C     0.71620   0.60467   0.14502   0.00000  Uiso   1.00
C193   C     0.77149   0.89530   0.20285   0.00000  Uiso   1.00
C194   C     0.78461   0.55394   0.18840   0.00000  Uiso   1.00
C195   C     0.72838   0.94603   0.12959   0.00000  Uiso   1.00
C196   C     0.71539   0.55394   0.14493   0.00000  Uiso   1.00
Cu197  Cu    0.75000   0.79821   0.16667   0.00000  Uiso   1.00
Cu198  Cu    0.75000   0.70178   0.16667   0.00000  Uiso   1.00
H199   H     0.81053   0.62424   0.20557   0.00000  Uiso   1.00
H200   H     0.88909   0.67651   0.14037   0.00000  Uiso   1.00
H201   H     0.88925   0.82341   0.19319   0.00000  Uiso   1.00
H202   H     0.61091   0.67651   0.19298   0.00000  Uiso   1.00
H203   H     0.81263   0.53597   0.20492   0.00000  Uiso   1.00
H204   H     0.71185   0.96399   0.09950   0.00000  Uiso   1.00
H205   H     0.68737   0.53597   0.12842   0.00000  Uiso   1.00
H206   H     0.78815   0.96399   0.23383   0.00000  Uiso   1.00
H207   H     0.71144   0.87567   0.10189   0.00000  Uiso   1.00
H208   H     0.68947   0.62424   0.12777   0.00000  Uiso   1.00
H209   H     0.78856   0.87567   0.23145   0.00000  Uiso   1.00
H210   H     0.53032   0.82308   0.13919   0.00000  Uiso   1.00
H211   H     0.96951   0.67682   0.13929   0.00000  Uiso   1.00
H212   H     0.96968   0.82308   0.19417   0.00000  Uiso   1.00
H213   H     0.53050   0.67682   0.19408   0.00000  Uiso   1.00
H214   H     0.61075   0.82341   0.14016   0.00000  Uiso   1.00
N215   N     0.75000   0.62934   0.16667   0.00000  Uiso   1.00
N216   N     0.75000   0.87065   0.16667   0.00000  Uiso   1.00
O217   O     0.68573   0.79071   0.16667   0.00000  Uiso   1.00
O218   O     0.81427   0.70928   0.16666   0.00000  Uiso   1.00
O219   O     0.81427   0.79071   0.16666   0.00000  Uiso   1.00
O220   O     0.68573   0.70928   0.16667   0.00000  Uiso   1.00
O221   O     0.75000   0.79071   0.09613   0.00000  Uiso   1.00
O222   O     0.75000   0.70929   0.23720   0.00000  Uiso   1.00
O223   O     0.75000   0.79071   0.23720   0.00000  Uiso   1.00
O224   O     0.75000   0.70929   0.09613   0.00000  Uiso   1.00
C225   C     0.16494   0.25000   0.49996   0.00000  Uiso   1.00
C226   C     0.27162   0.44603   0.53708   0.00000  Uiso   1.00
C227   C     0.24998   0.25000   0.40684   0.00000  Uiso   1.00
C228   C     0.25002   0.25000   0.59316   0.00000  Uiso   1.00
C229   C     0.25000   0.02732   0.50000   0.00000  Uiso   1.00
C230   C     0.25000   0.47264   0.50000   0.00000  Uiso   1.00
C231   C     0.24999   0.25001   0.35517   0.00000  Uiso   1.00
C232   C     0.25001   0.25001   0.64483   0.00000  Uiso   1.00
C233   C     0.04756   0.29115   0.48502   0.00000  Uiso   1.00
C234   C     0.45234   0.20876   0.48514   0.00000  Uiso   1.00
C235   C     0.45244   0.29115   0.51500   0.00000  Uiso   1.00
C236   C     0.33506   0.25000   0.50004   0.00000  Uiso   1.00
C237   C     0.04766   0.20876   0.51489   0.00000  Uiso   1.00
C238   C     0.09347   0.29127   0.48532   0.00000  Uiso   1.00
C239   C     0.40644   0.20866   0.48549   0.00000  Uiso   1.00
C240   C     0.40653   0.29127   0.51469   0.00000  Uiso   1.00
C241   C     0.09356   0.20866   0.51452   0.00000  Uiso   1.00
C242   C     0.11671   0.24998   0.49993   0.00000  Uiso   1.00
C243   C     0.38329   0.24998   0.50008   0.00000  Uiso   1.00
C244   C     0.02428   0.24996   0.49999   0.00000  Uiso   1.00
C245   C     0.47572   0.24996   0.50004   0.00000  Uiso   1.00
C246   C     0.28380   0.10467   0.52165   0.00000  Uiso   1.00
C247   C     0.22851   0.39530   0.46382   0.00000  Uiso   1.00
C248   C     0.21620   0.10467   0.47835   0.00000  Uiso   1.00
C249   C     0.27149   0.39530   0.53618   0.00000  Uiso   1.00
C250   C     0.28461   0.05394   0.52174   0.00000  Uiso   1.00
C251   C     0.22838   0.44603   0.46292   0.00000  Uiso   1.00
C252   C     0.21539   0.05394   0.47826   0.00000  Uiso   1.00
Cu253  Cu    0.25000   0.29821   0.50000   0.00000  Uiso   1.00
Cu254  Cu    0.25000   0.20178   0.50000   0.00000  Uiso   1.00
H255   H     0.31053   0.12424   0.53890   0.00000  Uiso   1.00
H256   H     0.38909   0.17651   0.47370   0.00000  Uiso   1.00
H257   H     0.38925   0.32341   0.52652   0.00000  Uiso   1.00
H258   H     0.11091   0.17651   0.52631   0.00000  Uiso   1.00
H259   H     0.31263   0.03597   0.53825   0.00000  Uiso   1.00
H260   H     0.21185   0.46399   0.43283   0.00000  Uiso   1.00
H261   H     0.18737   0.03597   0.46175   0.00000  Uiso   1.00
H262   H     0.28815   0.46399   0.56717   0.00000  Uiso   1.00
H263   H     0.21144   0.37567   0.43522   0.00000  Uiso   1.00
H264   H     0.18947   0.12424   0.46110   0.00000  Uiso   1.00
H265   H     0.28856   0.37567   0.56478   0.00000  Uiso   1.00
H266   H     0.03032   0.32308   0.47252   0.00000  Uiso   1.00
H267   H     0.46951   0.17682   0.47262   0.00000  Uiso   1.00
H268   H     0.46968   0.32308   0.52751   0.00000  Uiso   1.00
H269   H     0.03050   0.17682   0.52741   0.00000  Uiso   1.00
H270   H     0.11075   0.32341   0.47349   0.00000  Uiso   1.00
N271   N     0.25000   0.12934   0.50000   0.00000  Uiso   1.00
N272   N     0.25000   0.37065   0.50000   0.00000  Uiso   1.00
O273   O     0.18573   0.29071   0.50000   0.00000  Uiso   1.00
O274   O     0.31427   0.20928   0.50000   0.00000  Uiso   1.00
O275   O     0.31427   0.29071   0.50000   0.00000  Uiso   1.00
O276   O     0.18573   0.20928   0.50000   0.00000  Uiso   1.00
O277   O     0.25000   0.29071   0.42946   0.00000  Uiso   1.00
O278   O     0.25000   0.20929   0.57054   0.00000  Uiso   1.00
O279   O     0.25000   0.29071   0.57054   0.00000  Uiso   1.00
O280   O     0.25000   0.20929   0.42946   0.00000  Uiso   1.00
C281   C     0.66494   0.25000   0.49996   0.00000  Uiso   1.00
C282   C     0.77162   0.44603   0.53708   0.00000  Uiso   1.00
C283   C     0.74998   0.25000   0.40684   0.00000  Uiso   1.00
C284   C     0.75002   0.25000   0.59316   0.00000  Uiso   1.00
C285   C     0.75000   0.02732   0.50000   0.00000  Uiso   1.00
C286   C     0.75000   0.47264   0.50000   0.00000  Uiso   1.00
C287   C     0.74999   0.25001   0.35517   0.00000  Uiso   1.00
C288   C     0.75001   0.25001   0.64483   0.00000  Uiso   1.00
C289   C     0.54756   0.29115   0.48502   0.00000  Uiso   1.00
C290   C     0.95234   0.20876   0.48514   0.00000  Uiso   1.00
C291   C     0.95244   0.29115   0.51500   0.00000  Uiso   1.00
C292   C     0.83506   0.25000   0.50004   0.00000  Uiso   1.00
C293   C     0.54766   0.20876   0.51489   0.00000  Uiso   1.00
C294   C     0.59347   0.29127   0.48532   0.00000  Uiso   1.00
C295   C     0.90644   0.20866   0.48549   0.00000  Uiso   1.00
C296   C     0.90653   0.29127   0.51469   0.00000  Uiso   1.00
C297   C     0.59356   0.20866   0.51452   0.00000  Uiso   1.00
C298   C     0.61671   0.24998   0.49993   0.00000  Uiso   1.00
C299   C     0.88329   0.24998   0.50008   0.00000  Uiso   1.00
C300   C     0.52428   0.24996   0.49999   0.00000  Uiso   1.00
C301   C     0.97572   0.24996   0.50004   0.00000  Uiso   1.00
C302   C     0.78380   0.10467   0.52165   0.00000  Uiso   1.00
C303   C     0.72851   0.39530   0.46382   0.00000  Uiso   1.00
C304   C     0.71620   0.10467   0.47835   0.00000  Uiso   1.00
C305   C     0.77149   0.39530   0.53618   0.00000  Uiso   1.00
C306   C     0.78461   0.05394   0.52174   0.00000  Uiso   1.00
C307   C     0.72838   0.44603   0.46292   0.00000  Uiso   1.00
C308   C     0.71539   0.05394   0.47826   0.00000  Uiso   1.00
Cu309  Cu    0.75000   0.29821   0.50000   0.00000  Uiso   1.00
Cu310  Cu    0.75000   0.20178   0.50000   0.00000  Uiso   1.00
H311   H     0.81053   0.12424   0.53890   0.00000  Uiso   1.00
H312   H     0.88909   0.17651   0.47370   0.00000  Uiso   1.00
H313   H     0.88925   0.32341   0.52652   0.00000  Uiso   1.00
H314   H     0.61091   0.17651   0.52631   0.00000  Uiso   1.00
H315   H     0.81263   0.03597   0.53825   0.00000  Uiso   1.00
H316   H     0.71185   0.46399   0.43283   0.00000  Uiso   1.00
H317   H     0.68737   0.03597   0.46175   0.00000  Uiso   1.00
H318   H     0.78815   0.46399   0.56717   0.00000  Uiso   1.00
H319   H     0.71144   0.37567   0.43522   0.00000  Uiso   1.00
H320   H     0.68947   0.12424   0.46110   0.00000  Uiso   1.00
H321   H     0.78856   0.37567   0.56478   0.00000  Uiso   1.00
H322   H     0.53032   0.32308   0.47252   0.00000  Uiso   1.00
H323   H     0.96951   0.17682   0.47262   0.00000  Uiso   1.00
H324   H     0.96968   0.32308   0.52751   0.00000  Uiso   1.00
H325   H     0.53050   0.17682   0.52741   0.00000  Uiso   1.00
H326   H     0.61075   0.32341   0.47349   0.00000  Uiso   1.00
N327   N     0.75000   0.12934   0.50000   0.00000  Uiso   1.00
N328   N     0.75000   0.37065   0.50000   0.00000  Uiso   1.00
O329   O     0.68573   0.29071   0.50000   0.00000  Uiso   1.00
O330   O     0.81427   0.20928   0.50000   0.00000  Uiso   1.00
O331   O     0.81427   0.29071   0.50000   0.00000  Uiso   1.00
O332   O     0.68573   0.20928   0.50000   0.00000  Uiso   1.00
O333   O     0.75000   0.29071   0.42946   0.00000  Uiso   1.00
O334   O     0.75000   0.20929   0.57054   0.00000  Uiso   1.00
O335   O     0.75000   0.29071   0.57054   0.00000  Uiso   1.00
O336   O     0.75000   0.20929   0.42946   0.00000  Uiso   1.00
C337   C     0.16494   0.75000   0.49996   0.00000  Uiso   1.00
C338   C     0.27162   0.94603   0.53708   0.00000  Uiso   1.00
C339   C     0.24998   0.75000   0.40684   0.00000  Uiso   1.00
C340   C     0.25002   0.75000   0.59316   0.00000  Uiso   1.00
C341   C     0.25000   0.52732   0.50000   0.00000  Uiso   1.00
C342   C     0.25000   0.97264   0.50000   0.00000  Uiso   1.00
C343   C     0.24999   0.75001   0.35517   0.00000  Uiso   1.00
C344   C     0.25001   0.75001   0.64483   0.00000  Uiso   1.00
C345   C     0.04756   0.79115   0.48502   0.00000  Uiso   1.00
C346   C     0.45234   0.70876   0.48514   0.00000  Uiso   1.00
C347   C     0.45244   0.79115   0.51500   0.00000  Uiso   1.00
C348   C     0.33506   0.75000   0.50004   0.00000  Uiso   1.00
C349   C     0.04766   0.70876   0.51489   0.00000  Uiso   1.00
C350   C     0.09347   0.79127   0.48532   0.00000  Uiso   1.00
C351   C     0.40644   0.70866   0.48549   0.00000  Uiso   1.00
C352   C     0.40653   0.79127   0.51469   0.00000  Uiso   1.00
C353   C     0.09356   0.70866   0.51452   0.00000  Uiso   1.00
C354   C     0.11671   0.74998   0.49993   0.00000  Uiso   1.00
C355   C     0.38329   0.74998   0.50008   0.00000  Uiso   1.00
C356   C     0.02428   0.74996   0.49999   0.00000  Uiso   1.00
C357   C     0.47572   0.74996   0.50004   0.00000  Uiso   1.00
C358   C     0.28380   0.60467   0.52165   0.00000  Uiso   1.00
C359   C     0.22851   0.89530   0.46382   0.00000  Uiso   1.00
C360   C     0.21620   0.60467   0.47835   0.00000  Uiso   1.00
C361   C     0.27149   0.89530   0.53618   0.00000  Uiso   1.00
C362   C     0.28461   0.55394   0.52174   0.00000  Uiso   1.00
C363   C     0.22838   0.94603   0.46292   0.00000  Uiso   1.00
C364   C     0.21539   0.55394   0.47826   0.00000  Uiso   1.00
Cu365  Cu    0.25000   0.79821   0.50000   0.00000  Uiso   1.00
Cu366  Cu    0.25000   0.70178   0.50000   0.00000  Uiso   1.00
H367   H     0.31053   0.62424   0.53890   0.00000  Uiso   1.00
H368   H     0.38909   0.67651   0.47370   0.00000  Uiso   1.00
H369   H     0.38925   0.82341   0.52652   0.00000  Uiso   1.00
H370   H     0.11091   0.67651   0.52631   0.00000  Uiso   1.00
H371   H     0.31263   0.53597   0.53825   0.00000  Uiso   1.00
H372   H     0.21185   0.96399   0.43283   0.00000  Uiso   1.00
H373   H     0.18737   0.53597   0.46175   0.00000  Uiso   1.00
H374   H     0.28815   0.96399   0.56717   0.00000  Uiso   1.00
H375   H     0.21144   0.87567   0.43522   0.00000  Uiso   1.00
H376   H     0.18947   0.62424   0.46110   0.00000  Uiso   1.00
H377   H     0.28856   0.87567   0.56478   0.00000  Uiso   1.00
H378   H     0.03032   0.82308   0.47252   0.00000  Uiso   1.00
H379   H     0.46951   0.67682   0.47262   0.00000  Uiso   1.00
H380   H     0.46968   0.82308   0.52751   0.00000  Uiso   1.00
H381   H     0.03050   0.67682   0.52741   0.00000  Uiso   1.00
H382   H     0.11075   0.82341   0.47349   0.00000  Uiso   1.00
N383   N     0.25000   0.62934   0.50000   0.00000  Uiso   1.00
N384   N     0.25000   0.87065   0.50000   0.00000  Uiso   1.00
O385   O     0.18573   0.79071   0.50000   0.00000  Uiso   1.00
O386   O     0.31427   0.70928   0.50000   0.00000  Uiso   1.00
O387   O     0.31427   0.79071   0.50000   0.00000  Uiso   1.00
O388   O     0.18573   0.70928   0.50000   0.00000  Uiso   1.00
O389   O     0.25000   0.79071   0.42946   0.00000  Uiso   1.00
O390   O     0.25000   0.70929   0.57054   0.00000  Uiso   1.00
O391   O     0.25000   0.79071   0.57054   0.00000  Uiso   1.00
O392   O     0.25000   0.70929   0.42946   0.00000  Uiso   1.00
C393   C     0.66494   0.75000   0.49996   0.00000  Uiso   1.00
C394   C     0.77162   0.94603   0.53708   0.00000  Uiso   1.00
C395   C     0.74998   0.75000   0.40684   0.00000  Uiso   1.00
C396   C     0.75002   0.75000   0.59316   0.00000  Uiso   1.00
C397   C     0.75000   0.52732   0.50000   0.00000  Uiso   1.00
C398   C     0.75000   0.97264   0.50000   0.00000  Uiso   1.00
C399   C     0.74999   0.75001   0.35517   0.00000  Uiso   1.00
C400   C     0.75001   0.75001   0.64483   0.00000  Uiso   1.00
C401   C     0.54756   0.79115   0.48502   0.00000  Uiso   1.00
C402   C     0.95234   0.70876   0.48514   0.00000  Uiso   1.00
C403   C     0.95244   0.79115   0.51500   0.00000  Uiso   1.00
C404   C     0.83506   0.75000   0.50004   0.00000  Uiso   1.00
C405   C     0.54766   0.70876   0.51489   0.00000  Uiso   1.00
C406   C     0.59347   0.79127   0.48532   0.00000  Uiso   1.00
C407   C     0.90644   0.70866   0.48549   0.00000  Uiso   1.00
C408   C     0.90653   0.79127   0.51469   0.00000  Uiso   1.00
C409   C     0.59356   0.70866   0.51452   0.00000  Uiso   1.00
C410   C     0.61671   0.74998   0.49993   0.00000  Uiso   1.00
C411   C     0.88329   0.74998   0.50008   0.00000  Uiso   1.00
C412   C     0.52428   0.74996   0.49999   0.00000  Uiso   1.00
C413   C     0.97572   0.74996   0.50004   0.00000  Uiso   1.00
C414   C     0.78380   0.60467   0.52165   0.00000  Uiso   1.00
C415   C     0.72851   0.89530   0.46382   0.00000  Uiso   1.00
C416   C     0.71620   0.60467   0.47835   0.00000  Uiso   1.00
C417   C     0.77149   0.89530   0.53618   0.00000  Uiso   1.00
C418   C     0.78461   0.55394   0.52174   0.00000  Uiso   1.00
C419   C     0.72838   0.94603   0.46292   0.00000  Uiso   1.00
C420   C     0.71539   0.55394   0.47826   0.00000  Uiso   1.00
Cu421  Cu    0.75000   0.79821   0.50000   0.00000  Uiso   1.00
Cu422  Cu    0.75000   0.70178   0.50000   0.00000  Uiso   1.00
H423   H     0.81053   0.62424   0.53890   0.00000  Uiso   1.00
H424   H     0.88909   0.67651   0.47370   0.00000  Uiso   1.00
H425   H     0.88925   0.82341   0.52652   0.00000  Uiso   1.00
H426   H     0.61091   0.67651   0.52631   0.00000  Uiso   1.00
H427   H     0.81263   0.53597   0.53825   0.00000  Uiso   1.00
H428   H     0.71185   0.96399   0.43283   0.00000  Uiso   1.00
H429   H     0.68737   0.53597   0.46175   0.00000  Uiso   1.00
H430   H     0.78815   0.96399   0.56717   0.00000  Uiso   1.00
H431   H     0.71144   0.87567   0.43522   0.00000  Uiso   1.00
H432   H     0.68947   0.62424   0.46110   0.00000  Uiso   1.00
H433   H     0.78856   0.87567   0.56478   0.00000  Uiso   1.00
H434   H     0.53032   0.82308   0.47252   0.00000  Uiso   1.00
H435   H     0.96951   0.67682   0.47262   0.00000  Uiso   1.00
H436   H     0.96968   0.82308   0.52751   0.00000  Uiso   1.00
H437   H     0.53050   0.67682   0.52741   0.00000  Uiso   1.00
H438   H     0.61075   0.82341   0.47349   0.00000  Uiso   1.00
N439   N     0.75000   0.62934   0.50000   0.00000  Uiso   1.00
N440   N     0.75000   0.87065   0.50000   0.00000  Uiso   1.00
O441   O     0.68573   0.79071   0.50000   0.00000  Uiso   1.00
O442   O     0.81427   0.70928   0.50000   0.00000  Uiso   1.00
O443   O     0.81427   0.79071   0.50000   0.00000  Uiso   1.00
O444   O     0.68573   0.70928   0.50000   0.00000  Uiso   1.00
O445   O     0.75000   0.79071   0.42946   0.00000  Uiso   1.00
O446   O     0.75000   0.70929   0.57054   0.00000  Uiso   1.00
O447   O     0.75000   0.79071   0.57054   0.00000  Uiso   1.00
O448   O     0.75000   0.70929   0.42946   0.00000  Uiso   1.00
C449   C     0.16494   0.25000   0.83330   0.00000  Uiso   1.00
C450   C     0.27162   0.44603   0.87041   0.00000  Uiso   1.00
C451   C     0.24998   0.25000   0.74018   0.00000  Uiso   1.00
C452   C     0.25002   0.25000   0.92649   0.00000  Uiso   1.00
C453   C     0.25000   0.02732   0.83333   0.00000  Uiso   1.00
C454   C     0.25000   0.47264   0.83333   0.00000  Uiso   1.00
C455   C     0.24999   0.25001   0.68850   0.00000  Uiso   1.00
C456   C     0.25001   0.25001   0.97817   0.00000  Uiso   1.00
C457   C     0.04756   0.29115   0.81836   0.00000  Uiso   1.00
C458   C     0.45234   0.20876   0.81847   0.00000  Uiso   1.00
C459   C     0.45244   0.29115   0.84834   0.00000  Uiso   1.00
C460   C     0.33506   0.25000   0.83337   0.00000  Uiso   1.00
C461   C     0.04766   0.20876   0.84822   0.00000  Uiso   1.00
C462   C     0.09347   0.29127   0.81866   0.00000  Uiso   1.00
C463   C     0.40644   0.20866   0.81883   0.00000  Uiso   1.00
C464   C     0.40653   0.29127   0.84802   0.00000  Uiso   1.00
C465   C     0.09356   0.20866   0.84785   0.00000  Uiso   1.00
C466   C     0.11671   0.24998   0.83327   0.00000  Uiso   1.00
C467   C     0.38329   0.24998   0.83341   0.00000  Uiso   1.00
C468   C     0.02428   0.24996   0.83332   0.00000  Uiso   1.00
C469   C     0.47572   0.24996   0.83338   0.00000  Uiso   1.00
C470   C     0.28380   0.10467   0.85498   0.00000  Uiso   1.00
C471   C     0.22851   0.39530   0.79715   0.00000  Uiso   1.00
C472   C     0.21620   0.10467   0.81168   0.00000  Uiso   1.00
C473   C     0.27149   0.39530   0.86951   0.00000  Uiso   1.00
C474   C     0.28461   0.05394   0.85507   0.00000  Uiso   1.00
C475   C     0.22838   0.44603   0.79626   0.00000  Uiso   1.00
C476   C     0.21539   0.05394   0.81160   0.00000  Uiso   1.00
Cu477  Cu    0.25000   0.29821   0.83333   0.00000  Uiso   1.00
Cu478  Cu    0.25000   0.20178   0.83333   0.00000  Uiso   1.00
H479   H     0.31053   0.12424   0.87223   0.00000  Uiso   1.00
H480   H     0.38909   0.17651   0.80703   0.00000  Uiso   1.00
H481   H     0.38925   0.32341   0.85985   0.00000  Uiso   1.00
H482   H     0.11091   0.17651   0.85965   0.00000  Uiso   1.00
H483   H     0.31263   0.03597   0.87158   0.00000  Uiso   1.00
H484   H     0.21185   0.46399   0.76617   0.00000  Uiso   1.00
H485   H     0.18737   0.03597   0.79508   0.00000  Uiso   1.00
H486   H     0.28815   0.46399   0.90050   0.00000  Uiso   1.00
H487   H     0.21144   0.37567   0.76855   0.00000  Uiso   1.00
H488   H     0.18947   0.12424   0.79443   0.00000  Uiso   1.00
H489   H     0.28856   0.37567   0.89812   0.00000  Uiso   1.00
H490   H     0.03032   0.32308   0.80586   0.00000  Uiso   1.00
H491   H     0.46951   0.17682   0.80595   0.00000  Uiso   1.00
H492   H     0.46968   0.32308   0.86084   0.00000  Uiso   1.00
H493   H     0.03050   0.17682   0.86074   0.00000  Uiso   1.00
H494   H     0.11075   0.32341   0.80682   0.00000  Uiso   1.00
N495   N     0.25000   0.12934   0.83333   0.00000  Uiso   1.00
N496   N     0.25000   0.37065   0.83333   0.00000  Uiso   1.00
O497   O     0.18573   0.29071   0.83334   0.00000  Uiso   1.00
O498   O     0.31427   0.20928   0.83333   0.00000  Uiso   1.00
O499   O     0.31427   0.29071   0.83333   0.00000  Uiso   1.00
O500   O     0.18573   0.20928   0.83334   0.00000  Uiso   1.00
O501   O     0.25000   0.29071   0.76280   0.00000  Uiso   1.00
O502   O     0.25000   0.20929   0.90387   0.00000  Uiso   1.00
O503   O     0.25000   0.29071   0.90387   0.00000  Uiso   1.00
O504   O     0.25000   0.20929   0.76280   0.00000  Uiso   1.00
C505   C     0.66494   0.25000   0.83330   0.00000  Uiso   1.00
C506   C     0.77162   0.44603   0.87041   0.00000  Uiso   1.00
C507   C     0.74998   0.25000   0.74018   0.00000  Uiso   1.00
C508   C     0.75002   0.25000   0.92649   0.00000  Uiso   1.00
C509   C     0.75000   0.02732   0.83333   0.00000  Uiso   1.00
C510   C     0.75000   0.47264   0.83333   0.00000  Uiso   1.00
C511   C     0.74999   0.25001   0.68850   0.00000  Uiso   1.00
C512   C     0.75001   0.25001   0.97817   0.00000  Uiso   1.00
C513   C     0.54756   0.29115   0.81836   0.00000  Uiso   1.00
C514   C     0.95234   0.20876   0.81847   0.00000  Uiso   1.00
C515   C     0.95244   0.29115   0.84834   0.00000  Uiso   1.00
C516   C     0.83506   0.25000   0.83337   0.00000  Uiso   1.00
C517   C     0.54766   0.20876   0.84822   0.00000  Uiso   1.00
C518   C     0.59347   0.29127   0.81866   0.00000  Uiso   1.00
C519   C     0.90644   0.20866   0.81883   0.00000  Uiso   1.00
C520   C     0.90653   0.29127   0.84802   0.00000  Uiso   1.00
C521   C     0.59356   0.20866   0.84785   0.00000  Uiso   1.00
C522   C     0.61671   0.24998   0.83327   0.00000  Uiso   1.00
C523   C     0.88329   0.24998   0.83341   0.00000  Uiso   1.00
C524   C     0.52428   0.24996   0.83332   0.00000  Uiso   1.00
C525   C     0.97572   0.24996   0.83338   0.00000  Uiso   1.00
C526   C     0.78380   0.10467   0.85498   0.00000  Uiso   1.00
C527   C     0.72851   0.39530   0.79715   0.00000  Uiso   1.00
C528   C     0.71620   0.10467   0.81168   0.00000  Uiso   1.00
C529   C     0.77149   0.39530   0.86951   0.00000  Uiso   1.00
C530   C     0.78461   0.05394   0.85507   0.00000  Uiso   1.00
C531   C     0.72838   0.44603   0.79626   0.00000  Uiso   1.00
C532   C     0.71539   0.05394   0.81160   0.00000  Uiso   1.00
Cu533  Cu    0.75000   0.29821   0.83333   0.00000  Uiso   1.00
Cu534  Cu    0.75000   0.20178   0.83333   0.00000  Uiso   1.00
H535   H     0.81053   0.12424   0.87223   0.00000  Uiso   1.00
H536   H     0.88909   0.17651   0.80703   0.00000  Uiso   1.00
H537   H     0.88925   0.32341   0.85985   0.00000  Uiso   1.00
H538   H     0.61091   0.17651   0.85965   0.00000  Uiso   1.00
H539   H     0.81263   0.03597   0.87158   0.00000  Uiso   1.00
H540   H     0.71185   0.46399   0.76617   0.00000  Uiso   1.00
H541   H     0.68737   0.03597   0.79508   0.00000  Uiso   1.00
H542   H     0.78815   0.46399   0.90050   0.00000  Uiso   1.00
H543   H     0.71144   0.37567   0.76855   0.00000  Uiso   1.00
H544   H     0.68947   0.12424   0.79443   0.00000  Uiso   1.00
H545   H     0.78856   0.37567   0.89812   0.00000  Uiso   1.00
H546   H     0.53032   0.32308   0.80586   0.00000  Uiso   1.00
H547   H     0.96951   0.17682   0.80595   0.00000  Uiso   1.00
H548   H     0.96968   0.32308   0.86084   0.00000  Uiso   1.00
H549   H     0.53050   0.17682   0.86074   0.00000  Uiso   1.00
H550   H     0.61075   0.32341   0.80682   0.00000  Uiso   1.00
N551   N     0.75000   0.12934   0.83333   0.00000  Uiso   1.00
N552   N     0.75000   0.37065   0.83333   0.00000  Uiso   1.00
O553   O     0.68573   0.29071   0.83334   0.00000  Uiso   1.00
O554   O     0.81427   0.20928   0.83333   0.00000  Uiso   1.00
O555   O     0.81427   0.29071   0.83333   0.00000  Uiso   1.00
O556   O     0.68573   0.20928   0.83334   0.00000  Uiso   1.00
O557   O     0.75000   0.29071   0.76280   0.00000  Uiso   1.00
O558   O     0.75000   0.20929   0.90387   0.00000  Uiso   1.00
O559   O     0.75000   0.29071   0.90387   0.00000  Uiso   1.00
O560   O     0.75000   0.20929   0.76280   0.00000  Uiso   1.00
C561   C     0.16494   0.75000   0.83330   0.00000  Uiso   1.00
C562   C     0.27162   0.94603   0.87041   0.00000  Uiso   1.00
C563   C     0.24998   0.75000   0.74018   0.00000  Uiso   1.00
C564   C     0.25002   0.75000   0.92649   0.00000  Uiso   1.00
C565   C     0.25000   0.52732   0.83333   0.00000  Uiso   1.00
C566   C     0.25000   0.97264   0.83333   0.00000  Uiso   1.00
C567   C     0.24999   0.75001   0.68850   0.00000  Uiso   1.00
C568   C     0.25001   0.75001   0.97817   0.00000  Uiso   1.00
C569   C     0.04756   0.79115   0.81836   0.00000  Uiso   1.00
C570   C     0.45234   0.70876   0.81847   0.00000  Uiso   1.00
C571   C     0.45244   0.79115   0.84834   0.00000  Uiso   1.00
C572   C     0.33506   0.75000   0.83337   0.00000  Uiso   1.00
C573   C     0.04766   0.70876   0.84822   0.00000  Uiso   1.00
C574   C     0.09347   0.79127   0.81866   0.00000  Uiso   1.00
C575   C     0.40644   0.70866   0.81883   0.00000  Uiso   1.00
C576   C     0.40653   0.79127   0.84802   0.00000  Uiso   1.00
C577   C     0.09356   0.70866   0.84785   0.00000  Uiso   1.00
C578   C     0.11671   0.74998   0.83327   0.00000  Uiso   1.00
C579   C     0.38329   0.74998   0.83341   0.00000  Uiso   1.00
C580   C     0.02428   0.74996   0.83332   0.00000  Uiso   1.00
C581   C     0.47572   0.74996   0.83338   0.00000  Uiso   1.00
C582   C     0.28380   0.60467   0.85498   0.00000  Uiso   1.00
C583   C     0.22851   0.89530   0.79715   0.00000  Uiso   1.00
C584   C     0.21620   0.60467   0.81168   0.00000  Uiso   1.00
C585   C     0.27149   0.89530   0.86951   0.00000  Uiso   1.00
C586   C     0.28461   0.55394   0.85507   0.00000  Uiso   1.00
C587   C     0.22838   0.94603   0.79626   0.00000  Uiso   1.00
C588   C     0.21539   0.55394   0.81160   0.00000  Uiso   1.00
Cu589  Cu    0.25000   0.79821   0.83333   0.00000  Uiso   1.00
Cu590  Cu    0.25000   0.70178   0.83333   0.00000  Uiso   1.00
H591   H     0.31053   0.62424   0.87223   0.00000  Uiso   1.00
H592   H     0.38909   0.67651   0.80703   0.00000  Uiso   1.00
H593   H     0.38925   0.82341   0.85985   0.00000  Uiso   1.00
H594   H     0.11091   0.67651   0.85965   0.00000  Uiso   1.00
H595   H     0.31263   0.53597   0.87158   0.00000  Uiso   1.00
H596   H     0.21185   0.96399   0.76617   0.00000  Uiso   1.00
H597   H     0.18737   0.53597   0.79508   0.00000  Uiso   1.00
H598   H     0.28815   0.96399   0.90050   0.00000  Uiso   1.00
H599   H     0.21144   0.87567   0.76855   0.00000  Uiso   1.00
H600   H     0.18947   0.62424   0.79443   0.00000  Uiso   1.00
H601   H     0.28856   0.87567   0.89812   0.00000  Uiso   1.00
H602   H     0.03032   0.82308   0.80586   0.00000  Uiso   1.00
H603   H     0.46951   0.67682   0.80595   0.00000  Uiso   1.00
H604   H     0.46968   0.82308   0.86084   0.00000  Uiso   1.00
H605   H     0.03050   0.67682   0.86074   0.00000  Uiso   1.00
H606   H     0.11075   0.82341   0.80682   0.00000  Uiso   1.00
N607   N     0.25000   0.62934   0.83333   0.00000  Uiso   1.00
N608   N     0.25000   0.87065   0.83333   0.00000  Uiso   1.00
O609   O     0.18573   0.79071   0.83334   0.00000  Uiso   1.00
O610   O     0.31427   0.70928   0.83333   0.00000  Uiso   1.00
O611   O     0.31427   0.79071   0.83333   0.00000  Uiso   1.00
O612   O     0.18573   0.70928   0.83334   0.00000  Uiso   1.00
O613   O     0.25000   0.79071   0.76280   0.00000  Uiso   1.00
O614   O     0.25000   0.70929   0.90387   0.00000  Uiso   1.00
O615   O     0.25000   0.79071   0.90387   0.00000  Uiso   1.00
O616   O     0.25000   0.70929   0.76280   0.00000  Uiso   1.00
C617   C     0.66494   0.75000   0.83330   0.00000  Uiso   1.00
C618   C     0.77162   0.94603   0.87041   0.00000  Uiso   1.00
C619   C     0.74998   0.75000   0.74018   0.00000  Uiso   1.00
C620   C     0.75002   0.75000   0.92649   0.00000  Uiso   1.00
C621   C     0.75000   0.52732   0.83333   0.00000  Uiso   1.00
C622   C     0.75000   0.97264   0.83333   0.00000  Uiso   1.00
C623   C     0.74999   0.75001   0.68850   0.00000  Uiso   1.00
C624   C     0.75001   0.75001   0.97817   0.00000  Uiso   1.00
C625   C     0.54756   0.79115   0.81836   0.00000  Uiso   1.00
C626   C     0.95234   0.70876   0.81847   0.00000  Uiso   1.00
C627   C     0.95244   0.79115   0.84834   0.00000  Uiso   1.00
C628   C     0.83506   0.75000   0.83337   0.00000  Uiso   1.00
C629   C     0.54766   0.70876   0.84822   0.00000  Uiso   1.00
C630   C     0.59347   0.79127   0.81866   0.00000  Uiso   1.00
C631   C     0.90644   0.70866   0.81883   0.00000  Uiso   1.00
C632   C     0.90653   0.79127   0.84802   0.00000  Uiso   1.00
C633   C     0.59356   0.70866   0.84785   0.00000  Uiso   1.00
C634   C     0.61671   0.74998   0.83327   0.00000  Uiso   1.00
C635   C     0.88329   0.74998   0.83341   0.00000  Uiso   1.00
C636   C     0.52428   0.74996   0.83332   0.00000  Uiso   1.00
C637   C     0.97572   0.74996   0.83338   0.00000  Uiso   1.00
C638   C     0.78380   0.60467   0.85498   0.00000  Uiso   1.00
C639   C     0.72851   0.89530   0.79715   0.00000  Uiso   1.00
C640   C     0.71620   0.60467   0.81168   0.00000  Uiso   1.00
C641   C     0.77149   0.89530   0.86951   0.00000  Uiso   1.00
C642   C     0.78461   0.55394   0.85507   0.00000  Uiso   1.00
C643   C     0.72838   0.94603   0.79626   0.00000  Uiso   1.00
C644   C     0.71539   0.55394   0.81160   0.00000  Uiso   1.00
Cu645  Cu    0.75000   0.79821   0.83333   0.00000  Uiso   1.00
Cu646  Cu    0.75000   0.70178   0.83333   0.00000  Uiso   1.00
H647   H     0.81053   0.62424   0.87223   0.00000  Uiso   1.00
H648   H     0.88909   0.67651   0.80703   0.00000  Uiso   1.00
H649   H     0.88925   0.82341   0.85985   0.00000  Uiso   1.00
H650   H     0.61091   0.67651   0.85965   0.00000  Uiso   1.00
H651   H     0.81263   0.53597   0.87158   0.00000  Uiso   1.00
H652   H     0.71185   0.96399   0.76617   0.00000  Uiso   1.00
H653   H     0.68737   0.53597   0.79508   0.00000  Uiso   1.00
H654   H     0.78815   0.96399   0.90050   0.00000  Uiso   1.00
H655   H     0.71144   0.87567   0.76855   0.00000  Uiso   1.00
H656   H     0.68947   0.62424   0.79443   0.00000  Uiso   1.00
H657   H     0.78856   0.87567   0.89812   0.00000  Uiso   1.00
H658   H     0.53032   0.82308   0.80586   0.00000  Uiso   1.00
H659   H     0.96951   0.67682   0.80595   0.00000  Uiso   1.00
H660   H     0.96968   0.82308   0.86084   0.00000  Uiso   1.00
H661   H     0.53050   0.67682   0.86074   0.00000  Uiso   1.00
H662   H     0.61075   0.82341   0.80682   0.00000  Uiso   1.00
N663   N     0.75000   0.62934   0.83333   0.00000  Uiso   1.00
N664   N     0.75000   0.87065   0.83333   0.00000  Uiso   1.00
O665   O     0.68573   0.79071   0.83334   0.00000  Uiso   1.00
O666   O     0.81427   0.70928   0.83333   0.00000  Uiso   1.00
O667   O     0.81427   0.79071   0.83333   0.00000  Uiso   1.00
O668   O     0.68573   0.70928   0.83334   0.00000  Uiso   1.00
O669   O     0.75000   0.79071   0.76280   0.00000  Uiso   1.00
O670   O     0.75000   0.70929   0.90387   0.00000  Uiso   1.00
O671   O     0.75000   0.79071   0.90387   0.00000  Uiso   1.00
O672   O     0.75000   0.70929   0.76280   0.00000  Uiso   1.00
loop_
_geom_bond_atom_site_label_1
_geom_bond_atom_site_label_2
_geom_bond_distance
_geom_bond_site_symmetry_2
_ccdc_geom_bond_type
C1     C18     1.461   .     S
C1     O49     1.293   .     A
C1     O52     1.293   .     A
C2     C6      1.411   .     A
C2     C25     1.407   .     A
C2     H38     1.081   .     S
C3     O53     1.287   .     A
C3     O56     1.287   .     A
C3     C7      1.409   .     S
C4     C8      1.409   .     S
C4     O55     1.287   .     A
C4     O54     1.287   .     A
C5     C28     1.411   .     A
C5     C26     1.411   .     A
C5     C118    1.517   1_545 S
C6     C27     1.411   .     A
C6     C117    1.517   .     S
C7     C456    1.190   1_554 S
C8     C231    1.190   .     S
C9     C14     1.390   .     A
C9     C20     1.404   .     A
C9     H42     1.083   .     S
C10    C15     1.390   .     A
C10    C21     1.404   .     A
C10    H43     1.083   .     S
C11    C16     1.390   .     A
C11    H44     1.083   .     S
C11    C21     1.404   .     A
C12    O50     1.293   .     A
C12    C19     1.461   .     S
C12    O51     1.293   .     A
C13    C17     1.390   .     A
C13    H45     1.083   .     S
C13    C20     1.404   .     A
C14    C18     1.402   .     A
C14    H46     1.083   .     S
C15    C19     1.402   .     A
C15    H32     1.083   .     S
C16    H33     1.083   .     S
C16    C19     1.402   .     A
C17    C18     1.402   .     A
C17    H34     1.083   .     S
C20    C77     1.470   1_455 S
C21    C76     1.470   .     S
C22    N47     1.364   .     A
C22    H31     1.081   .     S
C22    C26     1.407   .     A
C23    C27     1.407   .     A
C23    H39     1.081   .     S
C23    N48     1.364   .     A
C24    H40     1.081   .     S
C24    N47     1.364   .     A
C24    C28     1.407   .     A
C25    N48     1.364   .     A
C25    H41     1.081   .     S
C26    H35     1.081   .     S
C27    H36     1.081   .     S
C28    H37     1.081   .     S
Cu29   Cu30    2.675   .     S
Cu29   O49     1.957   .     S
Cu29   O53     1.934   .     S
Cu29   N48     2.009   .     S
Cu29   O51     1.957   .     S
Cu29   O55     1.934   .     S
Cu30   O54     1.934   .     S
Cu30   O50     1.957   .     S
Cu30   N47     2.009   .     S
Cu30   O52     1.957   .     S
Cu30   O56     1.934   .     S
C57    C74     1.461   .     S
C57    O105    1.293   .     A
C57    O108    1.293   .     A
C58    C62     1.411   .     A
C58    C81     1.407   .     A
C58    H94     1.081   .     S
C59    O109    1.287   .     A
C59    O112    1.287   .     A
C59    C63     1.409   .     S
C60    C64     1.409   .     S
C60    O111    1.287   .     A
C60    O110    1.287   .     A
C61    C84     1.411   .     A
C61    C82     1.411   .     A
C61    C174    1.517   1_545 S
C62    C83     1.411   .     A
C62    C173    1.517   .     S
C63    C512    1.190   1_554 S
C64    C287    1.190   .     S
C65    C70     1.390   .     A
C65    C76     1.404   .     A
C65    H98     1.083   .     S
C66    C71     1.390   .     A
C66    C77     1.404   .     A
C66    H99     1.083   .     S
C67    C72     1.390   .     A
C67    H100    1.083   .     S
C67    C77     1.404   .     A
C68    O106    1.293   .     A
C68    C75     1.461   .     S
C68    O107    1.293   .     A
C69    C73     1.390   .     A
C69    H101    1.083   .     S
C69    C76     1.404   .     A
C70    C74     1.402   .     A
C70    H102    1.083   .     S
C71    C75     1.402   .     A
C71    H88     1.083   .     S
C72    H89     1.083   .     S
C72    C75     1.402   .     A
C73    C74     1.402   .     A
C73    H90     1.083   .     S
C77    C20     1.470   1_655 S
C78    N103    1.364   .     A
C78    H87     1.081   .     S
C78    C82     1.407   .     A
C79    C83     1.407   .     A
C79    H95     1.081   .     S
C79    N104    1.364   .     A
C80    H96     1.081   .     S
C80    N103    1.364   .     A
C80    C84     1.407   .     A
C81    N104    1.364   .     A
C81    H97     1.081   .     S
C82    H91     1.081   .     S
C83    H92     1.081   .     S
C84    H93     1.081   .     S
Cu85   Cu86    2.675   .     S
Cu85   O105    1.957   .     S
Cu85   O109    1.934   .     S
Cu85   N104    2.009   .     S
Cu85   O107    1.957   .     S
Cu85   O111    1.934   .     S
Cu86   O110    1.934   .     S
Cu86   O106    1.957   .     S
Cu86   N103    2.009   .     S
Cu86   O108    1.957   .     S
Cu86   O112    1.934   .     S
C113   C130    1.461   .     S
C113   O161    1.293   .     A
C113   O164    1.293   .     A
C114   C118    1.411   .     A
C114   C137    1.407   .     A
C114   H150    1.081   .     S
C115   O165    1.287   .     A
C115   O168    1.287   .     A
C115   C119    1.409   .     S
C116   C120    1.409   .     S
C116   O167    1.287   .     A
C116   O166    1.287   .     A
C117   C140    1.411   .     A
C117   C138    1.411   .     A
C118   C139    1.411   .     A
C118   C5      1.517   1_565 S
C119   C568    1.190   1_554 S
C120   C343    1.190   .     S
C121   C126    1.390   .     A
C121   C132    1.404   .     A
C121   H154    1.083   .     S
C122   C127    1.390   .     A
C122   C133    1.404   .     A
C122   H155    1.083   .     S
C123   C128    1.390   .     A
C123   H156    1.083   .     S
C123   C133    1.404   .     A
C124   O162    1.293   .     A
C124   C131    1.461   .     S
C124   O163    1.293   .     A
C125   C129    1.390   .     A
C125   H157    1.083   .     S
C125   C132    1.404   .     A
C126   C130    1.402   .     A
C126   H158    1.083   .     S
C127   C131    1.402   .     A
C127   H144    1.083   .     S
C128   H145    1.083   .     S
C128   C131    1.402   .     A
C129   C130    1.402   .     A
C129   H146    1.083   .     S
C132   C189    1.470   1_455 S
C133   C188    1.470   .     S
C134   N159    1.364   .     A
C134   H143    1.081   .     S
C134   C138    1.407   .     A
C135   C139    1.407   .     A
C135   H151    1.081   .     S
C135   N160    1.364   .     A
C136   H152    1.081   .     S
C136   N159    1.364   .     A
C136   C140    1.407   .     A
C137   N160    1.364   .     A
C137   H153    1.081   .     S
C138   H147    1.081   .     S
C139   H148    1.081   .     S
C140   H149    1.081   .     S
Cu141  Cu142   2.675   .     S
Cu141  O161    1.957   .     S
Cu141  O165    1.934   .     S
Cu141  N160    2.009   .     S
Cu141  O163    1.957   .     S
Cu141  O167    1.934   .     S
Cu142  O166    1.934   .     S
Cu142  O162    1.957   .     S
Cu142  N159    2.009   .     S
Cu142  O164    1.957   .     S
Cu142  O168    1.934   .     S
C169   C186    1.461   .     S
C169   O217    1.293   .     A
C169   O220    1.293   .     A
C170   C174    1.411   .     A
C170   C193    1.407   .     A
C170   H206    1.081   .     S
C171   O221    1.287   .     A
C171   O224    1.287   .     A
C171   C175    1.409   .     S
C172   C176    1.409   .     S
C172   O223    1.287   .     A
C172   O222    1.287   .     A
C173   C196    1.411   .     A
C173   C194    1.411   .     A
C174   C195    1.411   .     A
C174   C61     1.517   1_565 S
C175   C624    1.190   1_554 S
C176   C399    1.190   .     S
C177   C182    1.390   .     A
C177   C188    1.404   .     A
C177   H210    1.083   .     S
C178   C183    1.390   .     A
C178   C189    1.404   .     A
C178   H211    1.083   .     S
C179   C184    1.390   .     A
C179   H212    1.083   .     S
C179   C189    1.404   .     A
C180   O218    1.293   .     A
C180   C187    1.461   .     S
C180   O219    1.293   .     A
C181   C185    1.390   .     A
C181   H213    1.083   .     S
C181   C188    1.404   .     A
C182   C186    1.402   .     A
C182   H214    1.083   .     S
C183   C187    1.402   .     A
C183   H200    1.083   .     S
C184   H201    1.083   .     S
C184   C187    1.402   .     A
C185   C186    1.402   .     A
C185   H202    1.083   .     S
C189   C132    1.470   1_655 S
C190   N215    1.364   .     A
C190   H199    1.081   .     S
C190   C194    1.407   .     A
C191   C195    1.407   .     A
C191   H207    1.081   .     S
C191   N216    1.364   .     A
C192   H208    1.081   .     S
C192   N215    1.364   .     A
C192   C196    1.407   .     A
C193   N216    1.364   .     A
C193   H209    1.081   .     S
C194   H203    1.081   .     S
C195   H204    1.081   .     S
C196   H205    1.081   .     S
Cu197  Cu198   2.675   .     S
Cu197  O217    1.957   .     S
Cu197  O221    1.934   .     S
Cu197  N216    2.009   .     S
Cu197  O219    1.957   .     S
Cu197  O223    1.934   .     S
Cu198  O222    1.934   .     S
Cu198  O218    1.957   .     S
Cu198  N215    2.009   .     S
Cu198  O220    1.957   .     S
Cu198  O224    1.934   .     S
C225   C242    1.461   .     S
C225   O273    1.293   .     A
C225   O276    1.293   .     A
C226   C230    1.411   .     A
C226   C249    1.407   .     A
C226   H262    1.081   .     S
C227   O277    1.287   .     A
C227   O280    1.287   .     A
C227   C231    1.409   .     S
C228   C232    1.409   .     S
C228   O279    1.287   .     A
C228   O278    1.287   .     A
C229   C252    1.411   .     A
C229   C250    1.411   .     A
C229   C342    1.517   1_545 S
C230   C251    1.411   .     A
C230   C341    1.517   .     S
C232   C455    1.190   .     S
C233   C238    1.390   .     A
C233   C244    1.404   .     A
C233   H266    1.083   .     S
C234   C239    1.390   .     A
C234   C245    1.404   .     A
C234   H267    1.083   .     S
C235   C240    1.390   .     A
C235   H268    1.083   .     S
C235   C245    1.404   .     A
C236   O274    1.293   .     A
C236   C243    1.461   .     S
C236   O275    1.293   .     A
C237   C241    1.390   .     A
C237   H269    1.083   .     S
C237   C244    1.404   .     A
C238   C242    1.402   .     A
C238   H270    1.083   .     S
C239   C243    1.402   .     A
C239   H256    1.083   .     S
C240   H257    1.083   .     S
C240   C243    1.402   .     A
C241   C242    1.402   .     A
C241   H258    1.083   .     S
C244   C301    1.470   1_455 S
C245   C300    1.470   .     S
C246   N271    1.364   .     A
C246   H255    1.081   .     S
C246   C250    1.407   .     A
C247   C251    1.407   .     A
C247   H263    1.081   .     S
C247   N272    1.364   .     A
C248   H264    1.081   .     S
C248   N271    1.364   .     A
C248   C252    1.407   .     A
C249   N272    1.364   .     A
C249   H265    1.081   .     S
C250   H259    1.081   .     S
C251   H260    1.081   .     S
C252   H261    1.081   .     S
Cu253  Cu254   2.675   .     S
Cu253  O273    1.957   .     S
Cu253  O277    1.934   .     S
Cu253  N272    2.009   .     S
Cu253  O275    1.957   .     S
Cu253  O279    1.934   .     S
Cu254  O278    1.934   .     S
Cu254  O274    1.957   .     S
Cu254  N271    2.009   .     S
Cu254  O276    1.957   .     S
Cu254  O280    1.934   .     S
C281   C298    1.461   .     S
C281   O329    1.293   .     A
C281   O332    1.293   .     A
C282   C286    1.411   .     A
C282   C305    1.407   .     A
C282   H318    1.081   .     S
C283   O333    1.287   .     A
C283   O336    1.287   .     A
C283   C287    1.409   .     S
C284   C288    1.409   .     S
C284   O335    1.287   .     A
C284   O334    1.287   .     A
C285   C308    1.411   .     A
C285   C306    1.411   .     A
C285   C398    1.517   1_545 S
C286   C307    1.411   .     A
C286   C397    1.517   .     S
C288   C511    1.190   .     S
C289   C294    1.390   .     A
C289   C300    1.404   .     A
C289   H322    1.083   .     S
C290   C295    1.390   .     A
C290   C301    1.404   .     A
C290   H323    1.083   .     S
C291   C296    1.390   .     A
C291   H324    1.083   .     S
C291   C301    1.404   .     A
C292   O330    1.293   .     A
C292   C299    1.461   .     S
C292   O331    1.293   .     A
C293   C297    1.390   .     A
C293   H325    1.083   .     S
C293   C300    1.404   .     A
C294   C298    1.402   .     A
C294   H326    1.083   .     S
C295   C299    1.402   .     A
C295   H312    1.083   .     S
C296   H313    1.083   .     S
C296   C299    1.402   .     A
C297   C298    1.402   .     A
C297   H314    1.083   .     S
C301   C244    1.470   1_655 S
C302   N327    1.364   .     A
C302   H311    1.081   .     S
C302   C306    1.407   .     A
C303   C307    1.407   .     A
C303   H319    1.081   .     S
C303   N328    1.364   .     A
C304   H320    1.081   .     S
C304   N327    1.364   .     A
C304   C308    1.407   .     A
C305   N328    1.364   .     A
C305   H321    1.081   .     S
C306   H315    1.081   .     S
C307   H316    1.081   .     S
C308   H317    1.081   .     S
Cu309  Cu310   2.675   .     S
Cu309  O329    1.957   .     S
Cu309  O333    1.934   .     S
Cu309  N328    2.009   .     S
Cu309  O331    1.957   .     S
Cu309  O335    1.934   .     S
Cu310  O334    1.934   .     S
Cu310  O330    1.957   .     S
Cu310  N327    2.009   .     S
Cu310  O332    1.957   .     S
Cu310  O336    1.934   .     S
C337   C354    1.461   .     S
C337   O385    1.293   .     A
C337   O388    1.293   .     A
C338   C342    1.411   .     A
C338   C361    1.407   .     A
C338   H374    1.081   .     S
C339   O389    1.287   .     A
C339   O392    1.287   .     A
C339   C343    1.409   .     S
C340   C344    1.409   .     S
C340   O391    1.287   .     A
C340   O390    1.287   .     A
C341   C364    1.411   .     A
C341   C362    1.411   .     A
C342   C363    1.411   .     A
C342   C229    1.517   1_565 S
C344   C567    1.190   .     S
C345   C350    1.390   .     A
C345   C356    1.404   .     A
C345   H378    1.083   .     S
C346   C351    1.390   .     A
C346   C357    1.404   .     A
C346   H379    1.083   .     S
C347   C352    1.390   .     A
C347   H380    1.083   .     S
C347   C357    1.404   .     A
C348   O386    1.293   .     A
C348   C355    1.461   .     S
C348   O387    1.293   .     A
C349   C353    1.390   .     A
C349   H381    1.083   .     S
C349   C356    1.404   .     A
C350   C354    1.402   .     A
C350   H382    1.083   .     S
C351   C355    1.402   .     A
C351   H368    1.083   .     S
C352   H369    1.083   .     S
C352   C355    1.402   .     A
C353   C354    1.402   .     A
C353   H370    1.083   .     S
C356   C413    1.470   1_455 S
C357   C412    1.470   .     S
C358   N383    1.364   .     A
C358   H367    1.081   .     S
C358   C362    1.407   .     A
C359   C363    1.407   .     A
C359   H375    1.081   .     S
C359   N384    1.364   .     A
C360   H376    1.081   .     S
C360   N383    1.364   .     A
C360   C364    1.407   .     A
C361   N384    1.364   .     A
C361   H377    1.081   .     S
C362   H371    1.081   .     S
C363   H372    1.081   .     S
C364   H373    1.081   .     S
Cu365  Cu366   2.675   .     S
Cu365  O385    1.957   .     S
Cu365  O389    1.934   .     S
Cu365  N384    2.009   .     S
Cu365  O387    1.957   .     S
Cu365  O391    1.934   .     S
Cu366  O390    1.934   .     S
Cu366  O386    1.957   .     S
Cu366  N383    2.009   .     S
Cu366  O388    1.957   .     S
Cu366  O392    1.934   .     S
C393   C410    1.461   .     S
C393   O441    1.293   .     A
C393   O444    1.293   .     A
C394   C398    1.411   .     A
C394   C417    1.407   .     A
C394   H430    1.081   .     S
C395   O445    1.287   .     A
C395   O448    1.287   .     A
C395   C399    1.409   .     S
C396   C400    1.409   .     S
C396   O447    1.287   .     A
C396   O446    1.287   .     A
C397   C420    1.411   .     A
C397   C418    1.411   .     A
C398   C419    1.411   .     A
C398   C285    1.517   1_565 S
C400   C623    1.190   .     S
C401   C406    1.390   .     A
C401   C412    1.404   .     A
C401   H434    1.083   .     S
C402   C407    1.390   .     A
C402   C413    1.404   .     A
C402   H435    1.083   .     S
C403   C408    1.390   .     A
C403   H436    1.083   .     S
C403   C413    1.404   .     A
C404   O442    1.293   .     A
C404   C411    1.461   .     S
C404   O443    1.293   .     A
C405   C409    1.390   .     A
C405   H437    1.083   .     S
C405   C412    1.404   .     A
C406   C410    1.402   .     A
C406   H438    1.083   .     S
C407   C411    1.402   .     A
C407   H424    1.083   .     S
C408   H425    1.083   .     S
C408   C411    1.402   .     A
C409   C410    1.402   .     A
C409   H426    1.083   .     S
C413   C356    1.470   1_655 S
C414   N439    1.364   .     A
C414   H423    1.081   .     S
C414   C418    1.407   .     A
C415   C419    1.407   .     A
C415   H431    1.081   .     S
C415   N440    1.364   .     A
C416   H432    1.081   .     S
C416   N439    1.364   .     A
C416   C420    1.407   .     A
C417   N440    1.364   .     A
C417   H433    1.081   .     S
C418   H427    1.081   .     S
C419   H428    1.081   .     S
C420   H429    1.081   .     S
Cu421  Cu422   2.675   .     S
Cu421  O441    1.957   .     S
Cu421  O445    1.934   .     S
Cu421  N440    2.009   .     S
Cu421  O443    1.957   .     S
Cu421  O447    1.934   .     S
Cu422  O446    1.934   .     S
Cu422  O442    1.957   .     S
Cu422  N439    2.009   .     S
Cu422  O444    1.957   .     S
Cu422  O448    1.934   .     S
C449   C466    1.461   .     S
C449   O497    1.293   .     A
C449   O500    1.293   .     A
C450   C454    1.411   .     A
C450   C473    1.407   .     A
C450   H486    1.081   .     S
C451   O501    1.287   .     A
C451   O504    1.287   .     A
C451   C455    1.409   .     S
C452   C456    1.409   .     S
C452   O503    1.287   .     A
C452   O502    1.287   .     A
C453   C476    1.411   .     A
C453   C474    1.411   .     A
C453   C566    1.517   1_545 S
C454   C475    1.411   .     A
C454   C565    1.517   .     S
C456   C7      1.190   1_556 S
C457   C462    1.390   .     A
C457   C468    1.404   .     A
C457   H490    1.083   .     S
C458   C463    1.390   .     A
C458   C469    1.404   .     A
C458   H491    1.083   .     S
C459   C464    1.390   .     A
C459   H492    1.083   .     S
C459   C469    1.404   .     A
C460   O498    1.293   .     A
C460   C467    1.461   .     S
C460   O499    1.293   .     A
C461   C465    1.390   .     A
C461   H493    1.083   .     S
C461   C468    1.404   .     A
C462   C466    1.402   .     A
C462   H494    1.083   .     S
C463   C467    1.402   .     A
C463   H480    1.083   .     S
C464   H481    1.083   .     S
C464   C467    1.402   .     A
C465   C466    1.402   .     A
C465   H482    1.083   .     S
C468   C525    1.470   1_455 S
C469   C524    1.470   .     S
C470   N495    1.364   .     A
C470   H479    1.081   .     S
C470   C474    1.407   .     A
C471   C475    1.407   .     A
C471   H487    1.081   .     S
C471   N496    1.364   .     A
C472   H488    1.081   .     S
C472   N495    1.364   .     A
C472   C476    1.407   .     A
C473   N496    1.364   .     A
C473   H489    1.081   .     S
C474   H483    1.081   .     S
C475   H484    1.081   .     S
C476   H485    1.081   .     S
Cu477  Cu478   2.675   .     S
Cu477  O497    1.957   .     S
Cu477  O501    1.934   .     S
Cu477  N496    2.009   .     S
Cu477  O499    1.957   .     S
Cu477  O503    1.934   .     S
Cu478  O502    1.934   .     S
Cu478  O498    1.957   .     S
Cu478  N495    2.009   .     S
Cu478  O500    1.957   .     S
Cu478  O504    1.934   .     S
C505   C522    1.461   .     S
C505   O553    1.293   .     A
C505   O556    1.293   .     A
C506   C510    1.411   .     A
C506   C529    1.407   .     A
C506   H542    1.081   .     S
C507   O557    1.287   .     A
C507   O560    1.287   .     A
C507   C511    1.409   .     S
C508   C512    1.409   .     S
C508   O559    1.287   .     A
C508   O558    1.287   .     A
C509   C532    1.411   .     A
C509   C530    1.411   .     A
C509   C622    1.517   1_545 S
C510   C531    1.411   .     A
C510   C621    1.517   .     S
C512   C63     1.190   1_556 S
C513   C518    1.390   .     A
C513   C524    1.404   .     A
C513   H546    1.083   .     S
C514   C519    1.390   .     A
C514   C525    1.404   .     A
C514   H547    1.083   .     S
C515   C520    1.390   .     A
C515   H548    1.083   .     S
C515   C525    1.404   .     A
C516   O554    1.293   .     A
C516   C523    1.461   .     S
C516   O555    1.293   .     A
C517   C521    1.390   .     A
C517   H549    1.083   .     S
C517   C524    1.404   .     A
C518   C522    1.402   .     A
C518   H550    1.083   .     S
C519   C523    1.402   .     A
C519   H536    1.083   .     S
C520   H537    1.083   .     S
C520   C523    1.402   .     A
C521   C522    1.402   .     A
C521   H538    1.083   .     S
C525   C468    1.470   1_655 S
C526   N551    1.364   .     A
C526   H535    1.081   .     S
C526   C530    1.407   .     A
C527   C531    1.407   .     A
C527   H543    1.081   .     S
C527   N552    1.364   .     A
C528   H544    1.081   .     S
C528   N551    1.364   .     A
C528   C532    1.407   .     A
C529   N552    1.364   .     A
C529   H545    1.081   .     S
C530   H539    1.081   .     S
C531   H540    1.081   .     S
C532   H541    1.081   .     S
Cu533  Cu534   2.675   .     S
Cu533  O553    1.957   .     S
Cu533  O557    1.934   .     S
Cu533  N552    2.009   .     S
Cu533  O555    1.957   .     S
Cu533  O559    1.934   .     S
Cu534  O558    1.934   .     S
Cu534  O554    1.957   .     S
Cu534  N551    2.009   .     S
Cu534  O556    1.957   .     S
Cu534  O560    1.934   .     S
C561   C578    1.461   .     S
C561   O609    1.293   .     A
C561   O612    1.293   .     A
C562   C566    1.411   .     A
C562   C585    1.407   .     A
C562   H598    1.081   .     S
C563   O613    1.287   .     A
C563   O616    1.287   .     A
C563   C567    1.409   .     S
C564   C568    1.409   .     S
C564   O615    1.287   .     A
C564   O614    1.287   .     A
C565   C588    1.411   .     A
C565   C586    1.411   .     A
C566   C587    1.411   .     A
C566   C453    1.517   1_565 S
C568   C119    1.190   1_556 S
C569   C574    1.390   .     A
C569   C580    1.404   .     A
C569   H602    1.083   .     S
C570   C575    1.390   .     A
C570   C581    1.404   .     A
C570   H603    1.083   .     S
C571   C576    1.390   .     A
C571   H604    1.083   .     S
C571   C581    1.404   .     A
C572   O610    1.293   .     A
C572   C579    1.461   .     S
C572   O611    1.293   .     A
C573   C577    1.390   .     A
C573   H605    1.083   .     S
C573   C580    1.404   .     A
C574   C578    1.402   .     A
C574   H606    1.083   .     S
C575   C579    1.402   .     A
C575   H592    1.083   .     S
C576   H593    1.083   .     S
C576   C579    1.402   .     A
C577   C578    1.402   .     A
C577   H594    1.083   .     S
C580   C637    1.470   1_455 S
C581   C636    1.470   .     S
C582   N607    1.364   .     A
C582   H591    1.081   .     S
C582   C586    1.407   .     A
C583   C587    1.407   .     A
C583   H599    1.081   .     S
C583   N608    1.364   .     A
C584   H600    1.081   .     S
C584   N607    1.364   .     A
C584   C588    1.407   .     A
C585   N608    1.364   .     A
C585   H601    1.081   .     S
C586   H595    1.081   .     S
C587   H596    1.081   .     S
C588   H597    1.081   .     S
Cu589  Cu590   2.675   .     S
Cu589  O609    1.957   .     S
Cu589  O613    1.934   .     S
Cu589  N608    2.009   .     S
Cu589  O611    1.957   .     S
Cu589  O615    1.934   .     S
Cu590  O614    1.934   .     S
Cu590  O610    1.957   .     S
Cu590  N607    2.009   .     S
Cu590  O612    1.957   .     S
Cu590  O616    1.934   .     S
C617   C634    1.461   .     S
C617   O665    1.293   .     A
C617   O668    1.293   .     A
C618   C622    1.411   .     A
C618   C641    1.407   .     A
C618   H654    1.081   .     S
C619   O669    1.287   .     A
C619   O672    1.287   .     A
C619   C623    1.409   .     S
C620   C624    1.409   .     S
C620   O671    1.287   .     A
C620   O670    1.287   .     A
C621   C644    1.411   .     A
C621   C642    1.411   .     A
C622   C643    1.411   .     A
C622   C509    1.517   1_565 S
C624   C175    1.190   1_556 S
C625   C630    1.390   .     A
C625   C636    1.404   .     A
C625   H658    1.083   .     S
C626   C631    1.390   .     A
C626   C637    1.404   .     A
C626   H659    1.083   .     S
C627   C632    1.390   .     A
C627   H660    1.083   .     S
C627   C637    1.404   .     A
C628   O666    1.293   .     A
C628   C635    1.461   .     S
C628   O667    1.293   .     A
C629   C633    1.390   .     A
C629   H661    1.083   .     S
C629   C636    1.404   .     A
C630   C634    1.402   .     A
C630   H662    1.083   .     S
C631   C635    1.402   .     A
C631   H648    1.083   .     S
C632   H649    1.083   .     S
C632   C635    1.402   .     A
C633   C634    1.402   .     A
C633   H650    1.083   .     S
C637   C580    1.470   1_655 S
C638   N663    1.364   .     A
C638   H647    1.081   .     S
C638   C642    1.407   .     A
C639   C643    1.407   .     A
C639   H655    1.081   .     S
C639   N664    1.364   .     A
C640   H656    1.081   .     S
C640   N663    1.364   .     A
C640   C644    1.407   .     A
C641   N664    1.364   .     A
C641   H657    1.081   .     S
C642   H651    1.081   .     S
C643   H652    1.081   .     S
C644   H653    1.081   .     S
Cu645  Cu646   2.675   .     S
Cu645  O665    1.957   .     S
Cu645  O669    1.934   .     S
Cu645  N664    2.009   .     S
Cu645  O667    1.957   .     S
Cu645  O671    1.934   .     S
Cu646  O670    1.934   .     S
Cu646  O666    1.957   .     S
Cu646  N663    2.009   .     S
Cu646  O668    1.957   .     S
Cu646  O672    1.934   .     S
