data_str_m2_o10_o16_pcu_sym.189
_audit_creation_date              2020-01-03
_audit_creation_method            'Materials Studio'
_symmetry_space_group_name_H-M    'P1'
_symmetry_Int_Tables_number       1
_symmetry_cell_setting            triclinic
loop_
_symmetry_equiv_pos_as_xyz
  x,y,z
_cell_length_a                    22.4302
_cell_length_b                    26.4400
_cell_length_c                    26.6697
_cell_angle_alpha                 96.1768
_cell_angle_beta                  76.9915
_cell_angle_gamma                 103.5169
loop_
_atom_site_label
_atom_site_type_symbol
_atom_site_fract_x
_atom_site_fract_y
_atom_site_fract_z
_atom_site_U_iso_or_equiv
_atom_site_adp_type
_atom_site_occupancy
C1     C     0.18201   0.26652   0.25091   0.00000  Uiso   1.00
C2     C     0.14033   0.16475   0.48799   0.00000  Uiso   1.00
C3     C     0.15254   0.18365   0.43804   0.00000  Uiso   1.00
C4     C     0.18796   0.17734   0.01744   0.00000  Uiso   1.00
C5     C     0.24197   0.21669   0.00084   0.00000  Uiso   1.00
C6     C     0.24889   0.24085   0.45537   0.00000  Uiso   1.00
C7     C     0.20394   0.22603   0.42514   0.00000  Uiso   1.00
C8     C     0.18341   0.15356   0.06366   0.00000  Uiso   1.00
C9     C     0.27512   0.21659   0.08103   0.00000  Uiso   1.00
C10    C     0.11042   0.16204   0.40455   0.00000  Uiso   1.00
C11    C     0.18991   0.32227   0.25397   0.00000  Uiso   1.00
C12    C     0.13249   0.16406   0.34759   0.00000  Uiso   1.00
C13    C     0.14636   0.01116   0.24205   0.00000  Uiso   1.00
C14    C     0.15210   0.06681   0.24771   0.00000  Uiso   1.00
C15    C     0.20059   0.16948   0.15287   0.00000  Uiso   1.00
C16    C     0.28635   0.23442   0.03189   0.00000  Uiso   1.00
C17    C     0.22216   0.17772   0.09778   0.00000  Uiso   1.00
C18    C     0.04992   0.13309   0.42626   0.00000  Uiso   1.00
C19    C     0.03390   0.12471   0.47867   0.00000  Uiso   1.00
C20    C     0.07849   0.13953   0.00902   0.00000  Uiso   1.00
Cu21   Cu    0.10710   0.16105   0.24435   0.00000  Uiso   1.00
Cu22   Cu    0.22623   0.17228   0.25564   0.00000  Uiso   1.00
H23    H     0.30617   0.23480   0.10673   0.00000  Uiso   1.00
H24    H     0.28749   0.27377   0.44490   0.00000  Uiso   1.00
H25    H     0.32730   0.26492   0.01973   0.00000  Uiso   1.00
H26    H     0.06287   0.13350   0.04968   0.00000  Uiso   1.00
H27    H     0.32018   0.10494   0.49589   0.00000  Uiso   1.00
N28    N     0.31574   0.18074   0.26416   0.00000  Uiso   1.00
N29    N     0.01759   0.15259   0.23584   0.00000  Uiso   1.00
O30    O     0.12797   0.23807   0.24633   0.00000  Uiso   1.00
O31    O     0.22858   0.24755   0.25586   0.00000  Uiso   1.00
O32    O     0.09181   0.15960   0.31839   0.00000  Uiso   1.00
O33    O     0.19242   0.16908   0.32793   0.00000  Uiso   1.00
O34    O     0.10476   0.08578   0.24413   0.00000  Uiso   1.00
O35    O     0.20536   0.09526   0.25367   0.00000  Uiso   1.00
O36    O     0.14092   0.16425   0.17207   0.00000  Uiso   1.00
O37    O     0.24152   0.17373   0.18160   0.00000  Uiso   1.00
N38    N     0.09471   0.31403   0.22078   0.00000  Uiso   1.00
H39    H     0.05298   0.31997   0.24492   0.00000  Uiso   1.00
H40    H     0.09739   0.32760   0.18475   0.00000  Uiso   1.00
N41    N     0.00596   0.21047   0.30423   0.00000  Uiso   1.00
H42    H     0.00173   0.24854   0.30162   0.00000  Uiso   1.00
H43    H     0.30935   0.19735   0.33848   0.00000  Uiso   1.00
Br44   Br    0.32805   0.11119   0.17836   0.00000  Uiso   1.00
Br45   Br    0.13843   0.08251   0.07610   0.00000  Uiso   1.00
Br46   Br    0.31923   0.10252   0.38818   0.00000  Uiso   1.00
Br47   Br    0.20379   0.27682   0.37930   0.00000  Uiso   1.00
Br48   Br    0.26449   0.02542   0.27906   0.00000  Uiso   1.00
C49    C     0.51534   0.26652   0.25091   0.00000  Uiso   1.00
C50    C     0.47366   0.16475   0.48799   0.00000  Uiso   1.00
C51    C     0.48588   0.18365   0.43804   0.00000  Uiso   1.00
C52    C     0.52130   0.17734   0.01744   0.00000  Uiso   1.00
C53    C     0.57530   0.21669   0.00084   0.00000  Uiso   1.00
C54    C     0.58222   0.24085   0.45537   0.00000  Uiso   1.00
C55    C     0.53728   0.22603   0.42514   0.00000  Uiso   1.00
C56    C     0.51674   0.15356   0.06366   0.00000  Uiso   1.00
C57    C     0.60845   0.21659   0.08103   0.00000  Uiso   1.00
C58    C     0.44375   0.16204   0.40455   0.00000  Uiso   1.00
C59    C     0.52325   0.32227   0.25397   0.00000  Uiso   1.00
C60    C     0.46583   0.16406   0.34759   0.00000  Uiso   1.00
C61    C     0.47969   0.01116   0.24205   0.00000  Uiso   1.00
C62    C     0.48544   0.06681   0.24771   0.00000  Uiso   1.00
C63    C     0.53393   0.16948   0.15287   0.00000  Uiso   1.00
C64    C     0.61969   0.23442   0.03189   0.00000  Uiso   1.00
C65    C     0.55550   0.17772   0.09778   0.00000  Uiso   1.00
C66    C     0.38325   0.13309   0.42626   0.00000  Uiso   1.00
C67    C     0.36723   0.12471   0.47867   0.00000  Uiso   1.00
C68    C     0.41183   0.13953   0.00902   0.00000  Uiso   1.00
Cu69   Cu    0.44043   0.16105   0.24435   0.00000  Uiso   1.00
Cu70   Cu    0.55957   0.17228   0.25564   0.00000  Uiso   1.00
H71    H     0.63950   0.23480   0.10673   0.00000  Uiso   1.00
H72    H     0.62082   0.27377   0.44490   0.00000  Uiso   1.00
H73    H     0.66063   0.26492   0.01973   0.00000  Uiso   1.00
H74    H     0.39620   0.13350   0.04968   0.00000  Uiso   1.00
H75    H     0.65351   0.10494   0.49589   0.00000  Uiso   1.00
N76    N     0.64908   0.18074   0.26416   0.00000  Uiso   1.00
N77    N     0.35092   0.15259   0.23584   0.00000  Uiso   1.00
O78    O     0.46131   0.23807   0.24633   0.00000  Uiso   1.00
O79    O     0.56191   0.24755   0.25586   0.00000  Uiso   1.00
O80    O     0.42515   0.15960   0.31839   0.00000  Uiso   1.00
O81    O     0.52575   0.16908   0.32793   0.00000  Uiso   1.00
O82    O     0.43809   0.08578   0.24413   0.00000  Uiso   1.00
O83    O     0.53869   0.09526   0.25367   0.00000  Uiso   1.00
O84    O     0.47425   0.16425   0.17207   0.00000  Uiso   1.00
O85    O     0.57485   0.17373   0.18160   0.00000  Uiso   1.00
N86    N     0.42805   0.31403   0.22078   0.00000  Uiso   1.00
H87    H     0.38631   0.31997   0.24492   0.00000  Uiso   1.00
H88    H     0.43073   0.32760   0.18475   0.00000  Uiso   1.00
N89    N     0.33930   0.21047   0.30423   0.00000  Uiso   1.00
H90    H     0.33506   0.24854   0.30162   0.00000  Uiso   1.00
H91    H     0.64269   0.19735   0.33848   0.00000  Uiso   1.00
Br92   Br    0.66138   0.11119   0.17836   0.00000  Uiso   1.00
Br93   Br    0.47176   0.08251   0.07610   0.00000  Uiso   1.00
Br94   Br    0.65257   0.10252   0.38818   0.00000  Uiso   1.00
Br95   Br    0.53712   0.27682   0.37930   0.00000  Uiso   1.00
Br96   Br    0.59783   0.02542   0.27906   0.00000  Uiso   1.00
C97    C     0.84867   0.26652   0.25091   0.00000  Uiso   1.00
C98    C     0.80700   0.16475   0.48799   0.00000  Uiso   1.00
C99    C     0.81921   0.18365   0.43804   0.00000  Uiso   1.00
C100   C     0.85463   0.17734   0.01744   0.00000  Uiso   1.00
C101   C     0.90864   0.21669   0.00084   0.00000  Uiso   1.00
C102   C     0.91556   0.24085   0.45537   0.00000  Uiso   1.00
C103   C     0.87061   0.22603   0.42514   0.00000  Uiso   1.00
C104   C     0.85008   0.15356   0.06366   0.00000  Uiso   1.00
C105   C     0.94179   0.21659   0.08103   0.00000  Uiso   1.00
C106   C     0.77708   0.16204   0.40455   0.00000  Uiso   1.00
C107   C     0.85658   0.32227   0.25397   0.00000  Uiso   1.00
C108   C     0.79916   0.16406   0.34759   0.00000  Uiso   1.00
C109   C     0.81303   0.01116   0.24205   0.00000  Uiso   1.00
C110   C     0.81877   0.06681   0.24771   0.00000  Uiso   1.00
C111   C     0.86726   0.16948   0.15287   0.00000  Uiso   1.00
C112   C     0.95302   0.23442   0.03189   0.00000  Uiso   1.00
C113   C     0.88883   0.17772   0.09778   0.00000  Uiso   1.00
C114   C     0.71659   0.13309   0.42626   0.00000  Uiso   1.00
C115   C     0.70057   0.12471   0.47867   0.00000  Uiso   1.00
C116   C     0.74516   0.13953   0.00902   0.00000  Uiso   1.00
Cu117  Cu    0.77377   0.16105   0.24435   0.00000  Uiso   1.00
Cu118  Cu    0.89290   0.17228   0.25564   0.00000  Uiso   1.00
H119   H     0.97283   0.23480   0.10673   0.00000  Uiso   1.00
H120   H     0.95416   0.27377   0.44490   0.00000  Uiso   1.00
H121   H     0.99396   0.26492   0.01973   0.00000  Uiso   1.00
H122   H     0.72953   0.13350   0.04968   0.00000  Uiso   1.00
H123   H     0.98685   0.10494   0.49589   0.00000  Uiso   1.00
N124   N     0.98241   0.18074   0.26416   0.00000  Uiso   1.00
N125   N     0.68426   0.15259   0.23584   0.00000  Uiso   1.00
O126   O     0.79464   0.23807   0.24633   0.00000  Uiso   1.00
O127   O     0.89524   0.24755   0.25586   0.00000  Uiso   1.00
O128   O     0.75848   0.15960   0.31839   0.00000  Uiso   1.00
O129   O     0.85908   0.16908   0.32793   0.00000  Uiso   1.00
O130   O     0.77142   0.08578   0.24413   0.00000  Uiso   1.00
O131   O     0.87203   0.09526   0.25367   0.00000  Uiso   1.00
O132   O     0.80758   0.16425   0.17207   0.00000  Uiso   1.00
O133   O     0.90819   0.17373   0.18160   0.00000  Uiso   1.00
N134   N     0.76138   0.31403   0.22078   0.00000  Uiso   1.00
H135   H     0.71964   0.31997   0.24492   0.00000  Uiso   1.00
H136   H     0.76406   0.32760   0.18475   0.00000  Uiso   1.00
N137   N     0.67263   0.21047   0.30423   0.00000  Uiso   1.00
H138   H     0.66840   0.24854   0.30162   0.00000  Uiso   1.00
H139   H     0.97602   0.19735   0.33848   0.00000  Uiso   1.00
Br140  Br    0.99471   0.11119   0.17836   0.00000  Uiso   1.00
Br141  Br    0.80510   0.08251   0.07610   0.00000  Uiso   1.00
Br142  Br    0.98590   0.10252   0.38818   0.00000  Uiso   1.00
Br143  Br    0.87045   0.27682   0.37930   0.00000  Uiso   1.00
Br144  Br    0.93116   0.02542   0.27906   0.00000  Uiso   1.00
C145   C     0.18201   0.59986   0.25091   0.00000  Uiso   1.00
C146   C     0.14033   0.49808   0.48799   0.00000  Uiso   1.00
C147   C     0.15254   0.51698   0.43804   0.00000  Uiso   1.00
C148   C     0.18796   0.51067   0.01744   0.00000  Uiso   1.00
C149   C     0.24197   0.55003   0.00084   0.00000  Uiso   1.00
C150   C     0.24889   0.57418   0.45537   0.00000  Uiso   1.00
C151   C     0.20394   0.55937   0.42514   0.00000  Uiso   1.00
C152   C     0.18341   0.48689   0.06366   0.00000  Uiso   1.00
C153   C     0.27512   0.54992   0.08103   0.00000  Uiso   1.00
C154   C     0.11042   0.49537   0.40455   0.00000  Uiso   1.00
C155   C     0.18991   0.65560   0.25397   0.00000  Uiso   1.00
C156   C     0.13249   0.49740   0.34759   0.00000  Uiso   1.00
C157   C     0.14636   0.34449   0.24205   0.00000  Uiso   1.00
C158   C     0.15210   0.40015   0.24771   0.00000  Uiso   1.00
C159   C     0.20059   0.50281   0.15287   0.00000  Uiso   1.00
C160   C     0.28635   0.56775   0.03189   0.00000  Uiso   1.00
C161   C     0.22216   0.51105   0.09778   0.00000  Uiso   1.00
C162   C     0.04992   0.46642   0.42626   0.00000  Uiso   1.00
C163   C     0.03390   0.45805   0.47867   0.00000  Uiso   1.00
C164   C     0.07849   0.47286   0.00902   0.00000  Uiso   1.00
Cu165  Cu    0.10710   0.49439   0.24435   0.00000  Uiso   1.00
Cu166  Cu    0.22623   0.50561   0.25564   0.00000  Uiso   1.00
H167   H     0.30617   0.56814   0.10673   0.00000  Uiso   1.00
H168   H     0.28749   0.60710   0.44490   0.00000  Uiso   1.00
H169   H     0.32730   0.59825   0.01973   0.00000  Uiso   1.00
H170   H     0.06287   0.46683   0.04968   0.00000  Uiso   1.00
H171   H     0.32018   0.43828   0.49589   0.00000  Uiso   1.00
N172   N     0.31574   0.51407   0.26416   0.00000  Uiso   1.00
N173   N     0.01759   0.48593   0.23584   0.00000  Uiso   1.00
O174   O     0.12797   0.57141   0.24633   0.00000  Uiso   1.00
O175   O     0.22858   0.58089   0.25586   0.00000  Uiso   1.00
O176   O     0.09181   0.49293   0.31839   0.00000  Uiso   1.00
O177   O     0.19242   0.50241   0.32793   0.00000  Uiso   1.00
O178   O     0.10476   0.41911   0.24413   0.00000  Uiso   1.00
O179   O     0.20536   0.42859   0.25367   0.00000  Uiso   1.00
O180   O     0.14092   0.49759   0.17207   0.00000  Uiso   1.00
O181   O     0.24152   0.50707   0.18160   0.00000  Uiso   1.00
N182   N     0.09471   0.64737   0.22078   0.00000  Uiso   1.00
H183   H     0.05298   0.65330   0.24492   0.00000  Uiso   1.00
H184   H     0.09739   0.66093   0.18475   0.00000  Uiso   1.00
N185   N     0.00596   0.54381   0.30423   0.00000  Uiso   1.00
H186   H     0.00173   0.58187   0.30162   0.00000  Uiso   1.00
H187   H     0.30935   0.53068   0.33848   0.00000  Uiso   1.00
Br188  Br    0.32805   0.44452   0.17836   0.00000  Uiso   1.00
Br189  Br    0.13843   0.41584   0.07610   0.00000  Uiso   1.00
Br190  Br    0.31923   0.43585   0.38818   0.00000  Uiso   1.00
Br191  Br    0.20379   0.61016   0.37930   0.00000  Uiso   1.00
Br192  Br    0.26449   0.35875   0.27906   0.00000  Uiso   1.00
C193   C     0.51534   0.59986   0.25091   0.00000  Uiso   1.00
C194   C     0.47366   0.49808   0.48799   0.00000  Uiso   1.00
C195   C     0.48588   0.51698   0.43804   0.00000  Uiso   1.00
C196   C     0.52130   0.51067   0.01744   0.00000  Uiso   1.00
C197   C     0.57530   0.55003   0.00084   0.00000  Uiso   1.00
C198   C     0.58222   0.57418   0.45537   0.00000  Uiso   1.00
C199   C     0.53728   0.55937   0.42514   0.00000  Uiso   1.00
C200   C     0.51674   0.48689   0.06366   0.00000  Uiso   1.00
C201   C     0.60845   0.54992   0.08103   0.00000  Uiso   1.00
C202   C     0.44375   0.49537   0.40455   0.00000  Uiso   1.00
C203   C     0.52325   0.65560   0.25397   0.00000  Uiso   1.00
C204   C     0.46583   0.49740   0.34759   0.00000  Uiso   1.00
C205   C     0.47969   0.34449   0.24205   0.00000  Uiso   1.00
C206   C     0.48544   0.40015   0.24771   0.00000  Uiso   1.00
C207   C     0.53393   0.50281   0.15287   0.00000  Uiso   1.00
C208   C     0.61969   0.56775   0.03189   0.00000  Uiso   1.00
C209   C     0.55550   0.51105   0.09778   0.00000  Uiso   1.00
C210   C     0.38325   0.46642   0.42626   0.00000  Uiso   1.00
C211   C     0.36723   0.45805   0.47867   0.00000  Uiso   1.00
C212   C     0.41183   0.47286   0.00902   0.00000  Uiso   1.00
Cu213  Cu    0.44043   0.49439   0.24435   0.00000  Uiso   1.00
Cu214  Cu    0.55957   0.50561   0.25564   0.00000  Uiso   1.00
H215   H     0.63950   0.56814   0.10673   0.00000  Uiso   1.00
H216   H     0.62082   0.60710   0.44490   0.00000  Uiso   1.00
H217   H     0.66063   0.59825   0.01973   0.00000  Uiso   1.00
H218   H     0.39620   0.46683   0.04968   0.00000  Uiso   1.00
H219   H     0.65351   0.43828   0.49589   0.00000  Uiso   1.00
N220   N     0.64908   0.51407   0.26416   0.00000  Uiso   1.00
N221   N     0.35092   0.48593   0.23584   0.00000  Uiso   1.00
O222   O     0.46131   0.57141   0.24633   0.00000  Uiso   1.00
O223   O     0.56191   0.58089   0.25586   0.00000  Uiso   1.00
O224   O     0.42515   0.49293   0.31839   0.00000  Uiso   1.00
O225   O     0.52575   0.50241   0.32793   0.00000  Uiso   1.00
O226   O     0.43809   0.41911   0.24413   0.00000  Uiso   1.00
O227   O     0.53869   0.42859   0.25367   0.00000  Uiso   1.00
O228   O     0.47425   0.49759   0.17207   0.00000  Uiso   1.00
O229   O     0.57485   0.50707   0.18160   0.00000  Uiso   1.00
N230   N     0.42805   0.64737   0.22078   0.00000  Uiso   1.00
H231   H     0.38631   0.65330   0.24492   0.00000  Uiso   1.00
H232   H     0.43073   0.66093   0.18475   0.00000  Uiso   1.00
N233   N     0.33930   0.54381   0.30423   0.00000  Uiso   1.00
H234   H     0.33506   0.58187   0.30162   0.00000  Uiso   1.00
H235   H     0.64269   0.53068   0.33848   0.00000  Uiso   1.00
Br236  Br    0.66138   0.44452   0.17836   0.00000  Uiso   1.00
Br237  Br    0.47176   0.41584   0.07610   0.00000  Uiso   1.00
Br238  Br    0.65257   0.43585   0.38818   0.00000  Uiso   1.00
Br239  Br    0.53712   0.61016   0.37930   0.00000  Uiso   1.00
Br240  Br    0.59783   0.35875   0.27906   0.00000  Uiso   1.00
C241   C     0.84867   0.59986   0.25091   0.00000  Uiso   1.00
C242   C     0.80700   0.49808   0.48799   0.00000  Uiso   1.00
C243   C     0.81921   0.51698   0.43804   0.00000  Uiso   1.00
C244   C     0.85463   0.51067   0.01744   0.00000  Uiso   1.00
C245   C     0.90864   0.55003   0.00084   0.00000  Uiso   1.00
C246   C     0.91556   0.57418   0.45537   0.00000  Uiso   1.00
C247   C     0.87061   0.55937   0.42514   0.00000  Uiso   1.00
C248   C     0.85008   0.48689   0.06366   0.00000  Uiso   1.00
C249   C     0.94179   0.54992   0.08103   0.00000  Uiso   1.00
C250   C     0.77708   0.49537   0.40455   0.00000  Uiso   1.00
C251   C     0.85658   0.65560   0.25397   0.00000  Uiso   1.00
C252   C     0.79916   0.49740   0.34759   0.00000  Uiso   1.00
C253   C     0.81303   0.34449   0.24205   0.00000  Uiso   1.00
C254   C     0.81877   0.40015   0.24771   0.00000  Uiso   1.00
C255   C     0.86726   0.50281   0.15287   0.00000  Uiso   1.00
C256   C     0.95302   0.56775   0.03189   0.00000  Uiso   1.00
C257   C     0.88883   0.51105   0.09778   0.00000  Uiso   1.00
C258   C     0.71659   0.46642   0.42626   0.00000  Uiso   1.00
C259   C     0.70057   0.45805   0.47867   0.00000  Uiso   1.00
C260   C     0.74516   0.47286   0.00902   0.00000  Uiso   1.00
Cu261  Cu    0.77377   0.49439   0.24435   0.00000  Uiso   1.00
Cu262  Cu    0.89290   0.50561   0.25564   0.00000  Uiso   1.00
H263   H     0.97283   0.56814   0.10673   0.00000  Uiso   1.00
H264   H     0.95416   0.60710   0.44490   0.00000  Uiso   1.00
H265   H     0.99396   0.59825   0.01973   0.00000  Uiso   1.00
H266   H     0.72953   0.46683   0.04968   0.00000  Uiso   1.00
H267   H     0.98685   0.43828   0.49589   0.00000  Uiso   1.00
N268   N     0.98241   0.51407   0.26416   0.00000  Uiso   1.00
N269   N     0.68426   0.48593   0.23584   0.00000  Uiso   1.00
O270   O     0.79464   0.57141   0.24633   0.00000  Uiso   1.00
O271   O     0.89524   0.58089   0.25586   0.00000  Uiso   1.00
O272   O     0.75848   0.49293   0.31839   0.00000  Uiso   1.00
O273   O     0.85908   0.50241   0.32793   0.00000  Uiso   1.00
O274   O     0.77142   0.41911   0.24413   0.00000  Uiso   1.00
O275   O     0.87203   0.42859   0.25367   0.00000  Uiso   1.00
O276   O     0.80758   0.49759   0.17207   0.00000  Uiso   1.00
O277   O     0.90819   0.50707   0.18160   0.00000  Uiso   1.00
N278   N     0.76138   0.64737   0.22078   0.00000  Uiso   1.00
H279   H     0.71964   0.65330   0.24492   0.00000  Uiso   1.00
H280   H     0.76406   0.66093   0.18475   0.00000  Uiso   1.00
N281   N     0.67263   0.54381   0.30423   0.00000  Uiso   1.00
H282   H     0.66840   0.58187   0.30162   0.00000  Uiso   1.00
H283   H     0.97602   0.53068   0.33848   0.00000  Uiso   1.00
Br284  Br    0.99471   0.44452   0.17836   0.00000  Uiso   1.00
Br285  Br    0.80510   0.41584   0.07610   0.00000  Uiso   1.00
Br286  Br    0.98590   0.43585   0.38818   0.00000  Uiso   1.00
Br287  Br    0.87045   0.61016   0.37930   0.00000  Uiso   1.00
Br288  Br    0.93116   0.35875   0.27906   0.00000  Uiso   1.00
C289   C     0.18201   0.93319   0.25091   0.00000  Uiso   1.00
C290   C     0.14033   0.83142   0.48799   0.00000  Uiso   1.00
C291   C     0.15254   0.85032   0.43804   0.00000  Uiso   1.00
C292   C     0.18796   0.84400   0.01744   0.00000  Uiso   1.00
C293   C     0.24197   0.88336   0.00084   0.00000  Uiso   1.00
C294   C     0.24889   0.90752   0.45537   0.00000  Uiso   1.00
C295   C     0.20394   0.89270   0.42514   0.00000  Uiso   1.00
C296   C     0.18341   0.82022   0.06366   0.00000  Uiso   1.00
C297   C     0.27512   0.88325   0.08103   0.00000  Uiso   1.00
C298   C     0.11042   0.82870   0.40455   0.00000  Uiso   1.00
C299   C     0.18991   0.98894   0.25397   0.00000  Uiso   1.00
C300   C     0.13249   0.83073   0.34759   0.00000  Uiso   1.00
C301   C     0.14636   0.67783   0.24205   0.00000  Uiso   1.00
C302   C     0.15210   0.73348   0.24771   0.00000  Uiso   1.00
C303   C     0.20059   0.83615   0.15287   0.00000  Uiso   1.00
C304   C     0.28635   0.90109   0.03189   0.00000  Uiso   1.00
C305   C     0.22216   0.84439   0.09778   0.00000  Uiso   1.00
C306   C     0.04992   0.79975   0.42626   0.00000  Uiso   1.00
C307   C     0.03390   0.79138   0.47867   0.00000  Uiso   1.00
C308   C     0.07849   0.80619   0.00902   0.00000  Uiso   1.00
Cu309  Cu    0.10710   0.82772   0.24435   0.00000  Uiso   1.00
Cu310  Cu    0.22623   0.83895   0.25564   0.00000  Uiso   1.00
H311   H     0.30617   0.90147   0.10673   0.00000  Uiso   1.00
H312   H     0.28749   0.94043   0.44490   0.00000  Uiso   1.00
H313   H     0.32730   0.93159   0.01973   0.00000  Uiso   1.00
H314   H     0.06287   0.80017   0.04968   0.00000  Uiso   1.00
H315   H     0.32018   0.77161   0.49589   0.00000  Uiso   1.00
N316   N     0.31574   0.84741   0.26416   0.00000  Uiso   1.00
N317   N     0.01759   0.81926   0.23584   0.00000  Uiso   1.00
O318   O     0.12797   0.90474   0.24633   0.00000  Uiso   1.00
O319   O     0.22858   0.91422   0.25586   0.00000  Uiso   1.00
O320   O     0.09181   0.82627   0.31839   0.00000  Uiso   1.00
O321   O     0.19242   0.83575   0.32793   0.00000  Uiso   1.00
O322   O     0.10476   0.75245   0.24413   0.00000  Uiso   1.00
O323   O     0.20536   0.76193   0.25367   0.00000  Uiso   1.00
O324   O     0.14092   0.83092   0.17207   0.00000  Uiso   1.00
O325   O     0.24152   0.84040   0.18160   0.00000  Uiso   1.00
N326   N     0.09471   0.98070   0.22078   0.00000  Uiso   1.00
H327   H     0.05298   0.98663   0.24492   0.00000  Uiso   1.00
H328   H     0.09739   0.99427   0.18475   0.00000  Uiso   1.00
N329   N     0.00596   0.87714   0.30423   0.00000  Uiso   1.00
H330   H     0.00173   0.91520   0.30162   0.00000  Uiso   1.00
H331   H     0.30935   0.86402   0.33848   0.00000  Uiso   1.00
Br332  Br    0.32805   0.77785   0.17836   0.00000  Uiso   1.00
Br333  Br    0.13843   0.74918   0.07610   0.00000  Uiso   1.00
Br334  Br    0.31923   0.76919   0.38818   0.00000  Uiso   1.00
Br335  Br    0.20379   0.94349   0.37930   0.00000  Uiso   1.00
Br336  Br    0.26449   0.69209   0.27906   0.00000  Uiso   1.00
C337   C     0.51534   0.93319   0.25091   0.00000  Uiso   1.00
C338   C     0.47366   0.83142   0.48799   0.00000  Uiso   1.00
C339   C     0.48588   0.85032   0.43804   0.00000  Uiso   1.00
C340   C     0.52130   0.84400   0.01744   0.00000  Uiso   1.00
C341   C     0.57530   0.88336   0.00084   0.00000  Uiso   1.00
C342   C     0.58222   0.90752   0.45537   0.00000  Uiso   1.00
C343   C     0.53728   0.89270   0.42514   0.00000  Uiso   1.00
C344   C     0.51674   0.82022   0.06366   0.00000  Uiso   1.00
C345   C     0.60845   0.88325   0.08103   0.00000  Uiso   1.00
C346   C     0.44375   0.82870   0.40455   0.00000  Uiso   1.00
C347   C     0.52325   0.98894   0.25397   0.00000  Uiso   1.00
C348   C     0.46583   0.83073   0.34759   0.00000  Uiso   1.00
C349   C     0.47969   0.67783   0.24205   0.00000  Uiso   1.00
C350   C     0.48544   0.73348   0.24771   0.00000  Uiso   1.00
C351   C     0.53393   0.83615   0.15287   0.00000  Uiso   1.00
C352   C     0.61969   0.90109   0.03189   0.00000  Uiso   1.00
C353   C     0.55550   0.84439   0.09778   0.00000  Uiso   1.00
C354   C     0.38325   0.79975   0.42626   0.00000  Uiso   1.00
C355   C     0.36723   0.79138   0.47867   0.00000  Uiso   1.00
C356   C     0.41183   0.80619   0.00902   0.00000  Uiso   1.00
Cu357  Cu    0.44043   0.82772   0.24435   0.00000  Uiso   1.00
Cu358  Cu    0.55957   0.83895   0.25564   0.00000  Uiso   1.00
H359   H     0.63950   0.90147   0.10673   0.00000  Uiso   1.00
H360   H     0.62082   0.94043   0.44490   0.00000  Uiso   1.00
H361   H     0.66063   0.93159   0.01973   0.00000  Uiso   1.00
H362   H     0.39620   0.80017   0.04968   0.00000  Uiso   1.00
H363   H     0.65351   0.77161   0.49589   0.00000  Uiso   1.00
N364   N     0.64908   0.84741   0.26416   0.00000  Uiso   1.00
N365   N     0.35092   0.81926   0.23584   0.00000  Uiso   1.00
O366   O     0.46131   0.90474   0.24633   0.00000  Uiso   1.00
O367   O     0.56191   0.91422   0.25586   0.00000  Uiso   1.00
O368   O     0.42515   0.82627   0.31839   0.00000  Uiso   1.00
O369   O     0.52575   0.83575   0.32793   0.00000  Uiso   1.00
O370   O     0.43809   0.75245   0.24413   0.00000  Uiso   1.00
O371   O     0.53869   0.76193   0.25367   0.00000  Uiso   1.00
O372   O     0.47425   0.83092   0.17207   0.00000  Uiso   1.00
O373   O     0.57485   0.84040   0.18160   0.00000  Uiso   1.00
N374   N     0.42805   0.98070   0.22078   0.00000  Uiso   1.00
H375   H     0.38631   0.98663   0.24492   0.00000  Uiso   1.00
H376   H     0.43073   0.99427   0.18475   0.00000  Uiso   1.00
N377   N     0.33930   0.87714   0.30423   0.00000  Uiso   1.00
H378   H     0.33506   0.91520   0.30162   0.00000  Uiso   1.00
H379   H     0.64269   0.86402   0.33848   0.00000  Uiso   1.00
Br380  Br    0.66138   0.77785   0.17836   0.00000  Uiso   1.00
Br381  Br    0.47176   0.74918   0.07610   0.00000  Uiso   1.00
Br382  Br    0.65257   0.76919   0.38818   0.00000  Uiso   1.00
Br383  Br    0.53712   0.94349   0.37930   0.00000  Uiso   1.00
Br384  Br    0.59783   0.69209   0.27906   0.00000  Uiso   1.00
C385   C     0.84867   0.93319   0.25091   0.00000  Uiso   1.00
C386   C     0.80700   0.83142   0.48799   0.00000  Uiso   1.00
C387   C     0.81921   0.85032   0.43804   0.00000  Uiso   1.00
C388   C     0.85463   0.84400   0.01744   0.00000  Uiso   1.00
C389   C     0.90864   0.88336   0.00084   0.00000  Uiso   1.00
C390   C     0.91556   0.90752   0.45537   0.00000  Uiso   1.00
C391   C     0.87061   0.89270   0.42514   0.00000  Uiso   1.00
C392   C     0.85008   0.82022   0.06366   0.00000  Uiso   1.00
C393   C     0.94179   0.88325   0.08103   0.00000  Uiso   1.00
C394   C     0.77708   0.82870   0.40455   0.00000  Uiso   1.00
C395   C     0.85658   0.98894   0.25397   0.00000  Uiso   1.00
C396   C     0.79916   0.83073   0.34759   0.00000  Uiso   1.00
C397   C     0.81303   0.67783   0.24205   0.00000  Uiso   1.00
C398   C     0.81877   0.73348   0.24771   0.00000  Uiso   1.00
C399   C     0.86726   0.83615   0.15287   0.00000  Uiso   1.00
C400   C     0.95302   0.90109   0.03189   0.00000  Uiso   1.00
C401   C     0.88883   0.84439   0.09778   0.00000  Uiso   1.00
C402   C     0.71659   0.79975   0.42626   0.00000  Uiso   1.00
C403   C     0.70057   0.79138   0.47867   0.00000  Uiso   1.00
C404   C     0.74516   0.80619   0.00902   0.00000  Uiso   1.00
Cu405  Cu    0.77377   0.82772   0.24435   0.00000  Uiso   1.00
Cu406  Cu    0.89290   0.83895   0.25564   0.00000  Uiso   1.00
H407   H     0.97283   0.90147   0.10673   0.00000  Uiso   1.00
H408   H     0.95416   0.94043   0.44490   0.00000  Uiso   1.00
H409   H     0.99396   0.93159   0.01973   0.00000  Uiso   1.00
H410   H     0.72953   0.80017   0.04968   0.00000  Uiso   1.00
H411   H     0.98685   0.77161   0.49589   0.00000  Uiso   1.00
N412   N     0.98241   0.84741   0.26416   0.00000  Uiso   1.00
N413   N     0.68426   0.81926   0.23584   0.00000  Uiso   1.00
O414   O     0.79464   0.90474   0.24633   0.00000  Uiso   1.00
O415   O     0.89524   0.91422   0.25586   0.00000  Uiso   1.00
O416   O     0.75848   0.82627   0.31839   0.00000  Uiso   1.00
O417   O     0.85908   0.83575   0.32793   0.00000  Uiso   1.00
O418   O     0.77142   0.75245   0.24413   0.00000  Uiso   1.00
O419   O     0.87203   0.76193   0.25367   0.00000  Uiso   1.00
O420   O     0.80758   0.83092   0.17207   0.00000  Uiso   1.00
O421   O     0.90819   0.84040   0.18160   0.00000  Uiso   1.00
N422   N     0.76138   0.98070   0.22078   0.00000  Uiso   1.00
H423   H     0.71964   0.98663   0.24492   0.00000  Uiso   1.00
H424   H     0.76406   0.99427   0.18475   0.00000  Uiso   1.00
N425   N     0.67263   0.87714   0.30423   0.00000  Uiso   1.00
H426   H     0.66840   0.91520   0.30162   0.00000  Uiso   1.00
H427   H     0.97602   0.86402   0.33848   0.00000  Uiso   1.00
Br428  Br    0.99471   0.77785   0.17836   0.00000  Uiso   1.00
Br429  Br    0.80510   0.74918   0.07610   0.00000  Uiso   1.00
Br430  Br    0.98590   0.76919   0.38818   0.00000  Uiso   1.00
Br431  Br    0.87045   0.94349   0.37930   0.00000  Uiso   1.00
Br432  Br    0.93116   0.69209   0.27906   0.00000  Uiso   1.00
C433   C     0.18201   0.26652   0.75091   0.00000  Uiso   1.00
C434   C     0.14033   0.16475   0.98799   0.00000  Uiso   1.00
C435   C     0.15254   0.18365   0.93804   0.00000  Uiso   1.00
C436   C     0.18796   0.17734   0.51744   0.00000  Uiso   1.00
C437   C     0.24197   0.21669   0.50084   0.00000  Uiso   1.00
C438   C     0.24889   0.24085   0.95537   0.00000  Uiso   1.00
C439   C     0.20394   0.22603   0.92514   0.00000  Uiso   1.00
C440   C     0.18341   0.15356   0.56366   0.00000  Uiso   1.00
C441   C     0.27512   0.21659   0.58103   0.00000  Uiso   1.00
C442   C     0.11042   0.16204   0.90455   0.00000  Uiso   1.00
C443   C     0.18991   0.32227   0.75397   0.00000  Uiso   1.00
C444   C     0.13249   0.16406   0.84759   0.00000  Uiso   1.00
C445   C     0.14636   0.01116   0.74205   0.00000  Uiso   1.00
C446   C     0.15210   0.06681   0.74771   0.00000  Uiso   1.00
C447   C     0.20059   0.16948   0.65287   0.00000  Uiso   1.00
C448   C     0.28635   0.23442   0.53189   0.00000  Uiso   1.00
C449   C     0.22216   0.17772   0.59778   0.00000  Uiso   1.00
C450   C     0.04992   0.13309   0.92626   0.00000  Uiso   1.00
C451   C     0.03390   0.12471   0.97867   0.00000  Uiso   1.00
C452   C     0.07849   0.13953   0.50902   0.00000  Uiso   1.00
Cu453  Cu    0.10710   0.16105   0.74435   0.00000  Uiso   1.00
Cu454  Cu    0.22623   0.17228   0.75564   0.00000  Uiso   1.00
H455   H     0.30617   0.23480   0.60673   0.00000  Uiso   1.00
H456   H     0.28749   0.27377   0.94490   0.00000  Uiso   1.00
H457   H     0.32730   0.26492   0.51973   0.00000  Uiso   1.00
H458   H     0.06287   0.13350   0.54968   0.00000  Uiso   1.00
H459   H     0.32018   0.10494   0.99589   0.00000  Uiso   1.00
N460   N     0.31574   0.18074   0.76416   0.00000  Uiso   1.00
N461   N     0.01759   0.15259   0.73584   0.00000  Uiso   1.00
O462   O     0.12797   0.23807   0.74633   0.00000  Uiso   1.00
O463   O     0.22858   0.24755   0.75586   0.00000  Uiso   1.00
O464   O     0.09181   0.15960   0.81839   0.00000  Uiso   1.00
O465   O     0.19242   0.16908   0.82793   0.00000  Uiso   1.00
O466   O     0.10476   0.08578   0.74413   0.00000  Uiso   1.00
O467   O     0.20536   0.09526   0.75367   0.00000  Uiso   1.00
O468   O     0.14092   0.16425   0.67207   0.00000  Uiso   1.00
O469   O     0.24152   0.17373   0.68160   0.00000  Uiso   1.00
N470   N     0.09471   0.31403   0.72078   0.00000  Uiso   1.00
H471   H     0.05298   0.31997   0.74492   0.00000  Uiso   1.00
H472   H     0.09739   0.32760   0.68475   0.00000  Uiso   1.00
N473   N     0.00596   0.21047   0.80423   0.00000  Uiso   1.00
H474   H     0.00173   0.24854   0.80162   0.00000  Uiso   1.00
H475   H     0.30935   0.19735   0.83848   0.00000  Uiso   1.00
Br476  Br    0.32805   0.11119   0.67836   0.00000  Uiso   1.00
Br477  Br    0.13843   0.08251   0.57610   0.00000  Uiso   1.00
Br478  Br    0.31923   0.10252   0.88818   0.00000  Uiso   1.00
Br479  Br    0.20379   0.27682   0.87930   0.00000  Uiso   1.00
Br480  Br    0.26449   0.02542   0.77906   0.00000  Uiso   1.00
C481   C     0.51534   0.26652   0.75091   0.00000  Uiso   1.00
C482   C     0.47366   0.16475   0.98799   0.00000  Uiso   1.00
C483   C     0.48588   0.18365   0.93804   0.00000  Uiso   1.00
C484   C     0.52130   0.17734   0.51744   0.00000  Uiso   1.00
C485   C     0.57530   0.21669   0.50084   0.00000  Uiso   1.00
C486   C     0.58222   0.24085   0.95537   0.00000  Uiso   1.00
C487   C     0.53728   0.22603   0.92514   0.00000  Uiso   1.00
C488   C     0.51674   0.15356   0.56366   0.00000  Uiso   1.00
C489   C     0.60845   0.21659   0.58103   0.00000  Uiso   1.00
C490   C     0.44375   0.16204   0.90455   0.00000  Uiso   1.00
C491   C     0.52325   0.32227   0.75397   0.00000  Uiso   1.00
C492   C     0.46583   0.16406   0.84759   0.00000  Uiso   1.00
C493   C     0.47969   0.01116   0.74205   0.00000  Uiso   1.00
C494   C     0.48544   0.06681   0.74771   0.00000  Uiso   1.00
C495   C     0.53393   0.16948   0.65287   0.00000  Uiso   1.00
C496   C     0.61969   0.23442   0.53189   0.00000  Uiso   1.00
C497   C     0.55550   0.17772   0.59778   0.00000  Uiso   1.00
C498   C     0.38325   0.13309   0.92626   0.00000  Uiso   1.00
C499   C     0.36723   0.12471   0.97867   0.00000  Uiso   1.00
C500   C     0.41183   0.13953   0.50902   0.00000  Uiso   1.00
Cu501  Cu    0.44043   0.16105   0.74435   0.00000  Uiso   1.00
Cu502  Cu    0.55957   0.17228   0.75564   0.00000  Uiso   1.00
H503   H     0.63950   0.23480   0.60673   0.00000  Uiso   1.00
H504   H     0.62082   0.27377   0.94490   0.00000  Uiso   1.00
H505   H     0.66063   0.26492   0.51973   0.00000  Uiso   1.00
H506   H     0.39620   0.13350   0.54968   0.00000  Uiso   1.00
H507   H     0.65351   0.10494   0.99589   0.00000  Uiso   1.00
N508   N     0.64908   0.18074   0.76416   0.00000  Uiso   1.00
N509   N     0.35092   0.15259   0.73584   0.00000  Uiso   1.00
O510   O     0.46131   0.23807   0.74633   0.00000  Uiso   1.00
O511   O     0.56191   0.24755   0.75586   0.00000  Uiso   1.00
O512   O     0.42515   0.15960   0.81839   0.00000  Uiso   1.00
O513   O     0.52575   0.16908   0.82793   0.00000  Uiso   1.00
O514   O     0.43809   0.08578   0.74413   0.00000  Uiso   1.00
O515   O     0.53869   0.09526   0.75367   0.00000  Uiso   1.00
O516   O     0.47425   0.16425   0.67207   0.00000  Uiso   1.00
O517   O     0.57485   0.17373   0.68160   0.00000  Uiso   1.00
N518   N     0.42805   0.31403   0.72078   0.00000  Uiso   1.00
H519   H     0.38631   0.31997   0.74492   0.00000  Uiso   1.00
H520   H     0.43073   0.32760   0.68475   0.00000  Uiso   1.00
N521   N     0.33930   0.21047   0.80423   0.00000  Uiso   1.00
H522   H     0.33506   0.24854   0.80162   0.00000  Uiso   1.00
H523   H     0.64269   0.19735   0.83848   0.00000  Uiso   1.00
Br524  Br    0.66138   0.11119   0.67836   0.00000  Uiso   1.00
Br525  Br    0.47176   0.08251   0.57610   0.00000  Uiso   1.00
Br526  Br    0.65257   0.10252   0.88818   0.00000  Uiso   1.00
Br527  Br    0.53712   0.27682   0.87930   0.00000  Uiso   1.00
Br528  Br    0.59783   0.02542   0.77906   0.00000  Uiso   1.00
C529   C     0.84867   0.26652   0.75091   0.00000  Uiso   1.00
C530   C     0.80700   0.16475   0.98799   0.00000  Uiso   1.00
C531   C     0.81921   0.18365   0.93804   0.00000  Uiso   1.00
C532   C     0.85463   0.17734   0.51744   0.00000  Uiso   1.00
C533   C     0.90864   0.21669   0.50084   0.00000  Uiso   1.00
C534   C     0.91556   0.24085   0.95537   0.00000  Uiso   1.00
C535   C     0.87061   0.22603   0.92514   0.00000  Uiso   1.00
C536   C     0.85008   0.15356   0.56366   0.00000  Uiso   1.00
C537   C     0.94179   0.21659   0.58103   0.00000  Uiso   1.00
C538   C     0.77708   0.16204   0.90455   0.00000  Uiso   1.00
C539   C     0.85658   0.32227   0.75397   0.00000  Uiso   1.00
C540   C     0.79916   0.16406   0.84759   0.00000  Uiso   1.00
C541   C     0.81303   0.01116   0.74205   0.00000  Uiso   1.00
C542   C     0.81877   0.06681   0.74771   0.00000  Uiso   1.00
C543   C     0.86726   0.16948   0.65287   0.00000  Uiso   1.00
C544   C     0.95302   0.23442   0.53189   0.00000  Uiso   1.00
C545   C     0.88883   0.17772   0.59778   0.00000  Uiso   1.00
C546   C     0.71659   0.13309   0.92626   0.00000  Uiso   1.00
C547   C     0.70057   0.12471   0.97867   0.00000  Uiso   1.00
C548   C     0.74516   0.13953   0.50902   0.00000  Uiso   1.00
Cu549  Cu    0.77377   0.16105   0.74435   0.00000  Uiso   1.00
Cu550  Cu    0.89290   0.17228   0.75564   0.00000  Uiso   1.00
H551   H     0.97283   0.23480   0.60673   0.00000  Uiso   1.00
H552   H     0.95416   0.27377   0.94490   0.00000  Uiso   1.00
H553   H     0.99396   0.26492   0.51973   0.00000  Uiso   1.00
H554   H     0.72953   0.13350   0.54968   0.00000  Uiso   1.00
H555   H     0.98685   0.10494   0.99589   0.00000  Uiso   1.00
N556   N     0.98241   0.18074   0.76416   0.00000  Uiso   1.00
N557   N     0.68426   0.15259   0.73584   0.00000  Uiso   1.00
O558   O     0.79464   0.23807   0.74633   0.00000  Uiso   1.00
O559   O     0.89524   0.24755   0.75586   0.00000  Uiso   1.00
O560   O     0.75848   0.15960   0.81839   0.00000  Uiso   1.00
O561   O     0.85908   0.16908   0.82793   0.00000  Uiso   1.00
O562   O     0.77142   0.08578   0.74413   0.00000  Uiso   1.00
O563   O     0.87203   0.09526   0.75367   0.00000  Uiso   1.00
O564   O     0.80758   0.16425   0.67207   0.00000  Uiso   1.00
O565   O     0.90819   0.17373   0.68160   0.00000  Uiso   1.00
N566   N     0.76138   0.31403   0.72078   0.00000  Uiso   1.00
H567   H     0.71964   0.31997   0.74492   0.00000  Uiso   1.00
H568   H     0.76406   0.32760   0.68475   0.00000  Uiso   1.00
N569   N     0.67263   0.21047   0.80423   0.00000  Uiso   1.00
H570   H     0.66840   0.24854   0.80162   0.00000  Uiso   1.00
H571   H     0.97602   0.19735   0.83848   0.00000  Uiso   1.00
Br572  Br    0.99471   0.11119   0.67836   0.00000  Uiso   1.00
Br573  Br    0.80510   0.08251   0.57610   0.00000  Uiso   1.00
Br574  Br    0.98590   0.10252   0.88818   0.00000  Uiso   1.00
Br575  Br    0.87045   0.27682   0.87930   0.00000  Uiso   1.00
Br576  Br    0.93116   0.02542   0.77906   0.00000  Uiso   1.00
C577   C     0.18201   0.59986   0.75091   0.00000  Uiso   1.00
C578   C     0.14033   0.49808   0.98799   0.00000  Uiso   1.00
C579   C     0.15254   0.51698   0.93804   0.00000  Uiso   1.00
C580   C     0.18796   0.51067   0.51744   0.00000  Uiso   1.00
C581   C     0.24197   0.55003   0.50084   0.00000  Uiso   1.00
C582   C     0.24889   0.57418   0.95537   0.00000  Uiso   1.00
C583   C     0.20394   0.55937   0.92514   0.00000  Uiso   1.00
C584   C     0.18341   0.48689   0.56366   0.00000  Uiso   1.00
C585   C     0.27512   0.54992   0.58103   0.00000  Uiso   1.00
C586   C     0.11042   0.49537   0.90455   0.00000  Uiso   1.00
C587   C     0.18991   0.65560   0.75397   0.00000  Uiso   1.00
C588   C     0.13249   0.49740   0.84759   0.00000  Uiso   1.00
C589   C     0.14636   0.34449   0.74205   0.00000  Uiso   1.00
C590   C     0.15210   0.40015   0.74771   0.00000  Uiso   1.00
C591   C     0.20059   0.50281   0.65287   0.00000  Uiso   1.00
C592   C     0.28635   0.56775   0.53189   0.00000  Uiso   1.00
C593   C     0.22216   0.51105   0.59778   0.00000  Uiso   1.00
C594   C     0.04992   0.46642   0.92626   0.00000  Uiso   1.00
C595   C     0.03390   0.45805   0.97867   0.00000  Uiso   1.00
C596   C     0.07849   0.47286   0.50902   0.00000  Uiso   1.00
Cu597  Cu    0.10710   0.49439   0.74435   0.00000  Uiso   1.00
Cu598  Cu    0.22623   0.50561   0.75564   0.00000  Uiso   1.00
H599   H     0.30617   0.56814   0.60673   0.00000  Uiso   1.00
H600   H     0.28749   0.60710   0.94490   0.00000  Uiso   1.00
H601   H     0.32730   0.59825   0.51973   0.00000  Uiso   1.00
H602   H     0.06287   0.46683   0.54968   0.00000  Uiso   1.00
H603   H     0.32018   0.43828   0.99589   0.00000  Uiso   1.00
N604   N     0.31574   0.51407   0.76416   0.00000  Uiso   1.00
N605   N     0.01759   0.48593   0.73584   0.00000  Uiso   1.00
O606   O     0.12797   0.57141   0.74633   0.00000  Uiso   1.00
O607   O     0.22858   0.58089   0.75586   0.00000  Uiso   1.00
O608   O     0.09181   0.49293   0.81839   0.00000  Uiso   1.00
O609   O     0.19242   0.50241   0.82793   0.00000  Uiso   1.00
O610   O     0.10476   0.41911   0.74413   0.00000  Uiso   1.00
O611   O     0.20536   0.42859   0.75367   0.00000  Uiso   1.00
O612   O     0.14092   0.49759   0.67207   0.00000  Uiso   1.00
O613   O     0.24152   0.50707   0.68160   0.00000  Uiso   1.00
N614   N     0.09471   0.64737   0.72078   0.00000  Uiso   1.00
H615   H     0.05298   0.65330   0.74492   0.00000  Uiso   1.00
H616   H     0.09739   0.66093   0.68475   0.00000  Uiso   1.00
N617   N     0.00596   0.54381   0.80423   0.00000  Uiso   1.00
H618   H     0.00173   0.58187   0.80162   0.00000  Uiso   1.00
H619   H     0.30935   0.53068   0.83848   0.00000  Uiso   1.00
Br620  Br    0.32805   0.44452   0.67836   0.00000  Uiso   1.00
Br621  Br    0.13843   0.41584   0.57610   0.00000  Uiso   1.00
Br622  Br    0.31923   0.43585   0.88818   0.00000  Uiso   1.00
Br623  Br    0.20379   0.61016   0.87930   0.00000  Uiso   1.00
Br624  Br    0.26449   0.35875   0.77906   0.00000  Uiso   1.00
C625   C     0.51534   0.59986   0.75091   0.00000  Uiso   1.00
C626   C     0.47366   0.49808   0.98799   0.00000  Uiso   1.00
C627   C     0.48588   0.51698   0.93804   0.00000  Uiso   1.00
C628   C     0.52130   0.51067   0.51744   0.00000  Uiso   1.00
C629   C     0.57530   0.55003   0.50084   0.00000  Uiso   1.00
C630   C     0.58222   0.57418   0.95537   0.00000  Uiso   1.00
C631   C     0.53728   0.55937   0.92514   0.00000  Uiso   1.00
C632   C     0.51674   0.48689   0.56366   0.00000  Uiso   1.00
C633   C     0.60845   0.54992   0.58103   0.00000  Uiso   1.00
C634   C     0.44375   0.49537   0.90455   0.00000  Uiso   1.00
C635   C     0.52325   0.65560   0.75397   0.00000  Uiso   1.00
C636   C     0.46583   0.49740   0.84759   0.00000  Uiso   1.00
C637   C     0.47969   0.34449   0.74205   0.00000  Uiso   1.00
C638   C     0.48544   0.40015   0.74771   0.00000  Uiso   1.00
C639   C     0.53393   0.50281   0.65287   0.00000  Uiso   1.00
C640   C     0.61969   0.56775   0.53189   0.00000  Uiso   1.00
C641   C     0.55550   0.51105   0.59778   0.00000  Uiso   1.00
C642   C     0.38325   0.46642   0.92626   0.00000  Uiso   1.00
C643   C     0.36723   0.45805   0.97867   0.00000  Uiso   1.00
C644   C     0.41183   0.47286   0.50902   0.00000  Uiso   1.00
Cu645  Cu    0.44043   0.49439   0.74435   0.00000  Uiso   1.00
Cu646  Cu    0.55957   0.50561   0.75564   0.00000  Uiso   1.00
H647   H     0.63950   0.56814   0.60673   0.00000  Uiso   1.00
H648   H     0.62082   0.60710   0.94490   0.00000  Uiso   1.00
H649   H     0.66063   0.59825   0.51973   0.00000  Uiso   1.00
H650   H     0.39620   0.46683   0.54968   0.00000  Uiso   1.00
H651   H     0.65351   0.43828   0.99589   0.00000  Uiso   1.00
N652   N     0.64908   0.51407   0.76416   0.00000  Uiso   1.00
N653   N     0.35092   0.48593   0.73584   0.00000  Uiso   1.00
O654   O     0.46131   0.57141   0.74633   0.00000  Uiso   1.00
O655   O     0.56191   0.58089   0.75586   0.00000  Uiso   1.00
O656   O     0.42515   0.49293   0.81839   0.00000  Uiso   1.00
O657   O     0.52575   0.50241   0.82793   0.00000  Uiso   1.00
O658   O     0.43809   0.41911   0.74413   0.00000  Uiso   1.00
O659   O     0.53869   0.42859   0.75367   0.00000  Uiso   1.00
O660   O     0.47425   0.49759   0.67207   0.00000  Uiso   1.00
O661   O     0.57485   0.50707   0.68160   0.00000  Uiso   1.00
N662   N     0.42805   0.64737   0.72078   0.00000  Uiso   1.00
H663   H     0.38631   0.65330   0.74492   0.00000  Uiso   1.00
H664   H     0.43073   0.66093   0.68475   0.00000  Uiso   1.00
N665   N     0.33930   0.54381   0.80423   0.00000  Uiso   1.00
H666   H     0.33506   0.58187   0.80162   0.00000  Uiso   1.00
H667   H     0.64269   0.53068   0.83848   0.00000  Uiso   1.00
Br668  Br    0.66138   0.44452   0.67836   0.00000  Uiso   1.00
Br669  Br    0.47176   0.41584   0.57610   0.00000  Uiso   1.00
Br670  Br    0.65257   0.43585   0.88818   0.00000  Uiso   1.00
Br671  Br    0.53712   0.61016   0.87930   0.00000  Uiso   1.00
Br672  Br    0.59783   0.35875   0.77906   0.00000  Uiso   1.00
C673   C     0.84867   0.59986   0.75091   0.00000  Uiso   1.00
C674   C     0.80700   0.49808   0.98799   0.00000  Uiso   1.00
C675   C     0.81921   0.51698   0.93804   0.00000  Uiso   1.00
C676   C     0.85463   0.51067   0.51744   0.00000  Uiso   1.00
C677   C     0.90864   0.55003   0.50084   0.00000  Uiso   1.00
C678   C     0.91556   0.57418   0.95537   0.00000  Uiso   1.00
C679   C     0.87061   0.55937   0.92514   0.00000  Uiso   1.00
C680   C     0.85008   0.48689   0.56366   0.00000  Uiso   1.00
C681   C     0.94179   0.54992   0.58103   0.00000  Uiso   1.00
C682   C     0.77708   0.49537   0.90455   0.00000  Uiso   1.00
C683   C     0.85658   0.65560   0.75397   0.00000  Uiso   1.00
C684   C     0.79916   0.49740   0.84759   0.00000  Uiso   1.00
C685   C     0.81303   0.34449   0.74205   0.00000  Uiso   1.00
C686   C     0.81877   0.40015   0.74771   0.00000  Uiso   1.00
C687   C     0.86726   0.50281   0.65287   0.00000  Uiso   1.00
C688   C     0.95302   0.56775   0.53189   0.00000  Uiso   1.00
C689   C     0.88883   0.51105   0.59778   0.00000  Uiso   1.00
C690   C     0.71659   0.46642   0.92626   0.00000  Uiso   1.00
C691   C     0.70057   0.45805   0.97867   0.00000  Uiso   1.00
C692   C     0.74516   0.47286   0.50902   0.00000  Uiso   1.00
Cu693  Cu    0.77377   0.49439   0.74435   0.00000  Uiso   1.00
Cu694  Cu    0.89290   0.50561   0.75564   0.00000  Uiso   1.00
H695   H     0.97283   0.56814   0.60673   0.00000  Uiso   1.00
H696   H     0.95416   0.60710   0.94490   0.00000  Uiso   1.00
H697   H     0.99396   0.59825   0.51973   0.00000  Uiso   1.00
H698   H     0.72953   0.46683   0.54968   0.00000  Uiso   1.00
H699   H     0.98685   0.43828   0.99589   0.00000  Uiso   1.00
N700   N     0.98241   0.51407   0.76416   0.00000  Uiso   1.00
N701   N     0.68426   0.48593   0.73584   0.00000  Uiso   1.00
O702   O     0.79464   0.57141   0.74633   0.00000  Uiso   1.00
O703   O     0.89524   0.58089   0.75586   0.00000  Uiso   1.00
O704   O     0.75848   0.49293   0.81839   0.00000  Uiso   1.00
O705   O     0.85908   0.50241   0.82793   0.00000  Uiso   1.00
O706   O     0.77142   0.41911   0.74413   0.00000  Uiso   1.00
O707   O     0.87203   0.42859   0.75367   0.00000  Uiso   1.00
O708   O     0.80758   0.49759   0.67207   0.00000  Uiso   1.00
O709   O     0.90819   0.50707   0.68160   0.00000  Uiso   1.00
N710   N     0.76138   0.64737   0.72078   0.00000  Uiso   1.00
H711   H     0.71964   0.65330   0.74492   0.00000  Uiso   1.00
H712   H     0.76406   0.66093   0.68475   0.00000  Uiso   1.00
N713   N     0.67263   0.54381   0.80423   0.00000  Uiso   1.00
H714   H     0.66840   0.58187   0.80162   0.00000  Uiso   1.00
H715   H     0.97602   0.53068   0.83848   0.00000  Uiso   1.00
Br716  Br    0.99471   0.44452   0.67836   0.00000  Uiso   1.00
Br717  Br    0.80510   0.41584   0.57610   0.00000  Uiso   1.00
Br718  Br    0.98590   0.43585   0.88818   0.00000  Uiso   1.00
Br719  Br    0.87045   0.61016   0.87930   0.00000  Uiso   1.00
Br720  Br    0.93116   0.35875   0.77906   0.00000  Uiso   1.00
C721   C     0.18201   0.93319   0.75091   0.00000  Uiso   1.00
C722   C     0.14033   0.83142   0.98799   0.00000  Uiso   1.00
C723   C     0.15254   0.85032   0.93804   0.00000  Uiso   1.00
C724   C     0.18796   0.84400   0.51744   0.00000  Uiso   1.00
C725   C     0.24197   0.88336   0.50084   0.00000  Uiso   1.00
C726   C     0.24889   0.90752   0.95537   0.00000  Uiso   1.00
C727   C     0.20394   0.89270   0.92514   0.00000  Uiso   1.00
C728   C     0.18341   0.82022   0.56366   0.00000  Uiso   1.00
C729   C     0.27512   0.88325   0.58103   0.00000  Uiso   1.00
C730   C     0.11042   0.82870   0.90455   0.00000  Uiso   1.00
C731   C     0.18991   0.98894   0.75397   0.00000  Uiso   1.00
C732   C     0.13249   0.83073   0.84759   0.00000  Uiso   1.00
C733   C     0.14636   0.67783   0.74205   0.00000  Uiso   1.00
C734   C     0.15210   0.73348   0.74771   0.00000  Uiso   1.00
C735   C     0.20059   0.83615   0.65287   0.00000  Uiso   1.00
C736   C     0.28635   0.90109   0.53189   0.00000  Uiso   1.00
C737   C     0.22216   0.84439   0.59778   0.00000  Uiso   1.00
C738   C     0.04992   0.79975   0.92626   0.00000  Uiso   1.00
C739   C     0.03390   0.79138   0.97867   0.00000  Uiso   1.00
C740   C     0.07849   0.80619   0.50902   0.00000  Uiso   1.00
Cu741  Cu    0.10710   0.82772   0.74435   0.00000  Uiso   1.00
Cu742  Cu    0.22623   0.83895   0.75564   0.00000  Uiso   1.00
H743   H     0.30617   0.90147   0.60673   0.00000  Uiso   1.00
H744   H     0.28749   0.94043   0.94490   0.00000  Uiso   1.00
H745   H     0.32730   0.93159   0.51973   0.00000  Uiso   1.00
H746   H     0.06287   0.80017   0.54968   0.00000  Uiso   1.00
H747   H     0.32018   0.77161   0.99589   0.00000  Uiso   1.00
N748   N     0.31574   0.84741   0.76416   0.00000  Uiso   1.00
N749   N     0.01759   0.81926   0.73584   0.00000  Uiso   1.00
O750   O     0.12797   0.90474   0.74633   0.00000  Uiso   1.00
O751   O     0.22858   0.91422   0.75586   0.00000  Uiso   1.00
O752   O     0.09181   0.82627   0.81839   0.00000  Uiso   1.00
O753   O     0.19242   0.83575   0.82793   0.00000  Uiso   1.00
O754   O     0.10476   0.75245   0.74413   0.00000  Uiso   1.00
O755   O     0.20536   0.76193   0.75367   0.00000  Uiso   1.00
O756   O     0.14092   0.83092   0.67207   0.00000  Uiso   1.00
O757   O     0.24152   0.84040   0.68160   0.00000  Uiso   1.00
N758   N     0.09471   0.98070   0.72078   0.00000  Uiso   1.00
H759   H     0.05298   0.98663   0.74492   0.00000  Uiso   1.00
H760   H     0.09739   0.99427   0.68475   0.00000  Uiso   1.00
N761   N     0.00596   0.87714   0.80423   0.00000  Uiso   1.00
H762   H     0.00173   0.91520   0.80162   0.00000  Uiso   1.00
H763   H     0.30935   0.86402   0.83848   0.00000  Uiso   1.00
Br764  Br    0.32805   0.77785   0.67836   0.00000  Uiso   1.00
Br765  Br    0.13843   0.74918   0.57610   0.00000  Uiso   1.00
Br766  Br    0.31923   0.76919   0.88818   0.00000  Uiso   1.00
Br767  Br    0.20379   0.94349   0.87930   0.00000  Uiso   1.00
Br768  Br    0.26449   0.69209   0.77906   0.00000  Uiso   1.00
C769   C     0.51534   0.93319   0.75091   0.00000  Uiso   1.00
C770   C     0.47366   0.83142   0.98799   0.00000  Uiso   1.00
C771   C     0.48588   0.85032   0.93804   0.00000  Uiso   1.00
C772   C     0.52130   0.84400   0.51744   0.00000  Uiso   1.00
C773   C     0.57530   0.88336   0.50084   0.00000  Uiso   1.00
C774   C     0.58222   0.90752   0.95537   0.00000  Uiso   1.00
C775   C     0.53728   0.89270   0.92514   0.00000  Uiso   1.00
C776   C     0.51674   0.82022   0.56366   0.00000  Uiso   1.00
C777   C     0.60845   0.88325   0.58103   0.00000  Uiso   1.00
C778   C     0.44375   0.82870   0.90455   0.00000  Uiso   1.00
C779   C     0.52325   0.98894   0.75397   0.00000  Uiso   1.00
C780   C     0.46583   0.83073   0.84759   0.00000  Uiso   1.00
C781   C     0.47969   0.67783   0.74205   0.00000  Uiso   1.00
C782   C     0.48544   0.73348   0.74771   0.00000  Uiso   1.00
C783   C     0.53393   0.83615   0.65287   0.00000  Uiso   1.00
C784   C     0.61969   0.90109   0.53189   0.00000  Uiso   1.00
C785   C     0.55550   0.84439   0.59778   0.00000  Uiso   1.00
C786   C     0.38325   0.79975   0.92626   0.00000  Uiso   1.00
C787   C     0.36723   0.79138   0.97867   0.00000  Uiso   1.00
C788   C     0.41183   0.80619   0.50902   0.00000  Uiso   1.00
Cu789  Cu    0.44043   0.82772   0.74435   0.00000  Uiso   1.00
Cu790  Cu    0.55957   0.83895   0.75564   0.00000  Uiso   1.00
H791   H     0.63950   0.90147   0.60673   0.00000  Uiso   1.00
H792   H     0.62082   0.94043   0.94490   0.00000  Uiso   1.00
H793   H     0.66063   0.93159   0.51973   0.00000  Uiso   1.00
H794   H     0.39620   0.80017   0.54968   0.00000  Uiso   1.00
H795   H     0.65351   0.77161   0.99589   0.00000  Uiso   1.00
N796   N     0.64908   0.84741   0.76416   0.00000  Uiso   1.00
N797   N     0.35092   0.81926   0.73584   0.00000  Uiso   1.00
O798   O     0.46131   0.90474   0.74633   0.00000  Uiso   1.00
O799   O     0.56191   0.91422   0.75586   0.00000  Uiso   1.00
O800   O     0.42515   0.82627   0.81839   0.00000  Uiso   1.00
O801   O     0.52575   0.83575   0.82793   0.00000  Uiso   1.00
O802   O     0.43809   0.75245   0.74413   0.00000  Uiso   1.00
O803   O     0.53869   0.76193   0.75367   0.00000  Uiso   1.00
O804   O     0.47425   0.83092   0.67207   0.00000  Uiso   1.00
O805   O     0.57485   0.84040   0.68160   0.00000  Uiso   1.00
N806   N     0.42805   0.98070   0.72078   0.00000  Uiso   1.00
H807   H     0.38631   0.98663   0.74492   0.00000  Uiso   1.00
H808   H     0.43073   0.99427   0.68475   0.00000  Uiso   1.00
N809   N     0.33930   0.87714   0.80423   0.00000  Uiso   1.00
H810   H     0.33506   0.91520   0.80162   0.00000  Uiso   1.00
H811   H     0.64269   0.86402   0.83848   0.00000  Uiso   1.00
Br812  Br    0.66138   0.77785   0.67836   0.00000  Uiso   1.00
Br813  Br    0.47176   0.74918   0.57610   0.00000  Uiso   1.00
Br814  Br    0.65257   0.76919   0.88818   0.00000  Uiso   1.00
Br815  Br    0.53712   0.94349   0.87930   0.00000  Uiso   1.00
Br816  Br    0.59783   0.69209   0.77906   0.00000  Uiso   1.00
C817   C     0.84867   0.93319   0.75091   0.00000  Uiso   1.00
C818   C     0.80700   0.83142   0.98799   0.00000  Uiso   1.00
C819   C     0.81921   0.85032   0.93804   0.00000  Uiso   1.00
C820   C     0.85463   0.84400   0.51744   0.00000  Uiso   1.00
C821   C     0.90864   0.88336   0.50084   0.00000  Uiso   1.00
C822   C     0.91556   0.90752   0.95537   0.00000  Uiso   1.00
C823   C     0.87061   0.89270   0.92514   0.00000  Uiso   1.00
C824   C     0.85008   0.82022   0.56366   0.00000  Uiso   1.00
C825   C     0.94179   0.88325   0.58103   0.00000  Uiso   1.00
C826   C     0.77708   0.82870   0.90455   0.00000  Uiso   1.00
C827   C     0.85658   0.98894   0.75397   0.00000  Uiso   1.00
C828   C     0.79916   0.83073   0.84759   0.00000  Uiso   1.00
C829   C     0.81303   0.67783   0.74205   0.00000  Uiso   1.00
C830   C     0.81877   0.73348   0.74771   0.00000  Uiso   1.00
C831   C     0.86726   0.83615   0.65287   0.00000  Uiso   1.00
C832   C     0.95302   0.90109   0.53189   0.00000  Uiso   1.00
C833   C     0.88883   0.84439   0.59778   0.00000  Uiso   1.00
C834   C     0.71659   0.79975   0.92626   0.00000  Uiso   1.00
C835   C     0.70057   0.79138   0.97867   0.00000  Uiso   1.00
C836   C     0.74516   0.80619   0.50902   0.00000  Uiso   1.00
Cu837  Cu    0.77377   0.82772   0.74435   0.00000  Uiso   1.00
Cu838  Cu    0.89290   0.83895   0.75564   0.00000  Uiso   1.00
H839   H     0.97283   0.90147   0.60673   0.00000  Uiso   1.00
H840   H     0.95416   0.94043   0.94490   0.00000  Uiso   1.00
H841   H     0.99396   0.93159   0.51973   0.00000  Uiso   1.00
H842   H     0.72953   0.80017   0.54968   0.00000  Uiso   1.00
H843   H     0.98685   0.77161   0.99589   0.00000  Uiso   1.00
N844   N     0.98241   0.84741   0.76416   0.00000  Uiso   1.00
N845   N     0.68426   0.81926   0.73584   0.00000  Uiso   1.00
O846   O     0.79464   0.90474   0.74633   0.00000  Uiso   1.00
O847   O     0.89524   0.91422   0.75586   0.00000  Uiso   1.00
O848   O     0.75848   0.82627   0.81839   0.00000  Uiso   1.00
O849   O     0.85908   0.83575   0.82793   0.00000  Uiso   1.00
O850   O     0.77142   0.75245   0.74413   0.00000  Uiso   1.00
O851   O     0.87203   0.76193   0.75367   0.00000  Uiso   1.00
O852   O     0.80758   0.83092   0.67207   0.00000  Uiso   1.00
O853   O     0.90819   0.84040   0.68160   0.00000  Uiso   1.00
N854   N     0.76138   0.98070   0.72078   0.00000  Uiso   1.00
H855   H     0.71964   0.98663   0.74492   0.00000  Uiso   1.00
H856   H     0.76406   0.99427   0.68475   0.00000  Uiso   1.00
N857   N     0.67263   0.87714   0.80423   0.00000  Uiso   1.00
H858   H     0.66840   0.91520   0.80162   0.00000  Uiso   1.00
H859   H     0.97602   0.86402   0.83848   0.00000  Uiso   1.00
Br860  Br    0.99471   0.77785   0.67836   0.00000  Uiso   1.00
Br861  Br    0.80510   0.74918   0.57610   0.00000  Uiso   1.00
Br862  Br    0.98590   0.76919   0.88818   0.00000  Uiso   1.00
Br863  Br    0.87045   0.94349   0.87930   0.00000  Uiso   1.00
Br864  Br    0.93116   0.69209   0.77906   0.00000  Uiso   1.00
loop_
_geom_bond_atom_site_label_1
_geom_bond_atom_site_label_2
_geom_bond_distance
_geom_bond_site_symmetry_2
_ccdc_geom_bond_type
C1     C11     1.438   .     S
C1     O30     1.292   .     A
C1     O31     1.297   .     A
C2     C3      1.419   .     A
C2     C436    1.423   .     S
C2     C452    1.408   .     S
C3     C10     1.427   .     A
C3     C7      1.416   .     A
C4     C8      1.416   .     A
C4     C5      1.419   .     A
C4     C434    1.423   1_554 S
C5     C16     1.402   .     A
C5     C438    1.392   1_554 S
C6     C7      1.390   .     A
C6     H24     1.085   .     S
C6     C437    1.392   .     S
C7     Br47    1.912   .     S
C8     Br45    1.938   .     S
C8     C17     1.401   .     A
C9     C17     1.398   .     A
C9     C16     1.390   .     A
C9     H23     1.083   .     S
C10    C12     1.491   .     S
C10    C18     1.421   .     A
C11    C157    1.360   .     S
C11    Br192   1.946   .     S
C12    O32     1.305   .     A
C12    O33     1.309   .     A
C13    C14     1.441   .     S
C13    C299    1.360   1_545 S
C13    N326    1.440   1_545 S
C14    O34     1.301   .     A
C14    O35     1.288   .     A
C15    O36     1.301   .     A
C15    C17     1.463   .     S
C15    O37     1.301   .     A
C16    H25     1.084   .     S
C18    C19     1.391   .     A
C18    Br142   1.919   1_455 S
C19    C452    1.386   .     S
C19    H123    1.083   1_455 S
C20    H26     1.079   .     S
C20    C451    1.386   1_554 S
C20    C434    1.408   1_554 S
Cu21   O30     1.978   .     S
Cu21   O32     1.930   .     S
Cu21   O36     1.909   .     S
Cu21   O34     1.978   .     S
Cu21   Cu22    2.700   .     S
Cu21   N29     2.029   .     S
Cu22   N28     2.029   .     S
Cu22   O35     1.978   .     S
Cu22   O31     1.978   .     S
Cu22   O33     1.909   .     S
Cu22   O37     1.930   .     S
H27    C67     1.083   .     S
N28    N77     1.278   .     S
N28    N89     1.385   .     S
N29    N124    1.278   1_455 S
N29    Br140   1.882   1_455 S
N38    H40     1.046   .     S
N38    H39     1.045   .     S
N38    C157    1.440   .     S
N41    H42     1.044   .     S
N41    N124    1.385   1_455 S
N41    H139    1.043   1_455 S
H43    N89     1.043   .     S
Br44   N77     1.882   .     S
Br46   C66     1.919   .     S
Br48   C299    1.946   1_545 S
C49    C59     1.438   .     S
C49    O78     1.292   .     A
C49    O79     1.297   .     A
C50    C51     1.419   .     A
C50    C484    1.423   .     S
C50    C500    1.408   .     S
C51    C58     1.427   .     A
C51    C55     1.416   .     A
C52    C56     1.416   .     A
C52    C53     1.419   .     A
C52    C482    1.423   1_554 S
C53    C64     1.402   .     A
C53    C486    1.392   1_554 S
C54    C55     1.390   .     A
C54    H72     1.085   .     S
C54    C485    1.392   .     S
C55    Br95    1.912   .     S
C56    Br93    1.938   .     S
C56    C65     1.401   .     A
C57    C65     1.398   .     A
C57    C64     1.390   .     A
C57    H71     1.083   .     S
C58    C60     1.491   .     S
C58    C66     1.421   .     A
C59    C205    1.360   .     S
C59    Br240   1.946   .     S
C60    O80     1.305   .     A
C60    O81     1.309   .     A
C61    C62     1.441   .     S
C61    C347    1.360   1_545 S
C61    N374    1.440   1_545 S
C62    O82     1.301   .     A
C62    O83     1.288   .     A
C63    O84     1.301   .     A
C63    C65     1.463   .     S
C63    O85     1.301   .     A
C64    H73     1.084   .     S
C66    C67     1.391   .     A
C67    C500    1.386   .     S
C68    H74     1.079   .     S
C68    C499    1.386   1_554 S
C68    C482    1.408   1_554 S
Cu69   O78     1.978   .     S
Cu69   O80     1.930   .     S
Cu69   O84     1.909   .     S
Cu69   O82     1.978   .     S
Cu69   Cu70    2.700   .     S
Cu69   N77     2.029   .     S
Cu70   N76     2.029   .     S
Cu70   O83     1.978   .     S
Cu70   O79     1.978   .     S
Cu70   O81     1.909   .     S
Cu70   O85     1.930   .     S
H75    C115    1.083   .     S
N76    N125    1.278   .     S
N76    N137    1.385   .     S
N86    H88     1.046   .     S
N86    H87     1.045   .     S
N86    C205    1.440   .     S
N89    H90     1.044   .     S
H91    N137    1.043   .     S
Br92   N125    1.882   .     S
Br94   C114    1.919   .     S
Br96   C347    1.946   1_545 S
C97    C107    1.438   .     S
C97    O126    1.292   .     A
C97    O127    1.297   .     A
C98    C99     1.419   .     A
C98    C532    1.423   .     S
C98    C548    1.408   .     S
C99    C106    1.427   .     A
C99    C103    1.416   .     A
C100   C104    1.416   .     A
C100   C101    1.419   .     A
C100   C530    1.423   1_554 S
C101   C112    1.402   .     A
C101   C534    1.392   1_554 S
C102   C103    1.390   .     A
C102   H120    1.085   .     S
C102   C533    1.392   .     S
C103   Br143   1.912   .     S
C104   Br141   1.938   .     S
C104   C113    1.401   .     A
C105   C113    1.398   .     A
C105   C112    1.390   .     A
C105   H119    1.083   .     S
C106   C108    1.491   .     S
C106   C114    1.421   .     A
C107   C253    1.360   .     S
C107   Br288   1.946   .     S
C108   O128    1.305   .     A
C108   O129    1.309   .     A
C109   C110    1.441   .     S
C109   C395    1.360   1_545 S
C109   N422    1.440   1_545 S
C110   O130    1.301   .     A
C110   O131    1.288   .     A
C111   O132    1.301   .     A
C111   C113    1.463   .     S
C111   O133    1.301   .     A
C112   H121    1.084   .     S
C114   C115    1.391   .     A
C115   C548    1.386   .     S
C116   H122    1.079   .     S
C116   C547    1.386   1_554 S
C116   C530    1.408   1_554 S
Cu117  O126    1.978   .     S
Cu117  O128    1.930   .     S
Cu117  O132    1.909   .     S
Cu117  O130    1.978   .     S
Cu117  Cu118   2.700   .     S
Cu117  N125    2.029   .     S
Cu118  N124    2.029   .     S
Cu118  O131    1.978   .     S
Cu118  O127    1.978   .     S
Cu118  O129    1.909   .     S
Cu118  O133    1.930   .     S
H123   C19     1.083   1_655 S
N124   N29     1.278   1_655 S
N124   N41     1.385   1_655 S
N134   H136    1.046   .     S
N134   H135    1.045   .     S
N134   C253    1.440   .     S
N137   H138    1.044   .     S
H139   N41     1.043   1_655 S
Br140  N29     1.882   1_655 S
Br142  C18     1.919   1_655 S
Br144  C395    1.946   1_545 S
C145   C155    1.438   .     S
C145   O174    1.292   .     A
C145   O175    1.297   .     A
C146   C147    1.419   .     A
C146   C580    1.423   .     S
C146   C596    1.408   .     S
C147   C154    1.427   .     A
C147   C151    1.416   .     A
C148   C152    1.416   .     A
C148   C149    1.419   .     A
C148   C578    1.423   1_554 S
C149   C160    1.402   .     A
C149   C582    1.392   1_554 S
C150   C151    1.390   .     A
C150   H168    1.085   .     S
C150   C581    1.392   .     S
C151   Br191   1.912   .     S
C152   Br189   1.938   .     S
C152   C161    1.401   .     A
C153   C161    1.398   .     A
C153   C160    1.390   .     A
C153   H167    1.083   .     S
C154   C156    1.491   .     S
C154   C162    1.421   .     A
C155   C301    1.360   .     S
C155   Br336   1.946   .     S
C156   O176    1.305   .     A
C156   O177    1.309   .     A
C157   C158    1.441   .     S
C158   O178    1.301   .     A
C158   O179    1.288   .     A
C159   O180    1.301   .     A
C159   C161    1.463   .     S
C159   O181    1.301   .     A
C160   H169    1.084   .     S
C162   C163    1.391   .     A
C162   Br286   1.919   1_455 S
C163   C596    1.386   .     S
C163   H267    1.083   1_455 S
C164   H170    1.079   .     S
C164   C595    1.386   1_554 S
C164   C578    1.408   1_554 S
Cu165  O174    1.978   .     S
Cu165  O176    1.930   .     S
Cu165  O180    1.909   .     S
Cu165  O178    1.978   .     S
Cu165  Cu166   2.700   .     S
Cu165  N173    2.029   .     S
Cu166  N172    2.029   .     S
Cu166  O179    1.978   .     S
Cu166  O175    1.978   .     S
Cu166  O177    1.909   .     S
Cu166  O181    1.930   .     S
H171   C211    1.083   .     S
N172   N221    1.278   .     S
N172   N233    1.385   .     S
N173   N268    1.278   1_455 S
N173   Br284   1.882   1_455 S
N182   H184    1.046   .     S
N182   H183    1.045   .     S
N182   C301    1.440   .     S
N185   H186    1.044   .     S
N185   N268    1.385   1_455 S
N185   H283    1.043   1_455 S
H187   N233    1.043   .     S
Br188  N221    1.882   .     S
Br190  C210    1.919   .     S
C193   C203    1.438   .     S
C193   O222    1.292   .     A
C193   O223    1.297   .     A
C194   C195    1.419   .     A
C194   C628    1.423   .     S
C194   C644    1.408   .     S
C195   C202    1.427   .     A
C195   C199    1.416   .     A
C196   C200    1.416   .     A
C196   C197    1.419   .     A
C196   C626    1.423   1_554 S
C197   C208    1.402   .     A
C197   C630    1.392   1_554 S
C198   C199    1.390   .     A
C198   H216    1.085   .     S
C198   C629    1.392   .     S
C199   Br239   1.912   .     S
C200   Br237   1.938   .     S
C200   C209    1.401   .     A
C201   C209    1.398   .     A
C201   C208    1.390   .     A
C201   H215    1.083   .     S
C202   C204    1.491   .     S
C202   C210    1.421   .     A
C203   C349    1.360   .     S
C203   Br384   1.946   .     S
C204   O224    1.305   .     A
C204   O225    1.309   .     A
C205   C206    1.441   .     S
C206   O226    1.301   .     A
C206   O227    1.288   .     A
C207   O228    1.301   .     A
C207   C209    1.463   .     S
C207   O229    1.301   .     A
C208   H217    1.084   .     S
C210   C211    1.391   .     A
C211   C644    1.386   .     S
C212   H218    1.079   .     S
C212   C643    1.386   1_554 S
C212   C626    1.408   1_554 S
Cu213  O222    1.978   .     S
Cu213  O224    1.930   .     S
Cu213  O228    1.909   .     S
Cu213  O226    1.978   .     S
Cu213  Cu214   2.700   .     S
Cu213  N221    2.029   .     S
Cu214  N220    2.029   .     S
Cu214  O227    1.978   .     S
Cu214  O223    1.978   .     S
Cu214  O225    1.909   .     S
Cu214  O229    1.930   .     S
H219   C259    1.083   .     S
N220   N269    1.278   .     S
N220   N281    1.385   .     S
N230   H232    1.046   .     S
N230   H231    1.045   .     S
N230   C349    1.440   .     S
N233   H234    1.044   .     S
H235   N281    1.043   .     S
Br236  N269    1.882   .     S
Br238  C258    1.919   .     S
C241   C251    1.438   .     S
C241   O270    1.292   .     A
C241   O271    1.297   .     A
C242   C243    1.419   .     A
C242   C676    1.423   .     S
C242   C692    1.408   .     S
C243   C250    1.427   .     A
C243   C247    1.416   .     A
C244   C248    1.416   .     A
C244   C245    1.419   .     A
C244   C674    1.423   1_554 S
C245   C256    1.402   .     A
C245   C678    1.392   1_554 S
C246   C247    1.390   .     A
C246   H264    1.085   .     S
C246   C677    1.392   .     S
C247   Br287   1.912   .     S
C248   Br285   1.938   .     S
C248   C257    1.401   .     A
C249   C257    1.398   .     A
C249   C256    1.390   .     A
C249   H263    1.083   .     S
C250   C252    1.491   .     S
C250   C258    1.421   .     A
C251   C397    1.360   .     S
C251   Br432   1.946   .     S
C252   O272    1.305   .     A
C252   O273    1.309   .     A
C253   C254    1.441   .     S
C254   O274    1.301   .     A
C254   O275    1.288   .     A
C255   O276    1.301   .     A
C255   C257    1.463   .     S
C255   O277    1.301   .     A
C256   H265    1.084   .     S
C258   C259    1.391   .     A
C259   C692    1.386   .     S
C260   H266    1.079   .     S
C260   C691    1.386   1_554 S
C260   C674    1.408   1_554 S
Cu261  O270    1.978   .     S
Cu261  O272    1.930   .     S
Cu261  O276    1.909   .     S
Cu261  O274    1.978   .     S
Cu261  Cu262   2.700   .     S
Cu261  N269    2.029   .     S
Cu262  N268    2.029   .     S
Cu262  O275    1.978   .     S
Cu262  O271    1.978   .     S
Cu262  O273    1.909   .     S
Cu262  O277    1.930   .     S
H267   C163    1.083   1_655 S
N268   N173    1.278   1_655 S
N268   N185    1.385   1_655 S
N278   H280    1.046   .     S
N278   H279    1.045   .     S
N278   C397    1.440   .     S
N281   H282    1.044   .     S
H283   N185    1.043   1_655 S
Br284  N173    1.882   1_655 S
Br286  C162    1.919   1_655 S
C289   C299    1.438   .     S
C289   O318    1.292   .     A
C289   O319    1.297   .     A
C290   C291    1.419   .     A
C290   C724    1.423   .     S
C290   C740    1.408   .     S
C291   C298    1.427   .     A
C291   C295    1.416   .     A
C292   C296    1.416   .     A
C292   C293    1.419   .     A
C292   C722    1.423   1_554 S
C293   C304    1.402   .     A
C293   C726    1.392   1_554 S
C294   C295    1.390   .     A
C294   H312    1.085   .     S
C294   C725    1.392   .     S
C295   Br335   1.912   .     S
C296   Br333   1.938   .     S
C296   C305    1.401   .     A
C297   C305    1.398   .     A
C297   C304    1.390   .     A
C297   H311    1.083   .     S
C298   C300    1.491   .     S
C298   C306    1.421   .     A
C299   C13     1.360   1_565 S
C299   Br48    1.946   1_565 S
C300   O320    1.305   .     A
C300   O321    1.309   .     A
C301   C302    1.441   .     S
C302   O322    1.301   .     A
C302   O323    1.288   .     A
C303   O324    1.301   .     A
C303   C305    1.463   .     S
C303   O325    1.301   .     A
C304   H313    1.084   .     S
C306   C307    1.391   .     A
C306   Br430   1.919   1_455 S
C307   C740    1.386   .     S
C307   H411    1.083   1_455 S
C308   H314    1.079   .     S
C308   C739    1.386   1_554 S
C308   C722    1.408   1_554 S
Cu309  O318    1.978   .     S
Cu309  O320    1.930   .     S
Cu309  O324    1.909   .     S
Cu309  O322    1.978   .     S
Cu309  Cu310   2.700   .     S
Cu309  N317    2.029   .     S
Cu310  N316    2.029   .     S
Cu310  O323    1.978   .     S
Cu310  O319    1.978   .     S
Cu310  O321    1.909   .     S
Cu310  O325    1.930   .     S
H315   C355    1.083   .     S
N316   N365    1.278   .     S
N316   N377    1.385   .     S
N317   N412    1.278   1_455 S
N317   Br428   1.882   1_455 S
N326   H328    1.046   .     S
N326   H327    1.045   .     S
N326   C13     1.440   1_565 S
N329   H330    1.044   .     S
N329   N412    1.385   1_455 S
N329   H427    1.043   1_455 S
H331   N377    1.043   .     S
Br332  N365    1.882   .     S
Br334  C354    1.919   .     S
C337   C347    1.438   .     S
C337   O366    1.292   .     A
C337   O367    1.297   .     A
C338   C339    1.419   .     A
C338   C772    1.423   .     S
C338   C788    1.408   .     S
C339   C346    1.427   .     A
C339   C343    1.416   .     A
C340   C344    1.416   .     A
C340   C341    1.419   .     A
C340   C770    1.423   1_554 S
C341   C352    1.402   .     A
C341   C774    1.392   1_554 S
C342   C343    1.390   .     A
C342   H360    1.085   .     S
C342   C773    1.392   .     S
C343   Br383   1.912   .     S
C344   Br381   1.938   .     S
C344   C353    1.401   .     A
C345   C353    1.398   .     A
C345   C352    1.390   .     A
C345   H359    1.083   .     S
C346   C348    1.491   .     S
C346   C354    1.421   .     A
C347   C61     1.360   1_565 S
C347   Br96    1.946   1_565 S
C348   O368    1.305   .     A
C348   O369    1.309   .     A
C349   C350    1.441   .     S
C350   O370    1.301   .     A
C350   O371    1.288   .     A
C351   O372    1.301   .     A
C351   C353    1.463   .     S
C351   O373    1.301   .     A
C352   H361    1.084   .     S
C354   C355    1.391   .     A
C355   C788    1.386   .     S
C356   H362    1.079   .     S
C356   C787    1.386   1_554 S
C356   C770    1.408   1_554 S
Cu357  O366    1.978   .     S
Cu357  O368    1.930   .     S
Cu357  O372    1.909   .     S
Cu357  O370    1.978   .     S
Cu357  Cu358   2.700   .     S
Cu357  N365    2.029   .     S
Cu358  N364    2.029   .     S
Cu358  O371    1.978   .     S
Cu358  O367    1.978   .     S
Cu358  O369    1.909   .     S
Cu358  O373    1.930   .     S
H363   C403    1.083   .     S
N364   N413    1.278   .     S
N364   N425    1.385   .     S
N374   H376    1.046   .     S
N374   H375    1.045   .     S
N374   C61     1.440   1_565 S
N377   H378    1.044   .     S
H379   N425    1.043   .     S
Br380  N413    1.882   .     S
Br382  C402    1.919   .     S
C385   C395    1.438   .     S
C385   O414    1.292   .     A
C385   O415    1.297   .     A
C386   C387    1.419   .     A
C386   C820    1.423   .     S
C386   C836    1.408   .     S
C387   C394    1.427   .     A
C387   C391    1.416   .     A
C388   C392    1.416   .     A
C388   C389    1.419   .     A
C388   C818    1.423   1_554 S
C389   C400    1.402   .     A
C389   C822    1.392   1_554 S
C390   C391    1.390   .     A
C390   H408    1.085   .     S
C390   C821    1.392   .     S
C391   Br431   1.912   .     S
C392   Br429   1.938   .     S
C392   C401    1.401   .     A
C393   C401    1.398   .     A
C393   C400    1.390   .     A
C393   H407    1.083   .     S
C394   C396    1.491   .     S
C394   C402    1.421   .     A
C395   C109    1.360   1_565 S
C395   Br144   1.946   1_565 S
C396   O416    1.305   .     A
C396   O417    1.309   .     A
C397   C398    1.441   .     S
C398   O418    1.301   .     A
C398   O419    1.288   .     A
C399   O420    1.301   .     A
C399   C401    1.463   .     S
C399   O421    1.301   .     A
C400   H409    1.084   .     S
C402   C403    1.391   .     A
C403   C836    1.386   .     S
C404   H410    1.079   .     S
C404   C835    1.386   1_554 S
C404   C818    1.408   1_554 S
Cu405  O414    1.978   .     S
Cu405  O416    1.930   .     S
Cu405  O420    1.909   .     S
Cu405  O418    1.978   .     S
Cu405  Cu406   2.700   .     S
Cu405  N413    2.029   .     S
Cu406  N412    2.029   .     S
Cu406  O419    1.978   .     S
Cu406  O415    1.978   .     S
Cu406  O417    1.909   .     S
Cu406  O421    1.930   .     S
H411   C307    1.083   1_655 S
N412   N317    1.278   1_655 S
N412   N329    1.385   1_655 S
N422   H424    1.046   .     S
N422   H423    1.045   .     S
N422   C109    1.440   1_565 S
N425   H426    1.044   .     S
H427   N329    1.043   1_655 S
Br428  N317    1.882   1_655 S
Br430  C306    1.919   1_655 S
C433   C443    1.438   .     S
C433   O462    1.292   .     A
C433   O463    1.297   .     A
C434   C435    1.419   .     A
C434   C4      1.423   1_556 S
C434   C20     1.408   1_556 S
C435   C442    1.427   .     A
C435   C439    1.416   .     A
C436   C440    1.416   .     A
C436   C437    1.419   .     A
C437   C448    1.402   .     A
C438   C439    1.390   .     A
C438   H456    1.085   .     S
C438   C5      1.392   1_556 S
C439   Br479   1.912   .     S
C440   Br477   1.938   .     S
C440   C449    1.401   .     A
C441   C449    1.398   .     A
C441   C448    1.390   .     A
C441   H455    1.083   .     S
C442   C444    1.491   .     S
C442   C450    1.421   .     A
C443   C589    1.360   .     S
C443   Br624   1.946   .     S
C444   O464    1.305   .     A
C444   O465    1.309   .     A
C445   C446    1.441   .     S
C445   C731    1.360   1_545 S
C445   N758    1.440   1_545 S
C446   O466    1.301   .     A
C446   O467    1.288   .     A
C447   O468    1.301   .     A
C447   C449    1.463   .     S
C447   O469    1.301   .     A
C448   H457    1.084   .     S
C450   C451    1.391   .     A
C450   Br574   1.919   1_455 S
C451   C20     1.386   1_556 S
C451   H555    1.083   1_455 S
C452   H458    1.079   .     S
Cu453  O462    1.978   .     S
Cu453  O464    1.930   .     S
Cu453  O468    1.909   .     S
Cu453  O466    1.978   .     S
Cu453  Cu454   2.700   .     S
Cu453  N461    2.029   .     S
Cu454  N460    2.029   .     S
Cu454  O467    1.978   .     S
Cu454  O463    1.978   .     S
Cu454  O465    1.909   .     S
Cu454  O469    1.930   .     S
H459   C499    1.083   .     S
N460   N509    1.278   .     S
N460   N521    1.385   .     S
N461   N556    1.278   1_455 S
N461   Br572   1.882   1_455 S
N470   H472    1.046   .     S
N470   H471    1.045   .     S
N470   C589    1.440   .     S
N473   H474    1.044   .     S
N473   N556    1.385   1_455 S
N473   H571    1.043   1_455 S
H475   N521    1.043   .     S
Br476  N509    1.882   .     S
Br478  C498    1.919   .     S
Br480  C731    1.946   1_545 S
C481   C491    1.438   .     S
C481   O510    1.292   .     A
C481   O511    1.297   .     A
C482   C483    1.419   .     A
C482   C52     1.423   1_556 S
C482   C68     1.408   1_556 S
C483   C490    1.427   .     A
C483   C487    1.416   .     A
C484   C488    1.416   .     A
C484   C485    1.419   .     A
C485   C496    1.402   .     A
C486   C487    1.390   .     A
C486   H504    1.085   .     S
C486   C53     1.392   1_556 S
C487   Br527   1.912   .     S
C488   Br525   1.938   .     S
C488   C497    1.401   .     A
C489   C497    1.398   .     A
C489   C496    1.390   .     A
C489   H503    1.083   .     S
C490   C492    1.491   .     S
C490   C498    1.421   .     A
C491   C637    1.360   .     S
C491   Br672   1.946   .     S
C492   O512    1.305   .     A
C492   O513    1.309   .     A
C493   C494    1.441   .     S
C493   C779    1.360   1_545 S
C493   N806    1.440   1_545 S
C494   O514    1.301   .     A
C494   O515    1.288   .     A
C495   O516    1.301   .     A
C495   C497    1.463   .     S
C495   O517    1.301   .     A
C496   H505    1.084   .     S
C498   C499    1.391   .     A
C499   C68     1.386   1_556 S
C500   H506    1.079   .     S
Cu501  O510    1.978   .     S
Cu501  O512    1.930   .     S
Cu501  O516    1.909   .     S
Cu501  O514    1.978   .     S
Cu501  Cu502   2.700   .     S
Cu501  N509    2.029   .     S
Cu502  N508    2.029   .     S
Cu502  O515    1.978   .     S
Cu502  O511    1.978   .     S
Cu502  O513    1.909   .     S
Cu502  O517    1.930   .     S
H507   C547    1.083   .     S
N508   N557    1.278   .     S
N508   N569    1.385   .     S
N518   H520    1.046   .     S
N518   H519    1.045   .     S
N518   C637    1.440   .     S
N521   H522    1.044   .     S
H523   N569    1.043   .     S
Br524  N557    1.882   .     S
Br526  C546    1.919   .     S
Br528  C779    1.946   1_545 S
C529   C539    1.438   .     S
C529   O558    1.292   .     A
C529   O559    1.297   .     A
C530   C531    1.419   .     A
C530   C100    1.423   1_556 S
C530   C116    1.408   1_556 S
C531   C538    1.427   .     A
C531   C535    1.416   .     A
C532   C536    1.416   .     A
C532   C533    1.419   .     A
C533   C544    1.402   .     A
C534   C535    1.390   .     A
C534   H552    1.085   .     S
C534   C101    1.392   1_556 S
C535   Br575   1.912   .     S
C536   Br573   1.938   .     S
C536   C545    1.401   .     A
C537   C545    1.398   .     A
C537   C544    1.390   .     A
C537   H551    1.083   .     S
C538   C540    1.491   .     S
C538   C546    1.421   .     A
C539   C685    1.360   .     S
C539   Br720   1.946   .     S
C540   O560    1.305   .     A
C540   O561    1.309   .     A
C541   C542    1.441   .     S
C541   C827    1.360   1_545 S
C541   N854    1.440   1_545 S
C542   O562    1.301   .     A
C542   O563    1.288   .     A
C543   O564    1.301   .     A
C543   C545    1.463   .     S
C543   O565    1.301   .     A
C544   H553    1.084   .     S
C546   C547    1.391   .     A
C547   C116    1.386   1_556 S
C548   H554    1.079   .     S
Cu549  O558    1.978   .     S
Cu549  O560    1.930   .     S
Cu549  O564    1.909   .     S
Cu549  O562    1.978   .     S
Cu549  Cu550   2.700   .     S
Cu549  N557    2.029   .     S
Cu550  N556    2.029   .     S
Cu550  O563    1.978   .     S
Cu550  O559    1.978   .     S
Cu550  O561    1.909   .     S
Cu550  O565    1.930   .     S
H555   C451    1.083   1_655 S
N556   N461    1.278   1_655 S
N556   N473    1.385   1_655 S
N566   H568    1.046   .     S
N566   H567    1.045   .     S
N566   C685    1.440   .     S
N569   H570    1.044   .     S
H571   N473    1.043   1_655 S
Br572  N461    1.882   1_655 S
Br574  C450    1.919   1_655 S
Br576  C827    1.946   1_545 S
C577   C587    1.438   .     S
C577   O606    1.292   .     A
C577   O607    1.297   .     A
C578   C579    1.419   .     A
C578   C148    1.423   1_556 S
C578   C164    1.408   1_556 S
C579   C586    1.427   .     A
C579   C583    1.416   .     A
C580   C584    1.416   .     A
C580   C581    1.419   .     A
C581   C592    1.402   .     A
C582   C583    1.390   .     A
C582   H600    1.085   .     S
C582   C149    1.392   1_556 S
C583   Br623   1.912   .     S
C584   Br621   1.938   .     S
C584   C593    1.401   .     A
C585   C593    1.398   .     A
C585   C592    1.390   .     A
C585   H599    1.083   .     S
C586   C588    1.491   .     S
C586   C594    1.421   .     A
C587   C733    1.360   .     S
C587   Br768   1.946   .     S
C588   O608    1.305   .     A
C588   O609    1.309   .     A
C589   C590    1.441   .     S
C590   O610    1.301   .     A
C590   O611    1.288   .     A
C591   O612    1.301   .     A
C591   C593    1.463   .     S
C591   O613    1.301   .     A
C592   H601    1.084   .     S
C594   C595    1.391   .     A
C594   Br718   1.919   1_455 S
C595   C164    1.386   1_556 S
C595   H699    1.083   1_455 S
C596   H602    1.079   .     S
Cu597  O606    1.978   .     S
Cu597  O608    1.930   .     S
Cu597  O612    1.909   .     S
Cu597  O610    1.978   .     S
Cu597  Cu598   2.700   .     S
Cu597  N605    2.029   .     S
Cu598  N604    2.029   .     S
Cu598  O611    1.978   .     S
Cu598  O607    1.978   .     S
Cu598  O609    1.909   .     S
Cu598  O613    1.930   .     S
H603   C643    1.083   .     S
N604   N653    1.278   .     S
N604   N665    1.385   .     S
N605   N700    1.278   1_455 S
N605   Br716   1.882   1_455 S
N614   H616    1.046   .     S
N614   H615    1.045   .     S
N614   C733    1.440   .     S
N617   H618    1.044   .     S
N617   N700    1.385   1_455 S
N617   H715    1.043   1_455 S
H619   N665    1.043   .     S
Br620  N653    1.882   .     S
Br622  C642    1.919   .     S
C625   C635    1.438   .     S
C625   O654    1.292   .     A
C625   O655    1.297   .     A
C626   C627    1.419   .     A
C626   C196    1.423   1_556 S
C626   C212    1.408   1_556 S
C627   C634    1.427   .     A
C627   C631    1.416   .     A
C628   C632    1.416   .     A
C628   C629    1.419   .     A
C629   C640    1.402   .     A
C630   C631    1.390   .     A
C630   H648    1.085   .     S
C630   C197    1.392   1_556 S
C631   Br671   1.912   .     S
C632   Br669   1.938   .     S
C632   C641    1.401   .     A
C633   C641    1.398   .     A
C633   C640    1.390   .     A
C633   H647    1.083   .     S
C634   C636    1.491   .     S
C634   C642    1.421   .     A
C635   C781    1.360   .     S
C635   Br816   1.946   .     S
C636   O656    1.305   .     A
C636   O657    1.309   .     A
C637   C638    1.441   .     S
C638   O658    1.301   .     A
C638   O659    1.288   .     A
C639   O660    1.301   .     A
C639   C641    1.463   .     S
C639   O661    1.301   .     A
C640   H649    1.084   .     S
C642   C643    1.391   .     A
C643   C212    1.386   1_556 S
C644   H650    1.079   .     S
Cu645  O654    1.978   .     S
Cu645  O656    1.930   .     S
Cu645  O660    1.909   .     S
Cu645  O658    1.978   .     S
Cu645  Cu646   2.700   .     S
Cu645  N653    2.029   .     S
Cu646  N652    2.029   .     S
Cu646  O659    1.978   .     S
Cu646  O655    1.978   .     S
Cu646  O657    1.909   .     S
Cu646  O661    1.930   .     S
H651   C691    1.083   .     S
N652   N701    1.278   .     S
N652   N713    1.385   .     S
N662   H664    1.046   .     S
N662   H663    1.045   .     S
N662   C781    1.440   .     S
N665   H666    1.044   .     S
H667   N713    1.043   .     S
Br668  N701    1.882   .     S
Br670  C690    1.919   .     S
C673   C683    1.438   .     S
C673   O702    1.292   .     A
C673   O703    1.297   .     A
C674   C675    1.419   .     A
C674   C244    1.423   1_556 S
C674   C260    1.408   1_556 S
C675   C682    1.427   .     A
C675   C679    1.416   .     A
C676   C680    1.416   .     A
C676   C677    1.419   .     A
C677   C688    1.402   .     A
C678   C679    1.390   .     A
C678   H696    1.085   .     S
C678   C245    1.392   1_556 S
C679   Br719   1.912   .     S
C680   Br717   1.938   .     S
C680   C689    1.401   .     A
C681   C689    1.398   .     A
C681   C688    1.390   .     A
C681   H695    1.083   .     S
C682   C684    1.491   .     S
C682   C690    1.421   .     A
C683   C829    1.360   .     S
C683   Br864   1.946   .     S
C684   O704    1.305   .     A
C684   O705    1.309   .     A
C685   C686    1.441   .     S
C686   O706    1.301   .     A
C686   O707    1.288   .     A
C687   O708    1.301   .     A
C687   C689    1.463   .     S
C687   O709    1.301   .     A
C688   H697    1.084   .     S
C690   C691    1.391   .     A
C691   C260    1.386   1_556 S
C692   H698    1.079   .     S
Cu693  O702    1.978   .     S
Cu693  O704    1.930   .     S
Cu693  O708    1.909   .     S
Cu693  O706    1.978   .     S
Cu693  Cu694   2.700   .     S
Cu693  N701    2.029   .     S
Cu694  N700    2.029   .     S
Cu694  O707    1.978   .     S
Cu694  O703    1.978   .     S
Cu694  O705    1.909   .     S
Cu694  O709    1.930   .     S
H699   C595    1.083   1_655 S
N700   N605    1.278   1_655 S
N700   N617    1.385   1_655 S
N710   H712    1.046   .     S
N710   H711    1.045   .     S
N710   C829    1.440   .     S
N713   H714    1.044   .     S
H715   N617    1.043   1_655 S
Br716  N605    1.882   1_655 S
Br718  C594    1.919   1_655 S
C721   C731    1.438   .     S
C721   O750    1.292   .     A
C721   O751    1.297   .     A
C722   C723    1.419   .     A
C722   C292    1.423   1_556 S
C722   C308    1.408   1_556 S
C723   C730    1.427   .     A
C723   C727    1.416   .     A
C724   C728    1.416   .     A
C724   C725    1.419   .     A
C725   C736    1.402   .     A
C726   C727    1.390   .     A
C726   H744    1.085   .     S
C726   C293    1.392   1_556 S
C727   Br767   1.912   .     S
C728   Br765   1.938   .     S
C728   C737    1.401   .     A
C729   C737    1.398   .     A
C729   C736    1.390   .     A
C729   H743    1.083   .     S
C730   C732    1.491   .     S
C730   C738    1.421   .     A
C731   C445    1.360   1_565 S
C731   Br480   1.946   1_565 S
C732   O752    1.305   .     A
C732   O753    1.309   .     A
C733   C734    1.441   .     S
C734   O754    1.301   .     A
C734   O755    1.288   .     A
C735   O756    1.301   .     A
C735   C737    1.463   .     S
C735   O757    1.301   .     A
C736   H745    1.084   .     S
C738   C739    1.391   .     A
C738   Br862   1.919   1_455 S
C739   C308    1.386   1_556 S
C739   H843    1.083   1_455 S
C740   H746    1.079   .     S
Cu741  O750    1.978   .     S
Cu741  O752    1.930   .     S
Cu741  O756    1.909   .     S
Cu741  O754    1.978   .     S
Cu741  Cu742   2.700   .     S
Cu741  N749    2.029   .     S
Cu742  N748    2.029   .     S
Cu742  O755    1.978   .     S
Cu742  O751    1.978   .     S
Cu742  O753    1.909   .     S
Cu742  O757    1.930   .     S
H747   C787    1.083   .     S
N748   N797    1.278   .     S
N748   N809    1.385   .     S
N749   N844    1.278   1_455 S
N749   Br860   1.882   1_455 S
N758   H760    1.046   .     S
N758   H759    1.045   .     S
N758   C445    1.440   1_565 S
N761   H762    1.044   .     S
N761   N844    1.385   1_455 S
N761   H859    1.043   1_455 S
H763   N809    1.043   .     S
Br764  N797    1.882   .     S
Br766  C786    1.919   .     S
C769   C779    1.438   .     S
C769   O798    1.292   .     A
C769   O799    1.297   .     A
C770   C771    1.419   .     A
C770   C340    1.423   1_556 S
C770   C356    1.408   1_556 S
C771   C778    1.427   .     A
C771   C775    1.416   .     A
C772   C776    1.416   .     A
C772   C773    1.419   .     A
C773   C784    1.402   .     A
C774   C775    1.390   .     A
C774   H792    1.085   .     S
C774   C341    1.392   1_556 S
C775   Br815   1.912   .     S
C776   Br813   1.938   .     S
C776   C785    1.401   .     A
C777   C785    1.398   .     A
C777   C784    1.390   .     A
C777   H791    1.083   .     S
C778   C780    1.491   .     S
C778   C786    1.421   .     A
C779   C493    1.360   1_565 S
C779   Br528   1.946   1_565 S
C780   O800    1.305   .     A
C780   O801    1.309   .     A
C781   C782    1.441   .     S
C782   O802    1.301   .     A
C782   O803    1.288   .     A
C783   O804    1.301   .     A
C783   C785    1.463   .     S
C783   O805    1.301   .     A
C784   H793    1.084   .     S
C786   C787    1.391   .     A
C787   C356    1.386   1_556 S
C788   H794    1.079   .     S
Cu789  O798    1.978   .     S
Cu789  O800    1.930   .     S
Cu789  O804    1.909   .     S
Cu789  O802    1.978   .     S
Cu789  Cu790   2.700   .     S
Cu789  N797    2.029   .     S
Cu790  N796    2.029   .     S
Cu790  O803    1.978   .     S
Cu790  O799    1.978   .     S
Cu790  O801    1.909   .     S
Cu790  O805    1.930   .     S
H795   C835    1.083   .     S
N796   N845    1.278   .     S
N796   N857    1.385   .     S
N806   H808    1.046   .     S
N806   H807    1.045   .     S
N806   C493    1.440   1_565 S
N809   H810    1.044   .     S
H811   N857    1.043   .     S
Br812  N845    1.882   .     S
Br814  C834    1.919   .     S
C817   C827    1.438   .     S
C817   O846    1.292   .     A
C817   O847    1.297   .     A
C818   C819    1.419   .     A
C818   C388    1.423   1_556 S
C818   C404    1.408   1_556 S
C819   C826    1.427   .     A
C819   C823    1.416   .     A
C820   C824    1.416   .     A
C820   C821    1.419   .     A
C821   C832    1.402   .     A
C822   C823    1.390   .     A
C822   H840    1.085   .     S
C822   C389    1.392   1_556 S
C823   Br863   1.912   .     S
C824   Br861   1.938   .     S
C824   C833    1.401   .     A
C825   C833    1.398   .     A
C825   C832    1.390   .     A
C825   H839    1.083   .     S
C826   C828    1.491   .     S
C826   C834    1.421   .     A
C827   C541    1.360   1_565 S
C827   Br576   1.946   1_565 S
C828   O848    1.305   .     A
C828   O849    1.309   .     A
C829   C830    1.441   .     S
C830   O850    1.301   .     A
C830   O851    1.288   .     A
C831   O852    1.301   .     A
C831   C833    1.463   .     S
C831   O853    1.301   .     A
C832   H841    1.084   .     S
C834   C835    1.391   .     A
C835   C404    1.386   1_556 S
C836   H842    1.079   .     S
Cu837  O846    1.978   .     S
Cu837  O848    1.930   .     S
Cu837  O852    1.909   .     S
Cu837  O850    1.978   .     S
Cu837  Cu838   2.700   .     S
Cu837  N845    2.029   .     S
Cu838  N844    2.029   .     S
Cu838  O851    1.978   .     S
Cu838  O847    1.978   .     S
Cu838  O849    1.909   .     S
Cu838  O853    1.930   .     S
H843   C739    1.083   1_655 S
N844   N749    1.278   1_655 S
N844   N761    1.385   1_655 S
N854   H856    1.046   .     S
N854   H855    1.045   .     S
N854   C541    1.440   1_565 S
N857   H858    1.044   .     S
H859   N761    1.043   1_655 S
Br860  N749    1.882   1_655 S
Br862  C738    1.919   1_655 S
