data_str_m2_o1_o5_pcu_sym.58
_audit_creation_date              2020-01-03
_audit_creation_method            'Materials Studio'
_symmetry_space_group_name_H-M    'P1'
_symmetry_Int_Tables_number       1
_symmetry_cell_setting            triclinic
loop_
_symmetry_equiv_pos_as_xyz
  x,y,z
_cell_length_a                    32.8165
_cell_length_b                    28.7901
_cell_length_c                    27.1745
_cell_angle_alpha                 90.2494
_cell_angle_beta                  92.5398
_cell_angle_gamma                 90.6937
loop_
_atom_site_label
_atom_site_type_symbol
_atom_site_fract_x
_atom_site_fract_y
_atom_site_fract_z
_atom_site_U_iso_or_equiv
_atom_site_adp_type
_atom_site_occupancy
O1     O     0.10655   0.20625   0.16666   0.00000  Uiso   1.00
O2     O     0.22679   0.12709   0.16667   0.00000  Uiso   1.00
O3     O     0.22679   0.20625   0.16667   0.00000  Uiso   1.00
O4     O     0.10655   0.12709   0.16666   0.00000  Uiso   1.00
C5     C     0.08750   0.16637   0.16888   0.00000  Uiso   1.00
C6     C     0.24583   0.16696   0.16445   0.00000  Uiso   1.00
O7     O     0.16667   0.20625   0.09613   0.00000  Uiso   1.00
O8     O     0.16667   0.12708   0.23720   0.00000  Uiso   1.00
O9     O     0.16667   0.20625   0.23720   0.00000  Uiso   1.00
O10    O     0.16667   0.12708   0.09613   0.00000  Uiso   1.00
C11    C     0.16659   0.16660   0.07362   0.00000  Uiso   1.00
C12    C     0.16675   0.16673   0.25972   0.00000  Uiso   1.00
Cu13   Cu    0.16667   0.21355   0.16667   0.00000  Uiso   1.00
Cu14   Cu    0.16667   0.11978   0.16667   0.00000  Uiso   1.00
C15    C     0.16664   0.16658   0.02187   0.00000  Uiso   1.00
C16    C     0.16669   0.16675   0.31146   0.00000  Uiso   1.00
C17    C     0.02035   0.12382   0.16421   0.00000  Uiso   1.00
C18    C     0.31298   0.20952   0.16910   0.00000  Uiso   1.00
C19    C     0.31125   0.12502   0.15670   0.00000  Uiso   1.00
C20    C     0.02208   0.20832   0.17661   0.00000  Uiso   1.00
C21    C     0.29059   0.16745   0.16210   0.00000  Uiso   1.00
C22    C     0.04274   0.16588   0.17122   0.00000  Uiso   1.00
C23    C     0.14782   0.02417   0.12878   0.00000  Uiso   1.00
C24    C     0.18551   0.30917   0.20455   0.00000  Uiso   1.00
C25    C     0.18611   0.02519   0.20410   0.00000  Uiso   1.00
C26    C     0.14723   0.30815   0.12923   0.00000  Uiso   1.00
N27    N     0.16667   0.28402   0.16667   0.00000  Uiso   1.00
N28    N     0.16667   0.04931   0.16667   0.00000  Uiso   1.00
N29    N     0.04047   0.08018   0.16475   0.00000  Uiso   1.00
H30    H     0.02978   0.05632   0.13877   0.00000  Uiso   1.00
C31    C     0.04700   0.06026   0.21320   0.00000  Uiso   1.00
H32    H     0.01741   0.04972   0.22839   0.00000  Uiso   1.00
H33    H     0.06285   0.08558   0.23866   0.00000  Uiso   1.00
H34    H     0.06648   0.02919   0.21053   0.00000  Uiso   1.00
N35    N     0.29286   0.25316   0.16854   0.00000  Uiso   1.00
H36    H     0.30356   0.27704   0.19450   0.00000  Uiso   1.00
C37    C     0.28631   0.27305   0.12008   0.00000  Uiso   1.00
H38    H     0.31589   0.28358   0.10487   0.00000  Uiso   1.00
H39    H     0.26682   0.30412   0.12274   0.00000  Uiso   1.00
H40    H     0.27046   0.24771   0.09465   0.00000  Uiso   1.00
N41    N     0.28924   0.08360   0.14262   0.00000  Uiso   1.00
H42    H     0.29853   0.05342   0.15972   0.00000  Uiso   1.00
C43    C     0.28093   0.07844   0.09014   0.00000  Uiso   1.00
H44    H     0.30979   0.07310   0.07110   0.00000  Uiso   1.00
H45    H     0.26541   0.10969   0.07494   0.00000  Uiso   1.00
H46    H     0.26046   0.04797   0.08295   0.00000  Uiso   1.00
N47    N     0.04409   0.24974   0.19065   0.00000  Uiso   1.00
H48    H     0.03482   0.27991   0.17351   0.00000  Uiso   1.00
C49    C     0.05240   0.25496   0.24313   0.00000  Uiso   1.00
H50    H     0.02356   0.26061   0.26213   0.00000  Uiso   1.00
H51    H     0.07308   0.28528   0.25025   0.00000  Uiso   1.00
H52    H     0.06771   0.22360   0.25843   0.00000  Uiso   1.00
N53    N     0.12999   0.04719   0.08678   0.00000  Uiso   1.00
O54    O     0.09331   0.06341   0.08784   0.00000  Uiso   1.00
O55    O     0.14767   0.04514   0.04493   0.00000  Uiso   1.00
N56    N     0.20335   0.28614   0.24655   0.00000  Uiso   1.00
O57    O     0.18567   0.28817   0.28840   0.00000  Uiso   1.00
O58    O     0.24006   0.26998   0.24549   0.00000  Uiso   1.00
N59    N     0.20883   0.04942   0.24249   0.00000  Uiso   1.00
O60    O     0.24710   0.05926   0.23691   0.00000  Uiso   1.00
O61    O     0.19481   0.05095   0.28649   0.00000  Uiso   1.00
N62    N     0.12451   0.28391   0.09083   0.00000  Uiso   1.00
O63    O     0.13854   0.28238   0.04684   0.00000  Uiso   1.00
O64    O     0.08624   0.27407   0.09640   0.00000  Uiso   1.00
O65    O     0.43988   0.20625   0.16666   0.00000  Uiso   1.00
O66    O     0.56012   0.12709   0.16667   0.00000  Uiso   1.00
O67    O     0.56012   0.20625   0.16667   0.00000  Uiso   1.00
O68    O     0.43988   0.12709   0.16666   0.00000  Uiso   1.00
C69    C     0.42084   0.16637   0.16888   0.00000  Uiso   1.00
C70    C     0.57916   0.16696   0.16445   0.00000  Uiso   1.00
O71    O     0.50000   0.20625   0.09613   0.00000  Uiso   1.00
O72    O     0.50000   0.12708   0.23720   0.00000  Uiso   1.00
O73    O     0.50000   0.20625   0.23720   0.00000  Uiso   1.00
O74    O     0.50000   0.12708   0.09613   0.00000  Uiso   1.00
C75    C     0.49992   0.16660   0.07362   0.00000  Uiso   1.00
C76    C     0.50008   0.16673   0.25972   0.00000  Uiso   1.00
Cu77   Cu    0.50000   0.21355   0.16667   0.00000  Uiso   1.00
Cu78   Cu    0.50000   0.11978   0.16667   0.00000  Uiso   1.00
C79    C     0.49998   0.16658   0.02187   0.00000  Uiso   1.00
C80    C     0.50002   0.16675   0.31146   0.00000  Uiso   1.00
C81    C     0.35368   0.12382   0.16421   0.00000  Uiso   1.00
C82    C     0.64632   0.20952   0.16910   0.00000  Uiso   1.00
C83    C     0.64458   0.12502   0.15670   0.00000  Uiso   1.00
C84    C     0.35541   0.20832   0.17661   0.00000  Uiso   1.00
C85    C     0.62393   0.16745   0.16210   0.00000  Uiso   1.00
C86    C     0.37607   0.16588   0.17122   0.00000  Uiso   1.00
C87    C     0.48116   0.02417   0.12878   0.00000  Uiso   1.00
C88    C     0.51885   0.30917   0.20455   0.00000  Uiso   1.00
C89    C     0.51944   0.02519   0.20410   0.00000  Uiso   1.00
C90    C     0.48056   0.30815   0.12923   0.00000  Uiso   1.00
N91    N     0.50000   0.28402   0.16667   0.00000  Uiso   1.00
N92    N     0.50000   0.04931   0.16667   0.00000  Uiso   1.00
N93    N     0.37380   0.08018   0.16475   0.00000  Uiso   1.00
H94    H     0.36311   0.05632   0.13877   0.00000  Uiso   1.00
C95    C     0.38033   0.06026   0.21320   0.00000  Uiso   1.00
H96    H     0.35075   0.04972   0.22839   0.00000  Uiso   1.00
H97    H     0.39618   0.08558   0.23866   0.00000  Uiso   1.00
H98    H     0.39981   0.02919   0.21053   0.00000  Uiso   1.00
N99    N     0.62619   0.25316   0.16854   0.00000  Uiso   1.00
H100   H     0.63690   0.27704   0.19450   0.00000  Uiso   1.00
C101   C     0.61965   0.27305   0.12008   0.00000  Uiso   1.00
H102   H     0.64922   0.28358   0.10487   0.00000  Uiso   1.00
H103   H     0.60016   0.30412   0.12274   0.00000  Uiso   1.00
H104   H     0.60380   0.24771   0.09465   0.00000  Uiso   1.00
N105   N     0.62258   0.08360   0.14262   0.00000  Uiso   1.00
H106   H     0.63187   0.05342   0.15972   0.00000  Uiso   1.00
C107   C     0.61426   0.07844   0.09014   0.00000  Uiso   1.00
H108   H     0.64312   0.07310   0.07110   0.00000  Uiso   1.00
H109   H     0.59874   0.10969   0.07494   0.00000  Uiso   1.00
H110   H     0.59379   0.04797   0.08295   0.00000  Uiso   1.00
N111   N     0.37742   0.24974   0.19065   0.00000  Uiso   1.00
H112   H     0.36815   0.27991   0.17351   0.00000  Uiso   1.00
C113   C     0.38573   0.25496   0.24313   0.00000  Uiso   1.00
H114   H     0.35689   0.26061   0.26213   0.00000  Uiso   1.00
H115   H     0.40641   0.28528   0.25025   0.00000  Uiso   1.00
H116   H     0.40104   0.22360   0.25843   0.00000  Uiso   1.00
N117   N     0.46333   0.04719   0.08678   0.00000  Uiso   1.00
O118   O     0.42665   0.06341   0.08784   0.00000  Uiso   1.00
O119   O     0.48100   0.04514   0.04493   0.00000  Uiso   1.00
N120   N     0.53669   0.28614   0.24655   0.00000  Uiso   1.00
O121   O     0.51901   0.28817   0.28840   0.00000  Uiso   1.00
O122   O     0.57339   0.26998   0.24549   0.00000  Uiso   1.00
N123   N     0.54217   0.04942   0.24249   0.00000  Uiso   1.00
O124   O     0.58044   0.05926   0.23691   0.00000  Uiso   1.00
O125   O     0.52815   0.05095   0.28649   0.00000  Uiso   1.00
N126   N     0.45785   0.28391   0.09083   0.00000  Uiso   1.00
O127   O     0.47188   0.28238   0.04684   0.00000  Uiso   1.00
O128   O     0.41957   0.27407   0.09640   0.00000  Uiso   1.00
O129   O     0.77321   0.20625   0.16666   0.00000  Uiso   1.00
O130   O     0.89345   0.12709   0.16667   0.00000  Uiso   1.00
O131   O     0.89345   0.20625   0.16667   0.00000  Uiso   1.00
O132   O     0.77321   0.12709   0.16666   0.00000  Uiso   1.00
C133   C     0.75417   0.16637   0.16888   0.00000  Uiso   1.00
C134   C     0.91250   0.16696   0.16445   0.00000  Uiso   1.00
O135   O     0.83333   0.20625   0.09613   0.00000  Uiso   1.00
O136   O     0.83333   0.12708   0.23720   0.00000  Uiso   1.00
O137   O     0.83333   0.20625   0.23720   0.00000  Uiso   1.00
O138   O     0.83333   0.12708   0.09613   0.00000  Uiso   1.00
C139   C     0.83325   0.16660   0.07362   0.00000  Uiso   1.00
C140   C     0.83341   0.16673   0.25972   0.00000  Uiso   1.00
Cu141  Cu    0.83333   0.21355   0.16667   0.00000  Uiso   1.00
Cu142  Cu    0.83333   0.11978   0.16667   0.00000  Uiso   1.00
C143   C     0.83331   0.16658   0.02187   0.00000  Uiso   1.00
C144   C     0.83336   0.16675   0.31146   0.00000  Uiso   1.00
C145   C     0.68701   0.12382   0.16421   0.00000  Uiso   1.00
C146   C     0.97965   0.20952   0.16910   0.00000  Uiso   1.00
C147   C     0.97792   0.12502   0.15670   0.00000  Uiso   1.00
C148   C     0.68875   0.20832   0.17661   0.00000  Uiso   1.00
C149   C     0.95726   0.16745   0.16210   0.00000  Uiso   1.00
C150   C     0.70940   0.16588   0.17122   0.00000  Uiso   1.00
C151   C     0.81449   0.02417   0.12878   0.00000  Uiso   1.00
C152   C     0.85218   0.30917   0.20455   0.00000  Uiso   1.00
C153   C     0.85277   0.02519   0.20410   0.00000  Uiso   1.00
C154   C     0.81390   0.30815   0.12923   0.00000  Uiso   1.00
N155   N     0.83333   0.28402   0.16667   0.00000  Uiso   1.00
N156   N     0.83333   0.04931   0.16667   0.00000  Uiso   1.00
N157   N     0.70714   0.08018   0.16475   0.00000  Uiso   1.00
H158   H     0.69645   0.05632   0.13877   0.00000  Uiso   1.00
C159   C     0.71367   0.06026   0.21320   0.00000  Uiso   1.00
H160   H     0.68408   0.04972   0.22839   0.00000  Uiso   1.00
H161   H     0.72951   0.08558   0.23866   0.00000  Uiso   1.00
H162   H     0.73315   0.02919   0.21053   0.00000  Uiso   1.00
N163   N     0.95953   0.25316   0.16854   0.00000  Uiso   1.00
H164   H     0.97023   0.27704   0.19450   0.00000  Uiso   1.00
C165   C     0.95298   0.27305   0.12008   0.00000  Uiso   1.00
H166   H     0.98256   0.28358   0.10487   0.00000  Uiso   1.00
H167   H     0.93349   0.30412   0.12274   0.00000  Uiso   1.00
H168   H     0.93713   0.24771   0.09465   0.00000  Uiso   1.00
N169   N     0.95591   0.08360   0.14262   0.00000  Uiso   1.00
H170   H     0.96520   0.05342   0.15972   0.00000  Uiso   1.00
C171   C     0.94760   0.07844   0.09014   0.00000  Uiso   1.00
H172   H     0.97645   0.07310   0.07110   0.00000  Uiso   1.00
H173   H     0.93207   0.10969   0.07494   0.00000  Uiso   1.00
H174   H     0.92712   0.04797   0.08295   0.00000  Uiso   1.00
N175   N     0.71076   0.24974   0.19065   0.00000  Uiso   1.00
H176   H     0.70148   0.27991   0.17351   0.00000  Uiso   1.00
C177   C     0.71907   0.25496   0.24313   0.00000  Uiso   1.00
H178   H     0.69023   0.26061   0.26213   0.00000  Uiso   1.00
H179   H     0.73975   0.28528   0.25025   0.00000  Uiso   1.00
H180   H     0.73438   0.22360   0.25843   0.00000  Uiso   1.00
N181   N     0.79666   0.04719   0.08678   0.00000  Uiso   1.00
O182   O     0.75998   0.06341   0.08784   0.00000  Uiso   1.00
O183   O     0.81434   0.04514   0.04493   0.00000  Uiso   1.00
N184   N     0.87002   0.28614   0.24655   0.00000  Uiso   1.00
O185   O     0.85234   0.28817   0.28840   0.00000  Uiso   1.00
O186   O     0.90672   0.26998   0.24549   0.00000  Uiso   1.00
N187   N     0.87550   0.04942   0.24249   0.00000  Uiso   1.00
O188   O     0.91377   0.05926   0.23691   0.00000  Uiso   1.00
O189   O     0.86148   0.05095   0.28649   0.00000  Uiso   1.00
N190   N     0.79118   0.28391   0.09083   0.00000  Uiso   1.00
O191   O     0.80521   0.28238   0.04684   0.00000  Uiso   1.00
O192   O     0.75291   0.27407   0.09640   0.00000  Uiso   1.00
O193   O     0.10655   0.53958   0.16666   0.00000  Uiso   1.00
O194   O     0.22679   0.46042   0.16667   0.00000  Uiso   1.00
O195   O     0.22679   0.53958   0.16667   0.00000  Uiso   1.00
O196   O     0.10655   0.46042   0.16666   0.00000  Uiso   1.00
C197   C     0.08750   0.49971   0.16888   0.00000  Uiso   1.00
C198   C     0.24583   0.50029   0.16445   0.00000  Uiso   1.00
O199   O     0.16667   0.53959   0.09613   0.00000  Uiso   1.00
O200   O     0.16667   0.46041   0.23720   0.00000  Uiso   1.00
O201   O     0.16667   0.53959   0.23720   0.00000  Uiso   1.00
O202   O     0.16667   0.46041   0.09613   0.00000  Uiso   1.00
C203   C     0.16659   0.49994   0.07362   0.00000  Uiso   1.00
C204   C     0.16675   0.50006   0.25972   0.00000  Uiso   1.00
Cu205  Cu    0.16667   0.54689   0.16667   0.00000  Uiso   1.00
Cu206  Cu    0.16667   0.45311   0.16667   0.00000  Uiso   1.00
C207   C     0.16664   0.49991   0.02187   0.00000  Uiso   1.00
C208   C     0.16669   0.50009   0.31146   0.00000  Uiso   1.00
C209   C     0.02035   0.45715   0.16421   0.00000  Uiso   1.00
C210   C     0.31298   0.54285   0.16910   0.00000  Uiso   1.00
C211   C     0.31125   0.45835   0.15670   0.00000  Uiso   1.00
C212   C     0.02208   0.54165   0.17661   0.00000  Uiso   1.00
C213   C     0.29059   0.50079   0.16210   0.00000  Uiso   1.00
C214   C     0.04274   0.49922   0.17122   0.00000  Uiso   1.00
C215   C     0.14782   0.35750   0.12878   0.00000  Uiso   1.00
C216   C     0.18551   0.64250   0.20455   0.00000  Uiso   1.00
C217   C     0.18611   0.35852   0.20410   0.00000  Uiso   1.00
C218   C     0.14723   0.64148   0.12923   0.00000  Uiso   1.00
N219   N     0.16667   0.61736   0.16667   0.00000  Uiso   1.00
N220   N     0.16667   0.38264   0.16667   0.00000  Uiso   1.00
N221   N     0.04047   0.41352   0.16475   0.00000  Uiso   1.00
H222   H     0.02978   0.38965   0.13877   0.00000  Uiso   1.00
C223   C     0.04700   0.39359   0.21320   0.00000  Uiso   1.00
H224   H     0.01741   0.38306   0.22839   0.00000  Uiso   1.00
H225   H     0.06285   0.41892   0.23866   0.00000  Uiso   1.00
H226   H     0.06648   0.36252   0.21053   0.00000  Uiso   1.00
N227   N     0.29286   0.58649   0.16854   0.00000  Uiso   1.00
H228   H     0.30356   0.61037   0.19450   0.00000  Uiso   1.00
C229   C     0.28631   0.60638   0.12008   0.00000  Uiso   1.00
H230   H     0.31589   0.61692   0.10487   0.00000  Uiso   1.00
H231   H     0.26682   0.63745   0.12274   0.00000  Uiso   1.00
H232   H     0.27046   0.58104   0.09465   0.00000  Uiso   1.00
N233   N     0.28924   0.41694   0.14262   0.00000  Uiso   1.00
H234   H     0.29853   0.38675   0.15972   0.00000  Uiso   1.00
C235   C     0.28093   0.41177   0.09014   0.00000  Uiso   1.00
H236   H     0.30979   0.40643   0.07110   0.00000  Uiso   1.00
H237   H     0.26541   0.44302   0.07494   0.00000  Uiso   1.00
H238   H     0.26046   0.38130   0.08295   0.00000  Uiso   1.00
N239   N     0.04409   0.58308   0.19065   0.00000  Uiso   1.00
H240   H     0.03482   0.61325   0.17351   0.00000  Uiso   1.00
C241   C     0.05240   0.58830   0.24313   0.00000  Uiso   1.00
H242   H     0.02356   0.59394   0.26213   0.00000  Uiso   1.00
H243   H     0.07308   0.61862   0.25025   0.00000  Uiso   1.00
H244   H     0.06771   0.55694   0.25843   0.00000  Uiso   1.00
N245   N     0.12999   0.38053   0.08678   0.00000  Uiso   1.00
O246   O     0.09331   0.39674   0.08784   0.00000  Uiso   1.00
O247   O     0.14767   0.37848   0.04493   0.00000  Uiso   1.00
N248   N     0.20335   0.61947   0.24655   0.00000  Uiso   1.00
O249   O     0.18567   0.62150   0.28840   0.00000  Uiso   1.00
O250   O     0.24006   0.60332   0.24549   0.00000  Uiso   1.00
N251   N     0.20883   0.38276   0.24249   0.00000  Uiso   1.00
O252   O     0.24710   0.39259   0.23691   0.00000  Uiso   1.00
O253   O     0.19481   0.38429   0.28649   0.00000  Uiso   1.00
N254   N     0.12451   0.61724   0.09083   0.00000  Uiso   1.00
O255   O     0.13854   0.61571   0.04684   0.00000  Uiso   1.00
O256   O     0.08624   0.60741   0.09640   0.00000  Uiso   1.00
O257   O     0.43988   0.53958   0.16666   0.00000  Uiso   1.00
O258   O     0.56012   0.46042   0.16667   0.00000  Uiso   1.00
O259   O     0.56012   0.53958   0.16667   0.00000  Uiso   1.00
O260   O     0.43988   0.46042   0.16666   0.00000  Uiso   1.00
C261   C     0.42084   0.49971   0.16888   0.00000  Uiso   1.00
C262   C     0.57916   0.50029   0.16445   0.00000  Uiso   1.00
O263   O     0.50000   0.53959   0.09613   0.00000  Uiso   1.00
O264   O     0.50000   0.46041   0.23720   0.00000  Uiso   1.00
O265   O     0.50000   0.53959   0.23720   0.00000  Uiso   1.00
O266   O     0.50000   0.46041   0.09613   0.00000  Uiso   1.00
C267   C     0.49992   0.49994   0.07362   0.00000  Uiso   1.00
C268   C     0.50008   0.50006   0.25972   0.00000  Uiso   1.00
Cu269  Cu    0.50000   0.54689   0.16667   0.00000  Uiso   1.00
Cu270  Cu    0.50000   0.45311   0.16667   0.00000  Uiso   1.00
C271   C     0.49998   0.49991   0.02187   0.00000  Uiso   1.00
C272   C     0.50002   0.50009   0.31146   0.00000  Uiso   1.00
C273   C     0.35368   0.45715   0.16421   0.00000  Uiso   1.00
C274   C     0.64632   0.54285   0.16910   0.00000  Uiso   1.00
C275   C     0.64458   0.45835   0.15670   0.00000  Uiso   1.00
C276   C     0.35541   0.54165   0.17661   0.00000  Uiso   1.00
C277   C     0.62393   0.50079   0.16210   0.00000  Uiso   1.00
C278   C     0.37607   0.49922   0.17122   0.00000  Uiso   1.00
C279   C     0.48116   0.35750   0.12878   0.00000  Uiso   1.00
C280   C     0.51885   0.64250   0.20455   0.00000  Uiso   1.00
C281   C     0.51944   0.35852   0.20410   0.00000  Uiso   1.00
C282   C     0.48056   0.64148   0.12923   0.00000  Uiso   1.00
N283   N     0.50000   0.61736   0.16667   0.00000  Uiso   1.00
N284   N     0.50000   0.38264   0.16667   0.00000  Uiso   1.00
N285   N     0.37380   0.41352   0.16475   0.00000  Uiso   1.00
H286   H     0.36311   0.38965   0.13877   0.00000  Uiso   1.00
C287   C     0.38033   0.39359   0.21320   0.00000  Uiso   1.00
H288   H     0.35075   0.38306   0.22839   0.00000  Uiso   1.00
H289   H     0.39618   0.41892   0.23866   0.00000  Uiso   1.00
H290   H     0.39981   0.36252   0.21053   0.00000  Uiso   1.00
N291   N     0.62619   0.58649   0.16854   0.00000  Uiso   1.00
H292   H     0.63690   0.61037   0.19450   0.00000  Uiso   1.00
C293   C     0.61965   0.60638   0.12008   0.00000  Uiso   1.00
H294   H     0.64922   0.61692   0.10487   0.00000  Uiso   1.00
H295   H     0.60016   0.63745   0.12274   0.00000  Uiso   1.00
H296   H     0.60380   0.58104   0.09465   0.00000  Uiso   1.00
N297   N     0.62258   0.41694   0.14262   0.00000  Uiso   1.00
H298   H     0.63187   0.38675   0.15972   0.00000  Uiso   1.00
C299   C     0.61426   0.41177   0.09014   0.00000  Uiso   1.00
H300   H     0.64312   0.40643   0.07110   0.00000  Uiso   1.00
H301   H     0.59874   0.44302   0.07494   0.00000  Uiso   1.00
H302   H     0.59379   0.38130   0.08295   0.00000  Uiso   1.00
N303   N     0.37742   0.58308   0.19065   0.00000  Uiso   1.00
H304   H     0.36815   0.61325   0.17351   0.00000  Uiso   1.00
C305   C     0.38573   0.58830   0.24313   0.00000  Uiso   1.00
H306   H     0.35689   0.59394   0.26213   0.00000  Uiso   1.00
H307   H     0.40641   0.61862   0.25025   0.00000  Uiso   1.00
H308   H     0.40104   0.55694   0.25843   0.00000  Uiso   1.00
N309   N     0.46333   0.38053   0.08678   0.00000  Uiso   1.00
O310   O     0.42665   0.39674   0.08784   0.00000  Uiso   1.00
O311   O     0.48100   0.37848   0.04493   0.00000  Uiso   1.00
N312   N     0.53669   0.61947   0.24655   0.00000  Uiso   1.00
O313   O     0.51901   0.62150   0.28840   0.00000  Uiso   1.00
O314   O     0.57339   0.60332   0.24549   0.00000  Uiso   1.00
N315   N     0.54217   0.38276   0.24249   0.00000  Uiso   1.00
O316   O     0.58044   0.39259   0.23691   0.00000  Uiso   1.00
O317   O     0.52815   0.38429   0.28649   0.00000  Uiso   1.00
N318   N     0.45785   0.61724   0.09083   0.00000  Uiso   1.00
O319   O     0.47188   0.61571   0.04684   0.00000  Uiso   1.00
O320   O     0.41957   0.60741   0.09640   0.00000  Uiso   1.00
O321   O     0.77321   0.53958   0.16666   0.00000  Uiso   1.00
O322   O     0.89345   0.46042   0.16667   0.00000  Uiso   1.00
O323   O     0.89345   0.53958   0.16667   0.00000  Uiso   1.00
O324   O     0.77321   0.46042   0.16666   0.00000  Uiso   1.00
C325   C     0.75417   0.49971   0.16888   0.00000  Uiso   1.00
C326   C     0.91250   0.50029   0.16445   0.00000  Uiso   1.00
O327   O     0.83333   0.53959   0.09613   0.00000  Uiso   1.00
O328   O     0.83333   0.46041   0.23720   0.00000  Uiso   1.00
O329   O     0.83333   0.53959   0.23720   0.00000  Uiso   1.00
O330   O     0.83333   0.46041   0.09613   0.00000  Uiso   1.00
C331   C     0.83325   0.49994   0.07362   0.00000  Uiso   1.00
C332   C     0.83341   0.50006   0.25972   0.00000  Uiso   1.00
Cu333  Cu    0.83333   0.54689   0.16667   0.00000  Uiso   1.00
Cu334  Cu    0.83333   0.45311   0.16667   0.00000  Uiso   1.00
C335   C     0.83331   0.49991   0.02187   0.00000  Uiso   1.00
C336   C     0.83336   0.50009   0.31146   0.00000  Uiso   1.00
C337   C     0.68701   0.45715   0.16421   0.00000  Uiso   1.00
C338   C     0.97965   0.54285   0.16910   0.00000  Uiso   1.00
C339   C     0.97792   0.45835   0.15670   0.00000  Uiso   1.00
C340   C     0.68875   0.54165   0.17661   0.00000  Uiso   1.00
C341   C     0.95726   0.50079   0.16210   0.00000  Uiso   1.00
C342   C     0.70940   0.49922   0.17122   0.00000  Uiso   1.00
C343   C     0.81449   0.35750   0.12878   0.00000  Uiso   1.00
C344   C     0.85218   0.64250   0.20455   0.00000  Uiso   1.00
C345   C     0.85277   0.35852   0.20410   0.00000  Uiso   1.00
C346   C     0.81390   0.64148   0.12923   0.00000  Uiso   1.00
N347   N     0.83333   0.61736   0.16667   0.00000  Uiso   1.00
N348   N     0.83333   0.38264   0.16667   0.00000  Uiso   1.00
N349   N     0.70714   0.41352   0.16475   0.00000  Uiso   1.00
H350   H     0.69645   0.38965   0.13877   0.00000  Uiso   1.00
C351   C     0.71367   0.39359   0.21320   0.00000  Uiso   1.00
H352   H     0.68408   0.38306   0.22839   0.00000  Uiso   1.00
H353   H     0.72951   0.41892   0.23866   0.00000  Uiso   1.00
H354   H     0.73315   0.36252   0.21053   0.00000  Uiso   1.00
N355   N     0.95953   0.58649   0.16854   0.00000  Uiso   1.00
H356   H     0.97023   0.61037   0.19450   0.00000  Uiso   1.00
C357   C     0.95298   0.60638   0.12008   0.00000  Uiso   1.00
H358   H     0.98256   0.61692   0.10487   0.00000  Uiso   1.00
H359   H     0.93349   0.63745   0.12274   0.00000  Uiso   1.00
H360   H     0.93713   0.58104   0.09465   0.00000  Uiso   1.00
N361   N     0.95591   0.41694   0.14262   0.00000  Uiso   1.00
H362   H     0.96520   0.38675   0.15972   0.00000  Uiso   1.00
C363   C     0.94760   0.41177   0.09014   0.00000  Uiso   1.00
H364   H     0.97645   0.40643   0.07110   0.00000  Uiso   1.00
H365   H     0.93207   0.44302   0.07494   0.00000  Uiso   1.00
H366   H     0.92712   0.38130   0.08295   0.00000  Uiso   1.00
N367   N     0.71076   0.58308   0.19065   0.00000  Uiso   1.00
H368   H     0.70148   0.61325   0.17351   0.00000  Uiso   1.00
C369   C     0.71907   0.58830   0.24313   0.00000  Uiso   1.00
H370   H     0.69023   0.59394   0.26213   0.00000  Uiso   1.00
H371   H     0.73975   0.61862   0.25025   0.00000  Uiso   1.00
H372   H     0.73438   0.55694   0.25843   0.00000  Uiso   1.00
N373   N     0.79666   0.38053   0.08678   0.00000  Uiso   1.00
O374   O     0.75998   0.39674   0.08784   0.00000  Uiso   1.00
O375   O     0.81434   0.37848   0.04493   0.00000  Uiso   1.00
N376   N     0.87002   0.61947   0.24655   0.00000  Uiso   1.00
O377   O     0.85234   0.62150   0.28840   0.00000  Uiso   1.00
O378   O     0.90672   0.60332   0.24549   0.00000  Uiso   1.00
N379   N     0.87550   0.38276   0.24249   0.00000  Uiso   1.00
O380   O     0.91377   0.39259   0.23691   0.00000  Uiso   1.00
O381   O     0.86148   0.38429   0.28649   0.00000  Uiso   1.00
N382   N     0.79118   0.61724   0.09083   0.00000  Uiso   1.00
O383   O     0.80521   0.61571   0.04684   0.00000  Uiso   1.00
O384   O     0.75291   0.60741   0.09640   0.00000  Uiso   1.00
O385   O     0.10655   0.87291   0.16666   0.00000  Uiso   1.00
O386   O     0.22679   0.79375   0.16667   0.00000  Uiso   1.00
O387   O     0.22679   0.87291   0.16667   0.00000  Uiso   1.00
O388   O     0.10655   0.79375   0.16666   0.00000  Uiso   1.00
C389   C     0.08750   0.83304   0.16888   0.00000  Uiso   1.00
C390   C     0.24583   0.83363   0.16445   0.00000  Uiso   1.00
O391   O     0.16667   0.87292   0.09613   0.00000  Uiso   1.00
O392   O     0.16667   0.79375   0.23720   0.00000  Uiso   1.00
O393   O     0.16667   0.87292   0.23720   0.00000  Uiso   1.00
O394   O     0.16667   0.79375   0.09613   0.00000  Uiso   1.00
C395   C     0.16659   0.83327   0.07362   0.00000  Uiso   1.00
C396   C     0.16675   0.83340   0.25972   0.00000  Uiso   1.00
Cu397  Cu    0.16667   0.88022   0.16667   0.00000  Uiso   1.00
Cu398  Cu    0.16667   0.78645   0.16667   0.00000  Uiso   1.00
C399   C     0.16664   0.83324   0.02187   0.00000  Uiso   1.00
C400   C     0.16669   0.83342   0.31146   0.00000  Uiso   1.00
C401   C     0.02035   0.79049   0.16421   0.00000  Uiso   1.00
C402   C     0.31298   0.87618   0.16910   0.00000  Uiso   1.00
C403   C     0.31125   0.79169   0.15670   0.00000  Uiso   1.00
C404   C     0.02208   0.87498   0.17661   0.00000  Uiso   1.00
C405   C     0.29059   0.83412   0.16210   0.00000  Uiso   1.00
C406   C     0.04274   0.83255   0.17122   0.00000  Uiso   1.00
C407   C     0.14782   0.69083   0.12878   0.00000  Uiso   1.00
C408   C     0.18551   0.97583   0.20455   0.00000  Uiso   1.00
C409   C     0.18611   0.69185   0.20410   0.00000  Uiso   1.00
C410   C     0.14723   0.97481   0.12923   0.00000  Uiso   1.00
N411   N     0.16667   0.95069   0.16667   0.00000  Uiso   1.00
N412   N     0.16667   0.71598   0.16667   0.00000  Uiso   1.00
N413   N     0.04047   0.74685   0.16475   0.00000  Uiso   1.00
H414   H     0.02978   0.72299   0.13877   0.00000  Uiso   1.00
C415   C     0.04700   0.72692   0.21320   0.00000  Uiso   1.00
H416   H     0.01741   0.71639   0.22839   0.00000  Uiso   1.00
H417   H     0.06285   0.75225   0.23866   0.00000  Uiso   1.00
H418   H     0.06648   0.69585   0.21053   0.00000  Uiso   1.00
N419   N     0.29286   0.91982   0.16854   0.00000  Uiso   1.00
H420   H     0.30356   0.94370   0.19450   0.00000  Uiso   1.00
C421   C     0.28631   0.93972   0.12008   0.00000  Uiso   1.00
H422   H     0.31589   0.95025   0.10487   0.00000  Uiso   1.00
H423   H     0.26682   0.97078   0.12274   0.00000  Uiso   1.00
H424   H     0.27046   0.91437   0.09465   0.00000  Uiso   1.00
N425   N     0.28924   0.75027   0.14262   0.00000  Uiso   1.00
H426   H     0.29853   0.72008   0.15972   0.00000  Uiso   1.00
C427   C     0.28093   0.74511   0.09014   0.00000  Uiso   1.00
H428   H     0.30979   0.73977   0.07110   0.00000  Uiso   1.00
H429   H     0.26541   0.77636   0.07494   0.00000  Uiso   1.00
H430   H     0.26046   0.71464   0.08295   0.00000  Uiso   1.00
N431   N     0.04409   0.91641   0.19065   0.00000  Uiso   1.00
H432   H     0.03482   0.94658   0.17351   0.00000  Uiso   1.00
C433   C     0.05240   0.92163   0.24313   0.00000  Uiso   1.00
H434   H     0.02356   0.92728   0.26213   0.00000  Uiso   1.00
H435   H     0.07308   0.95195   0.25025   0.00000  Uiso   1.00
H436   H     0.06771   0.89027   0.25843   0.00000  Uiso   1.00
N437   N     0.12999   0.71386   0.08678   0.00000  Uiso   1.00
O438   O     0.09331   0.73008   0.08784   0.00000  Uiso   1.00
O439   O     0.14767   0.71181   0.04493   0.00000  Uiso   1.00
N440   N     0.20335   0.95280   0.24655   0.00000  Uiso   1.00
O441   O     0.18567   0.95484   0.28840   0.00000  Uiso   1.00
O442   O     0.24006   0.93665   0.24549   0.00000  Uiso   1.00
N443   N     0.20883   0.71609   0.24249   0.00000  Uiso   1.00
O444   O     0.24710   0.72592   0.23691   0.00000  Uiso   1.00
O445   O     0.19481   0.71762   0.28649   0.00000  Uiso   1.00
N446   N     0.12451   0.95057   0.09083   0.00000  Uiso   1.00
O447   O     0.13854   0.94904   0.04684   0.00000  Uiso   1.00
O448   O     0.08624   0.94074   0.09640   0.00000  Uiso   1.00
O449   O     0.43988   0.87291   0.16666   0.00000  Uiso   1.00
O450   O     0.56012   0.79375   0.16667   0.00000  Uiso   1.00
O451   O     0.56012   0.87291   0.16667   0.00000  Uiso   1.00
O452   O     0.43988   0.79375   0.16666   0.00000  Uiso   1.00
C453   C     0.42084   0.83304   0.16888   0.00000  Uiso   1.00
C454   C     0.57916   0.83363   0.16445   0.00000  Uiso   1.00
O455   O     0.50000   0.87292   0.09613   0.00000  Uiso   1.00
O456   O     0.50000   0.79375   0.23720   0.00000  Uiso   1.00
O457   O     0.50000   0.87292   0.23720   0.00000  Uiso   1.00
O458   O     0.50000   0.79375   0.09613   0.00000  Uiso   1.00
C459   C     0.49992   0.83327   0.07362   0.00000  Uiso   1.00
C460   C     0.50008   0.83340   0.25972   0.00000  Uiso   1.00
Cu461  Cu    0.50000   0.88022   0.16667   0.00000  Uiso   1.00
Cu462  Cu    0.50000   0.78645   0.16667   0.00000  Uiso   1.00
C463   C     0.49998   0.83324   0.02187   0.00000  Uiso   1.00
C464   C     0.50002   0.83342   0.31146   0.00000  Uiso   1.00
C465   C     0.35368   0.79049   0.16421   0.00000  Uiso   1.00
C466   C     0.64632   0.87618   0.16910   0.00000  Uiso   1.00
C467   C     0.64458   0.79169   0.15670   0.00000  Uiso   1.00
C468   C     0.35541   0.87498   0.17661   0.00000  Uiso   1.00
C469   C     0.62393   0.83412   0.16210   0.00000  Uiso   1.00
C470   C     0.37607   0.83255   0.17122   0.00000  Uiso   1.00
C471   C     0.48116   0.69083   0.12878   0.00000  Uiso   1.00
C472   C     0.51885   0.97583   0.20455   0.00000  Uiso   1.00
C473   C     0.51944   0.69185   0.20410   0.00000  Uiso   1.00
C474   C     0.48056   0.97481   0.12923   0.00000  Uiso   1.00
N475   N     0.50000   0.95069   0.16667   0.00000  Uiso   1.00
N476   N     0.50000   0.71598   0.16667   0.00000  Uiso   1.00
N477   N     0.37380   0.74685   0.16475   0.00000  Uiso   1.00
H478   H     0.36311   0.72299   0.13877   0.00000  Uiso   1.00
C479   C     0.38033   0.72692   0.21320   0.00000  Uiso   1.00
H480   H     0.35075   0.71639   0.22839   0.00000  Uiso   1.00
H481   H     0.39618   0.75225   0.23866   0.00000  Uiso   1.00
H482   H     0.39981   0.69585   0.21053   0.00000  Uiso   1.00
N483   N     0.62619   0.91982   0.16854   0.00000  Uiso   1.00
H484   H     0.63690   0.94370   0.19450   0.00000  Uiso   1.00
C485   C     0.61965   0.93972   0.12008   0.00000  Uiso   1.00
H486   H     0.64922   0.95025   0.10487   0.00000  Uiso   1.00
H487   H     0.60016   0.97078   0.12274   0.00000  Uiso   1.00
H488   H     0.60380   0.91437   0.09465   0.00000  Uiso   1.00
N489   N     0.62258   0.75027   0.14262   0.00000  Uiso   1.00
H490   H     0.63187   0.72008   0.15972   0.00000  Uiso   1.00
C491   C     0.61426   0.74511   0.09014   0.00000  Uiso   1.00
H492   H     0.64312   0.73977   0.07110   0.00000  Uiso   1.00
H493   H     0.59874   0.77636   0.07494   0.00000  Uiso   1.00
H494   H     0.59379   0.71464   0.08295   0.00000  Uiso   1.00
N495   N     0.37742   0.91641   0.19065   0.00000  Uiso   1.00
H496   H     0.36815   0.94658   0.17351   0.00000  Uiso   1.00
C497   C     0.38573   0.92163   0.24313   0.00000  Uiso   1.00
H498   H     0.35689   0.92728   0.26213   0.00000  Uiso   1.00
H499   H     0.40641   0.95195   0.25025   0.00000  Uiso   1.00
H500   H     0.40104   0.89027   0.25843   0.00000  Uiso   1.00
N501   N     0.46333   0.71386   0.08678   0.00000  Uiso   1.00
O502   O     0.42665   0.73008   0.08784   0.00000  Uiso   1.00
O503   O     0.48100   0.71181   0.04493   0.00000  Uiso   1.00
N504   N     0.53669   0.95280   0.24655   0.00000  Uiso   1.00
O505   O     0.51901   0.95484   0.28840   0.00000  Uiso   1.00
O506   O     0.57339   0.93665   0.24549   0.00000  Uiso   1.00
N507   N     0.54217   0.71609   0.24249   0.00000  Uiso   1.00
O508   O     0.58044   0.72592   0.23691   0.00000  Uiso   1.00
O509   O     0.52815   0.71762   0.28649   0.00000  Uiso   1.00
N510   N     0.45785   0.95057   0.09083   0.00000  Uiso   1.00
O511   O     0.47188   0.94904   0.04684   0.00000  Uiso   1.00
O512   O     0.41957   0.94074   0.09640   0.00000  Uiso   1.00
O513   O     0.77321   0.87291   0.16666   0.00000  Uiso   1.00
O514   O     0.89345   0.79375   0.16667   0.00000  Uiso   1.00
O515   O     0.89345   0.87291   0.16667   0.00000  Uiso   1.00
O516   O     0.77321   0.79375   0.16666   0.00000  Uiso   1.00
C517   C     0.75417   0.83304   0.16888   0.00000  Uiso   1.00
C518   C     0.91250   0.83363   0.16445   0.00000  Uiso   1.00
O519   O     0.83333   0.87292   0.09613   0.00000  Uiso   1.00
O520   O     0.83333   0.79375   0.23720   0.00000  Uiso   1.00
O521   O     0.83333   0.87292   0.23720   0.00000  Uiso   1.00
O522   O     0.83333   0.79375   0.09613   0.00000  Uiso   1.00
C523   C     0.83325   0.83327   0.07362   0.00000  Uiso   1.00
C524   C     0.83341   0.83340   0.25972   0.00000  Uiso   1.00
Cu525  Cu    0.83333   0.88022   0.16667   0.00000  Uiso   1.00
Cu526  Cu    0.83333   0.78645   0.16667   0.00000  Uiso   1.00
C527   C     0.83331   0.83324   0.02187   0.00000  Uiso   1.00
C528   C     0.83336   0.83342   0.31146   0.00000  Uiso   1.00
C529   C     0.68701   0.79049   0.16421   0.00000  Uiso   1.00
C530   C     0.97965   0.87618   0.16910   0.00000  Uiso   1.00
C531   C     0.97792   0.79169   0.15670   0.00000  Uiso   1.00
C532   C     0.68875   0.87498   0.17661   0.00000  Uiso   1.00
C533   C     0.95726   0.83412   0.16210   0.00000  Uiso   1.00
C534   C     0.70940   0.83255   0.17122   0.00000  Uiso   1.00
C535   C     0.81449   0.69083   0.12878   0.00000  Uiso   1.00
C536   C     0.85218   0.97583   0.20455   0.00000  Uiso   1.00
C537   C     0.85277   0.69185   0.20410   0.00000  Uiso   1.00
C538   C     0.81390   0.97481   0.12923   0.00000  Uiso   1.00
N539   N     0.83333   0.95069   0.16667   0.00000  Uiso   1.00
N540   N     0.83333   0.71598   0.16667   0.00000  Uiso   1.00
N541   N     0.70714   0.74685   0.16475   0.00000  Uiso   1.00
H542   H     0.69645   0.72299   0.13877   0.00000  Uiso   1.00
C543   C     0.71367   0.72692   0.21320   0.00000  Uiso   1.00
H544   H     0.68408   0.71639   0.22839   0.00000  Uiso   1.00
H545   H     0.72951   0.75225   0.23866   0.00000  Uiso   1.00
H546   H     0.73315   0.69585   0.21053   0.00000  Uiso   1.00
N547   N     0.95953   0.91982   0.16854   0.00000  Uiso   1.00
H548   H     0.97023   0.94370   0.19450   0.00000  Uiso   1.00
C549   C     0.95298   0.93972   0.12008   0.00000  Uiso   1.00
H550   H     0.98256   0.95025   0.10487   0.00000  Uiso   1.00
H551   H     0.93349   0.97078   0.12274   0.00000  Uiso   1.00
H552   H     0.93713   0.91437   0.09465   0.00000  Uiso   1.00
N553   N     0.95591   0.75027   0.14262   0.00000  Uiso   1.00
H554   H     0.96520   0.72008   0.15972   0.00000  Uiso   1.00
C555   C     0.94760   0.74511   0.09014   0.00000  Uiso   1.00
H556   H     0.97645   0.73977   0.07110   0.00000  Uiso   1.00
H557   H     0.93207   0.77636   0.07494   0.00000  Uiso   1.00
H558   H     0.92712   0.71464   0.08295   0.00000  Uiso   1.00
N559   N     0.71076   0.91641   0.19065   0.00000  Uiso   1.00
H560   H     0.70148   0.94658   0.17351   0.00000  Uiso   1.00
C561   C     0.71907   0.92163   0.24313   0.00000  Uiso   1.00
H562   H     0.69023   0.92728   0.26213   0.00000  Uiso   1.00
H563   H     0.73975   0.95195   0.25025   0.00000  Uiso   1.00
H564   H     0.73438   0.89027   0.25843   0.00000  Uiso   1.00
N565   N     0.79666   0.71386   0.08678   0.00000  Uiso   1.00
O566   O     0.75998   0.73008   0.08784   0.00000  Uiso   1.00
O567   O     0.81434   0.71181   0.04493   0.00000  Uiso   1.00
N568   N     0.87002   0.95280   0.24655   0.00000  Uiso   1.00
O569   O     0.85234   0.95484   0.28840   0.00000  Uiso   1.00
O570   O     0.90672   0.93665   0.24549   0.00000  Uiso   1.00
N571   N     0.87550   0.71609   0.24249   0.00000  Uiso   1.00
O572   O     0.91377   0.72592   0.23691   0.00000  Uiso   1.00
O573   O     0.86148   0.71762   0.28649   0.00000  Uiso   1.00
N574   N     0.79118   0.95057   0.09083   0.00000  Uiso   1.00
O575   O     0.80521   0.94904   0.04684   0.00000  Uiso   1.00
O576   O     0.75291   0.94074   0.09640   0.00000  Uiso   1.00
O577   O     0.10655   0.20625   0.50000   0.00000  Uiso   1.00
O578   O     0.22679   0.12709   0.50000   0.00000  Uiso   1.00
O579   O     0.22679   0.20625   0.50000   0.00000  Uiso   1.00
O580   O     0.10655   0.12709   0.50000   0.00000  Uiso   1.00
C581   C     0.08750   0.16637   0.50221   0.00000  Uiso   1.00
C582   C     0.24583   0.16696   0.49778   0.00000  Uiso   1.00
O583   O     0.16667   0.20625   0.42946   0.00000  Uiso   1.00
O584   O     0.16667   0.12708   0.57054   0.00000  Uiso   1.00
O585   O     0.16667   0.20625   0.57054   0.00000  Uiso   1.00
O586   O     0.16667   0.12708   0.42946   0.00000  Uiso   1.00
C587   C     0.16659   0.16660   0.40695   0.00000  Uiso   1.00
C588   C     0.16675   0.16673   0.59305   0.00000  Uiso   1.00
Cu589  Cu    0.16667   0.21355   0.50000   0.00000  Uiso   1.00
Cu590  Cu    0.16667   0.11978   0.50000   0.00000  Uiso   1.00
C591   C     0.16664   0.16658   0.35521   0.00000  Uiso   1.00
C592   C     0.16669   0.16675   0.64479   0.00000  Uiso   1.00
C593   C     0.02035   0.12382   0.49754   0.00000  Uiso   1.00
C594   C     0.31298   0.20952   0.50244   0.00000  Uiso   1.00
C595   C     0.31125   0.12502   0.49004   0.00000  Uiso   1.00
C596   C     0.02208   0.20832   0.50994   0.00000  Uiso   1.00
C597   C     0.29059   0.16745   0.49543   0.00000  Uiso   1.00
C598   C     0.04274   0.16588   0.50455   0.00000  Uiso   1.00
C599   C     0.14782   0.02417   0.46211   0.00000  Uiso   1.00
C600   C     0.18551   0.30917   0.53788   0.00000  Uiso   1.00
C601   C     0.18611   0.02519   0.53743   0.00000  Uiso   1.00
C602   C     0.14723   0.30815   0.46257   0.00000  Uiso   1.00
N603   N     0.16667   0.28402   0.50000   0.00000  Uiso   1.00
N604   N     0.16667   0.04931   0.50000   0.00000  Uiso   1.00
N605   N     0.04047   0.08018   0.49808   0.00000  Uiso   1.00
H606   H     0.02978   0.05632   0.47210   0.00000  Uiso   1.00
C607   C     0.04700   0.06026   0.54653   0.00000  Uiso   1.00
H608   H     0.01741   0.04972   0.56172   0.00000  Uiso   1.00
H609   H     0.06285   0.08558   0.57199   0.00000  Uiso   1.00
H610   H     0.06648   0.02919   0.54386   0.00000  Uiso   1.00
N611   N     0.29286   0.25316   0.50188   0.00000  Uiso   1.00
H612   H     0.30356   0.27704   0.52783   0.00000  Uiso   1.00
C613   C     0.28631   0.27305   0.45341   0.00000  Uiso   1.00
H614   H     0.31589   0.28358   0.43821   0.00000  Uiso   1.00
H615   H     0.26682   0.30412   0.45607   0.00000  Uiso   1.00
H616   H     0.27046   0.24771   0.42798   0.00000  Uiso   1.00
N617   N     0.28924   0.08360   0.47596   0.00000  Uiso   1.00
H618   H     0.29853   0.05342   0.49305   0.00000  Uiso   1.00
C619   C     0.28093   0.07844   0.42347   0.00000  Uiso   1.00
H620   H     0.30979   0.07310   0.40443   0.00000  Uiso   1.00
H621   H     0.26541   0.10969   0.40828   0.00000  Uiso   1.00
H622   H     0.26046   0.04797   0.41629   0.00000  Uiso   1.00
N623   N     0.04409   0.24974   0.52398   0.00000  Uiso   1.00
H624   H     0.03482   0.27991   0.50685   0.00000  Uiso   1.00
C625   C     0.05240   0.25496   0.57646   0.00000  Uiso   1.00
H626   H     0.02356   0.26061   0.59546   0.00000  Uiso   1.00
H627   H     0.07308   0.28528   0.58358   0.00000  Uiso   1.00
H628   H     0.06771   0.22360   0.59176   0.00000  Uiso   1.00
N629   N     0.12999   0.04719   0.42011   0.00000  Uiso   1.00
O630   O     0.09331   0.06341   0.42117   0.00000  Uiso   1.00
O631   O     0.14767   0.04514   0.37826   0.00000  Uiso   1.00
N632   N     0.20335   0.28614   0.57988   0.00000  Uiso   1.00
O633   O     0.18567   0.28817   0.62173   0.00000  Uiso   1.00
O634   O     0.24006   0.26998   0.57882   0.00000  Uiso   1.00
N635   N     0.20883   0.04942   0.57582   0.00000  Uiso   1.00
O636   O     0.24710   0.05926   0.57024   0.00000  Uiso   1.00
O637   O     0.19481   0.05095   0.61982   0.00000  Uiso   1.00
N638   N     0.12451   0.28391   0.42417   0.00000  Uiso   1.00
O639   O     0.13854   0.28238   0.38017   0.00000  Uiso   1.00
O640   O     0.08624   0.27407   0.42973   0.00000  Uiso   1.00
O641   O     0.43988   0.20625   0.50000   0.00000  Uiso   1.00
O642   O     0.56012   0.12709   0.50000   0.00000  Uiso   1.00
O643   O     0.56012   0.20625   0.50000   0.00000  Uiso   1.00
O644   O     0.43988   0.12709   0.50000   0.00000  Uiso   1.00
C645   C     0.42084   0.16637   0.50221   0.00000  Uiso   1.00
C646   C     0.57916   0.16696   0.49778   0.00000  Uiso   1.00
O647   O     0.50000   0.20625   0.42946   0.00000  Uiso   1.00
O648   O     0.50000   0.12708   0.57054   0.00000  Uiso   1.00
O649   O     0.50000   0.20625   0.57054   0.00000  Uiso   1.00
O650   O     0.50000   0.12708   0.42946   0.00000  Uiso   1.00
C651   C     0.49992   0.16660   0.40695   0.00000  Uiso   1.00
C652   C     0.50008   0.16673   0.59305   0.00000  Uiso   1.00
Cu653  Cu    0.50000   0.21355   0.50000   0.00000  Uiso   1.00
Cu654  Cu    0.50000   0.11978   0.50000   0.00000  Uiso   1.00
C655   C     0.49998   0.16658   0.35521   0.00000  Uiso   1.00
C656   C     0.50002   0.16675   0.64479   0.00000  Uiso   1.00
C657   C     0.35368   0.12382   0.49754   0.00000  Uiso   1.00
C658   C     0.64632   0.20952   0.50244   0.00000  Uiso   1.00
C659   C     0.64458   0.12502   0.49004   0.00000  Uiso   1.00
C660   C     0.35541   0.20832   0.50994   0.00000  Uiso   1.00
C661   C     0.62393   0.16745   0.49543   0.00000  Uiso   1.00
C662   C     0.37607   0.16588   0.50455   0.00000  Uiso   1.00
C663   C     0.48116   0.02417   0.46211   0.00000  Uiso   1.00
C664   C     0.51885   0.30917   0.53788   0.00000  Uiso   1.00
C665   C     0.51944   0.02519   0.53743   0.00000  Uiso   1.00
C666   C     0.48056   0.30815   0.46257   0.00000  Uiso   1.00
N667   N     0.50000   0.28402   0.50000   0.00000  Uiso   1.00
N668   N     0.50000   0.04931   0.50000   0.00000  Uiso   1.00
N669   N     0.37380   0.08018   0.49808   0.00000  Uiso   1.00
H670   H     0.36311   0.05632   0.47210   0.00000  Uiso   1.00
C671   C     0.38033   0.06026   0.54653   0.00000  Uiso   1.00
H672   H     0.35075   0.04972   0.56172   0.00000  Uiso   1.00
H673   H     0.39618   0.08558   0.57199   0.00000  Uiso   1.00
H674   H     0.39981   0.02919   0.54386   0.00000  Uiso   1.00
N675   N     0.62619   0.25316   0.50188   0.00000  Uiso   1.00
H676   H     0.63690   0.27704   0.52783   0.00000  Uiso   1.00
C677   C     0.61965   0.27305   0.45341   0.00000  Uiso   1.00
H678   H     0.64922   0.28358   0.43821   0.00000  Uiso   1.00
H679   H     0.60016   0.30412   0.45607   0.00000  Uiso   1.00
H680   H     0.60380   0.24771   0.42798   0.00000  Uiso   1.00
N681   N     0.62258   0.08360   0.47596   0.00000  Uiso   1.00
H682   H     0.63187   0.05342   0.49305   0.00000  Uiso   1.00
C683   C     0.61426   0.07844   0.42347   0.00000  Uiso   1.00
H684   H     0.64312   0.07310   0.40443   0.00000  Uiso   1.00
H685   H     0.59874   0.10969   0.40828   0.00000  Uiso   1.00
H686   H     0.59379   0.04797   0.41629   0.00000  Uiso   1.00
N687   N     0.37742   0.24974   0.52398   0.00000  Uiso   1.00
H688   H     0.36815   0.27991   0.50685   0.00000  Uiso   1.00
C689   C     0.38573   0.25496   0.57646   0.00000  Uiso   1.00
H690   H     0.35689   0.26061   0.59546   0.00000  Uiso   1.00
H691   H     0.40641   0.28528   0.58358   0.00000  Uiso   1.00
H692   H     0.40104   0.22360   0.59176   0.00000  Uiso   1.00
N693   N     0.46333   0.04719   0.42011   0.00000  Uiso   1.00
O694   O     0.42665   0.06341   0.42117   0.00000  Uiso   1.00
O695   O     0.48100   0.04514   0.37826   0.00000  Uiso   1.00
N696   N     0.53669   0.28614   0.57988   0.00000  Uiso   1.00
O697   O     0.51901   0.28817   0.62173   0.00000  Uiso   1.00
O698   O     0.57339   0.26998   0.57882   0.00000  Uiso   1.00
N699   N     0.54217   0.04942   0.57582   0.00000  Uiso   1.00
O700   O     0.58044   0.05926   0.57024   0.00000  Uiso   1.00
O701   O     0.52815   0.05095   0.61982   0.00000  Uiso   1.00
N702   N     0.45785   0.28391   0.42417   0.00000  Uiso   1.00
O703   O     0.47188   0.28238   0.38017   0.00000  Uiso   1.00
O704   O     0.41957   0.27407   0.42973   0.00000  Uiso   1.00
O705   O     0.77321   0.20625   0.50000   0.00000  Uiso   1.00
O706   O     0.89345   0.12709   0.50000   0.00000  Uiso   1.00
O707   O     0.89345   0.20625   0.50000   0.00000  Uiso   1.00
O708   O     0.77321   0.12709   0.50000   0.00000  Uiso   1.00
C709   C     0.75417   0.16637   0.50221   0.00000  Uiso   1.00
C710   C     0.91250   0.16696   0.49778   0.00000  Uiso   1.00
O711   O     0.83333   0.20625   0.42946   0.00000  Uiso   1.00
O712   O     0.83333   0.12708   0.57054   0.00000  Uiso   1.00
O713   O     0.83333   0.20625   0.57054   0.00000  Uiso   1.00
O714   O     0.83333   0.12708   0.42946   0.00000  Uiso   1.00
C715   C     0.83325   0.16660   0.40695   0.00000  Uiso   1.00
C716   C     0.83341   0.16673   0.59305   0.00000  Uiso   1.00
Cu717  Cu    0.83333   0.21355   0.50000   0.00000  Uiso   1.00
Cu718  Cu    0.83333   0.11978   0.50000   0.00000  Uiso   1.00
C719   C     0.83331   0.16658   0.35521   0.00000  Uiso   1.00
C720   C     0.83336   0.16675   0.64479   0.00000  Uiso   1.00
C721   C     0.68701   0.12382   0.49754   0.00000  Uiso   1.00
C722   C     0.97965   0.20952   0.50244   0.00000  Uiso   1.00
C723   C     0.97792   0.12502   0.49004   0.00000  Uiso   1.00
C724   C     0.68875   0.20832   0.50994   0.00000  Uiso   1.00
C725   C     0.95726   0.16745   0.49543   0.00000  Uiso   1.00
C726   C     0.70940   0.16588   0.50455   0.00000  Uiso   1.00
C727   C     0.81449   0.02417   0.46211   0.00000  Uiso   1.00
C728   C     0.85218   0.30917   0.53788   0.00000  Uiso   1.00
C729   C     0.85277   0.02519   0.53743   0.00000  Uiso   1.00
C730   C     0.81390   0.30815   0.46257   0.00000  Uiso   1.00
N731   N     0.83333   0.28402   0.50000   0.00000  Uiso   1.00
N732   N     0.83333   0.04931   0.50000   0.00000  Uiso   1.00
N733   N     0.70714   0.08018   0.49808   0.00000  Uiso   1.00
H734   H     0.69645   0.05632   0.47210   0.00000  Uiso   1.00
C735   C     0.71367   0.06026   0.54653   0.00000  Uiso   1.00
H736   H     0.68408   0.04972   0.56172   0.00000  Uiso   1.00
H737   H     0.72951   0.08558   0.57199   0.00000  Uiso   1.00
H738   H     0.73315   0.02919   0.54386   0.00000  Uiso   1.00
N739   N     0.95953   0.25316   0.50188   0.00000  Uiso   1.00
H740   H     0.97023   0.27704   0.52783   0.00000  Uiso   1.00
C741   C     0.95298   0.27305   0.45341   0.00000  Uiso   1.00
H742   H     0.98256   0.28358   0.43821   0.00000  Uiso   1.00
H743   H     0.93349   0.30412   0.45607   0.00000  Uiso   1.00
H744   H     0.93713   0.24771   0.42798   0.00000  Uiso   1.00
N745   N     0.95591   0.08360   0.47596   0.00000  Uiso   1.00
H746   H     0.96520   0.05342   0.49305   0.00000  Uiso   1.00
C747   C     0.94760   0.07844   0.42347   0.00000  Uiso   1.00
H748   H     0.97645   0.07310   0.40443   0.00000  Uiso   1.00
H749   H     0.93207   0.10969   0.40828   0.00000  Uiso   1.00
H750   H     0.92712   0.04797   0.41629   0.00000  Uiso   1.00
N751   N     0.71076   0.24974   0.52398   0.00000  Uiso   1.00
H752   H     0.70148   0.27991   0.50685   0.00000  Uiso   1.00
C753   C     0.71907   0.25496   0.57646   0.00000  Uiso   1.00
H754   H     0.69023   0.26061   0.59546   0.00000  Uiso   1.00
H755   H     0.73975   0.28528   0.58358   0.00000  Uiso   1.00
H756   H     0.73438   0.22360   0.59176   0.00000  Uiso   1.00
N757   N     0.79666   0.04719   0.42011   0.00000  Uiso   1.00
O758   O     0.75998   0.06341   0.42117   0.00000  Uiso   1.00
O759   O     0.81434   0.04514   0.37826   0.00000  Uiso   1.00
N760   N     0.87002   0.28614   0.57988   0.00000  Uiso   1.00
O761   O     0.85234   0.28817   0.62173   0.00000  Uiso   1.00
O762   O     0.90672   0.26998   0.57882   0.00000  Uiso   1.00
N763   N     0.87550   0.04942   0.57582   0.00000  Uiso   1.00
O764   O     0.91377   0.05926   0.57024   0.00000  Uiso   1.00
O765   O     0.86148   0.05095   0.61982   0.00000  Uiso   1.00
N766   N     0.79118   0.28391   0.42417   0.00000  Uiso   1.00
O767   O     0.80521   0.28238   0.38017   0.00000  Uiso   1.00
O768   O     0.75291   0.27407   0.42973   0.00000  Uiso   1.00
O769   O     0.10655   0.53958   0.50000   0.00000  Uiso   1.00
O770   O     0.22679   0.46042   0.50000   0.00000  Uiso   1.00
O771   O     0.22679   0.53958   0.50000   0.00000  Uiso   1.00
O772   O     0.10655   0.46042   0.50000   0.00000  Uiso   1.00
C773   C     0.08750   0.49971   0.50221   0.00000  Uiso   1.00
C774   C     0.24583   0.50029   0.49778   0.00000  Uiso   1.00
O775   O     0.16667   0.53959   0.42946   0.00000  Uiso   1.00
O776   O     0.16667   0.46041   0.57054   0.00000  Uiso   1.00
O777   O     0.16667   0.53959   0.57054   0.00000  Uiso   1.00
O778   O     0.16667   0.46041   0.42946   0.00000  Uiso   1.00
C779   C     0.16659   0.49994   0.40695   0.00000  Uiso   1.00
C780   C     0.16675   0.50006   0.59305   0.00000  Uiso   1.00
Cu781  Cu    0.16667   0.54689   0.50000   0.00000  Uiso   1.00
Cu782  Cu    0.16667   0.45311   0.50000   0.00000  Uiso   1.00
C783   C     0.16664   0.49991   0.35521   0.00000  Uiso   1.00
C784   C     0.16669   0.50009   0.64479   0.00000  Uiso   1.00
C785   C     0.02035   0.45715   0.49754   0.00000  Uiso   1.00
C786   C     0.31298   0.54285   0.50244   0.00000  Uiso   1.00
C787   C     0.31125   0.45835   0.49004   0.00000  Uiso   1.00
C788   C     0.02208   0.54165   0.50994   0.00000  Uiso   1.00
C789   C     0.29059   0.50079   0.49543   0.00000  Uiso   1.00
C790   C     0.04274   0.49922   0.50455   0.00000  Uiso   1.00
C791   C     0.14782   0.35750   0.46211   0.00000  Uiso   1.00
C792   C     0.18551   0.64250   0.53788   0.00000  Uiso   1.00
C793   C     0.18611   0.35852   0.53743   0.00000  Uiso   1.00
C794   C     0.14723   0.64148   0.46257   0.00000  Uiso   1.00
N795   N     0.16667   0.61736   0.50000   0.00000  Uiso   1.00
N796   N     0.16667   0.38264   0.50000   0.00000  Uiso   1.00
N797   N     0.04047   0.41352   0.49808   0.00000  Uiso   1.00
H798   H     0.02978   0.38965   0.47210   0.00000  Uiso   1.00
C799   C     0.04700   0.39359   0.54653   0.00000  Uiso   1.00
H800   H     0.01741   0.38306   0.56172   0.00000  Uiso   1.00
H801   H     0.06285   0.41892   0.57199   0.00000  Uiso   1.00
H802   H     0.06648   0.36252   0.54386   0.00000  Uiso   1.00
N803   N     0.29286   0.58649   0.50188   0.00000  Uiso   1.00
H804   H     0.30356   0.61037   0.52783   0.00000  Uiso   1.00
C805   C     0.28631   0.60638   0.45341   0.00000  Uiso   1.00
H806   H     0.31589   0.61692   0.43821   0.00000  Uiso   1.00
H807   H     0.26682   0.63745   0.45607   0.00000  Uiso   1.00
H808   H     0.27046   0.58104   0.42798   0.00000  Uiso   1.00
N809   N     0.28924   0.41694   0.47596   0.00000  Uiso   1.00
H810   H     0.29853   0.38675   0.49305   0.00000  Uiso   1.00
C811   C     0.28093   0.41177   0.42347   0.00000  Uiso   1.00
H812   H     0.30979   0.40643   0.40443   0.00000  Uiso   1.00
H813   H     0.26541   0.44302   0.40828   0.00000  Uiso   1.00
H814   H     0.26046   0.38130   0.41629   0.00000  Uiso   1.00
N815   N     0.04409   0.58308   0.52398   0.00000  Uiso   1.00
H816   H     0.03482   0.61325   0.50685   0.00000  Uiso   1.00
C817   C     0.05240   0.58830   0.57646   0.00000  Uiso   1.00
H818   H     0.02356   0.59394   0.59546   0.00000  Uiso   1.00
H819   H     0.07308   0.61862   0.58358   0.00000  Uiso   1.00
H820   H     0.06771   0.55694   0.59176   0.00000  Uiso   1.00
N821   N     0.12999   0.38053   0.42011   0.00000  Uiso   1.00
O822   O     0.09331   0.39674   0.42117   0.00000  Uiso   1.00
O823   O     0.14767   0.37848   0.37826   0.00000  Uiso   1.00
N824   N     0.20335   0.61947   0.57988   0.00000  Uiso   1.00
O825   O     0.18567   0.62150   0.62173   0.00000  Uiso   1.00
O826   O     0.24006   0.60332   0.57882   0.00000  Uiso   1.00
N827   N     0.20883   0.38276   0.57582   0.00000  Uiso   1.00
O828   O     0.24710   0.39259   0.57024   0.00000  Uiso   1.00
O829   O     0.19481   0.38429   0.61982   0.00000  Uiso   1.00
N830   N     0.12451   0.61724   0.42417   0.00000  Uiso   1.00
O831   O     0.13854   0.61571   0.38017   0.00000  Uiso   1.00
O832   O     0.08624   0.60741   0.42973   0.00000  Uiso   1.00
O833   O     0.43988   0.53958   0.50000   0.00000  Uiso   1.00
O834   O     0.56012   0.46042   0.50000   0.00000  Uiso   1.00
O835   O     0.56012   0.53958   0.50000   0.00000  Uiso   1.00
O836   O     0.43988   0.46042   0.50000   0.00000  Uiso   1.00
C837   C     0.42084   0.49971   0.50221   0.00000  Uiso   1.00
C838   C     0.57916   0.50029   0.49778   0.00000  Uiso   1.00
O839   O     0.50000   0.53959   0.42946   0.00000  Uiso   1.00
O840   O     0.50000   0.46041   0.57054   0.00000  Uiso   1.00
O841   O     0.50000   0.53959   0.57054   0.00000  Uiso   1.00
O842   O     0.50000   0.46041   0.42946   0.00000  Uiso   1.00
C843   C     0.49992   0.49994   0.40695   0.00000  Uiso   1.00
C844   C     0.50008   0.50006   0.59305   0.00000  Uiso   1.00
Cu845  Cu    0.50000   0.54689   0.50000   0.00000  Uiso   1.00
Cu846  Cu    0.50000   0.45311   0.50000   0.00000  Uiso   1.00
C847   C     0.49998   0.49991   0.35521   0.00000  Uiso   1.00
C848   C     0.50002   0.50009   0.64479   0.00000  Uiso   1.00
C849   C     0.35368   0.45715   0.49754   0.00000  Uiso   1.00
C850   C     0.64632   0.54285   0.50244   0.00000  Uiso   1.00
C851   C     0.64458   0.45835   0.49004   0.00000  Uiso   1.00
C852   C     0.35541   0.54165   0.50994   0.00000  Uiso   1.00
C853   C     0.62393   0.50079   0.49543   0.00000  Uiso   1.00
C854   C     0.37607   0.49922   0.50455   0.00000  Uiso   1.00
C855   C     0.48116   0.35750   0.46211   0.00000  Uiso   1.00
C856   C     0.51885   0.64250   0.53788   0.00000  Uiso   1.00
C857   C     0.51944   0.35852   0.53743   0.00000  Uiso   1.00
C858   C     0.48056   0.64148   0.46257   0.00000  Uiso   1.00
N859   N     0.50000   0.61736   0.50000   0.00000  Uiso   1.00
N860   N     0.50000   0.38264   0.50000   0.00000  Uiso   1.00
N861   N     0.37380   0.41352   0.49808   0.00000  Uiso   1.00
H862   H     0.36311   0.38965   0.47210   0.00000  Uiso   1.00
C863   C     0.38033   0.39359   0.54653   0.00000  Uiso   1.00
H864   H     0.35075   0.38306   0.56172   0.00000  Uiso   1.00
H865   H     0.39618   0.41892   0.57199   0.00000  Uiso   1.00
H866   H     0.39981   0.36252   0.54386   0.00000  Uiso   1.00
N867   N     0.62619   0.58649   0.50188   0.00000  Uiso   1.00
H868   H     0.63690   0.61037   0.52783   0.00000  Uiso   1.00
C869   C     0.61965   0.60638   0.45341   0.00000  Uiso   1.00
H870   H     0.64922   0.61692   0.43821   0.00000  Uiso   1.00
H871   H     0.60016   0.63745   0.45607   0.00000  Uiso   1.00
H872   H     0.60380   0.58104   0.42798   0.00000  Uiso   1.00
N873   N     0.62258   0.41694   0.47596   0.00000  Uiso   1.00
H874   H     0.63187   0.38675   0.49305   0.00000  Uiso   1.00
C875   C     0.61426   0.41177   0.42347   0.00000  Uiso   1.00
H876   H     0.64312   0.40643   0.40443   0.00000  Uiso   1.00
H877   H     0.59874   0.44302   0.40828   0.00000  Uiso   1.00
H878   H     0.59379   0.38130   0.41629   0.00000  Uiso   1.00
N879   N     0.37742   0.58308   0.52398   0.00000  Uiso   1.00
H880   H     0.36815   0.61325   0.50685   0.00000  Uiso   1.00
C881   C     0.38573   0.58830   0.57646   0.00000  Uiso   1.00
H882   H     0.35689   0.59394   0.59546   0.00000  Uiso   1.00
H883   H     0.40641   0.61862   0.58358   0.00000  Uiso   1.00
H884   H     0.40104   0.55694   0.59176   0.00000  Uiso   1.00
N885   N     0.46333   0.38053   0.42011   0.00000  Uiso   1.00
O886   O     0.42665   0.39674   0.42117   0.00000  Uiso   1.00
O887   O     0.48100   0.37848   0.37826   0.00000  Uiso   1.00
N888   N     0.53669   0.61947   0.57988   0.00000  Uiso   1.00
O889   O     0.51901   0.62150   0.62173   0.00000  Uiso   1.00
O890   O     0.57339   0.60332   0.57882   0.00000  Uiso   1.00
N891   N     0.54217   0.38276   0.57582   0.00000  Uiso   1.00
O892   O     0.58044   0.39259   0.57024   0.00000  Uiso   1.00
O893   O     0.52815   0.38429   0.61982   0.00000  Uiso   1.00
N894   N     0.45785   0.61724   0.42417   0.00000  Uiso   1.00
O895   O     0.47188   0.61571   0.38017   0.00000  Uiso   1.00
O896   O     0.41957   0.60741   0.42973   0.00000  Uiso   1.00
O897   O     0.77321   0.53958   0.50000   0.00000  Uiso   1.00
O898   O     0.89345   0.46042   0.50000   0.00000  Uiso   1.00
O899   O     0.89345   0.53958   0.50000   0.00000  Uiso   1.00
O900   O     0.77321   0.46042   0.50000   0.00000  Uiso   1.00
C901   C     0.75417   0.49971   0.50221   0.00000  Uiso   1.00
C902   C     0.91250   0.50029   0.49778   0.00000  Uiso   1.00
O903   O     0.83333   0.53959   0.42946   0.00000  Uiso   1.00
O904   O     0.83333   0.46041   0.57054   0.00000  Uiso   1.00
O905   O     0.83333   0.53959   0.57054   0.00000  Uiso   1.00
O906   O     0.83333   0.46041   0.42946   0.00000  Uiso   1.00
C907   C     0.83325   0.49994   0.40695   0.00000  Uiso   1.00
C908   C     0.83341   0.50006   0.59305   0.00000  Uiso   1.00
Cu909  Cu    0.83333   0.54689   0.50000   0.00000  Uiso   1.00
Cu910  Cu    0.83333   0.45311   0.50000   0.00000  Uiso   1.00
C911   C     0.83331   0.49991   0.35521   0.00000  Uiso   1.00
C912   C     0.83336   0.50009   0.64479   0.00000  Uiso   1.00
C913   C     0.68701   0.45715   0.49754   0.00000  Uiso   1.00
C914   C     0.97965   0.54285   0.50244   0.00000  Uiso   1.00
C915   C     0.97792   0.45835   0.49004   0.00000  Uiso   1.00
C916   C     0.68875   0.54165   0.50994   0.00000  Uiso   1.00
C917   C     0.95726   0.50079   0.49543   0.00000  Uiso   1.00
C918   C     0.70940   0.49922   0.50455   0.00000  Uiso   1.00
C919   C     0.81449   0.35750   0.46211   0.00000  Uiso   1.00
C920   C     0.85218   0.64250   0.53788   0.00000  Uiso   1.00
C921   C     0.85277   0.35852   0.53743   0.00000  Uiso   1.00
C922   C     0.81390   0.64148   0.46257   0.00000  Uiso   1.00
N923   N     0.83333   0.61736   0.50000   0.00000  Uiso   1.00
N924   N     0.83333   0.38264   0.50000   0.00000  Uiso   1.00
N925   N     0.70714   0.41352   0.49808   0.00000  Uiso   1.00
H926   H     0.69645   0.38965   0.47210   0.00000  Uiso   1.00
C927   C     0.71367   0.39359   0.54653   0.00000  Uiso   1.00
H928   H     0.68408   0.38306   0.56172   0.00000  Uiso   1.00
H929   H     0.72951   0.41892   0.57199   0.00000  Uiso   1.00
H930   H     0.73315   0.36252   0.54386   0.00000  Uiso   1.00
N931   N     0.95953   0.58649   0.50188   0.00000  Uiso   1.00
H932   H     0.97023   0.61037   0.52783   0.00000  Uiso   1.00
C933   C     0.95298   0.60638   0.45341   0.00000  Uiso   1.00
H934   H     0.98256   0.61692   0.43821   0.00000  Uiso   1.00
H935   H     0.93349   0.63745   0.45607   0.00000  Uiso   1.00
H936   H     0.93713   0.58104   0.42798   0.00000  Uiso   1.00
N937   N     0.95591   0.41694   0.47596   0.00000  Uiso   1.00
H938   H     0.96520   0.38675   0.49305   0.00000  Uiso   1.00
C939   C     0.94760   0.41177   0.42347   0.00000  Uiso   1.00
H940   H     0.97645   0.40643   0.40443   0.00000  Uiso   1.00
H941   H     0.93207   0.44302   0.40828   0.00000  Uiso   1.00
H942   H     0.92712   0.38130   0.41629   0.00000  Uiso   1.00
N943   N     0.71076   0.58308   0.52398   0.00000  Uiso   1.00
H944   H     0.70148   0.61325   0.50685   0.00000  Uiso   1.00
C945   C     0.71907   0.58830   0.57646   0.00000  Uiso   1.00
H946   H     0.69023   0.59394   0.59546   0.00000  Uiso   1.00
H947   H     0.73975   0.61862   0.58358   0.00000  Uiso   1.00
H948   H     0.73438   0.55694   0.59176   0.00000  Uiso   1.00
N949   N     0.79666   0.38053   0.42011   0.00000  Uiso   1.00
O950   O     0.75998   0.39674   0.42117   0.00000  Uiso   1.00
O951   O     0.81434   0.37848   0.37826   0.00000  Uiso   1.00
N952   N     0.87002   0.61947   0.57988   0.00000  Uiso   1.00
O953   O     0.85234   0.62150   0.62173   0.00000  Uiso   1.00
O954   O     0.90672   0.60332   0.57882   0.00000  Uiso   1.00
N955   N     0.87550   0.38276   0.57582   0.00000  Uiso   1.00
O956   O     0.91377   0.39259   0.57024   0.00000  Uiso   1.00
O957   O     0.86148   0.38429   0.61982   0.00000  Uiso   1.00
N958   N     0.79118   0.61724   0.42417   0.00000  Uiso   1.00
O959   O     0.80521   0.61571   0.38017   0.00000  Uiso   1.00
O960   O     0.75291   0.60741   0.42973   0.00000  Uiso   1.00
O961   O     0.10655   0.87291   0.50000   0.00000  Uiso   1.00
O962   O     0.22679   0.79375   0.50000   0.00000  Uiso   1.00
O963   O     0.22679   0.87291   0.50000   0.00000  Uiso   1.00
O964   O     0.10655   0.79375   0.50000   0.00000  Uiso   1.00
C965   C     0.08750   0.83304   0.50221   0.00000  Uiso   1.00
C966   C     0.24583   0.83363   0.49778   0.00000  Uiso   1.00
O967   O     0.16667   0.87292   0.42946   0.00000  Uiso   1.00
O968   O     0.16667   0.79375   0.57054   0.00000  Uiso   1.00
O969   O     0.16667   0.87292   0.57054   0.00000  Uiso   1.00
O970   O     0.16667   0.79375   0.42946   0.00000  Uiso   1.00
C971   C     0.16659   0.83327   0.40695   0.00000  Uiso   1.00
C972   C     0.16675   0.83340   0.59305   0.00000  Uiso   1.00
Cu973  Cu    0.16667   0.88022   0.50000   0.00000  Uiso   1.00
Cu974  Cu    0.16667   0.78645   0.50000   0.00000  Uiso   1.00
C975   C     0.16664   0.83324   0.35521   0.00000  Uiso   1.00
C976   C     0.16669   0.83342   0.64479   0.00000  Uiso   1.00
C977   C     0.02035   0.79049   0.49754   0.00000  Uiso   1.00
C978   C     0.31298   0.87618   0.50244   0.00000  Uiso   1.00
C979   C     0.31125   0.79169   0.49004   0.00000  Uiso   1.00
C980   C     0.02208   0.87498   0.50994   0.00000  Uiso   1.00
C981   C     0.29059   0.83412   0.49543   0.00000  Uiso   1.00
C982   C     0.04274   0.83255   0.50455   0.00000  Uiso   1.00
C983   C     0.14782   0.69083   0.46211   0.00000  Uiso   1.00
C984   C     0.18551   0.97583   0.53788   0.00000  Uiso   1.00
C985   C     0.18611   0.69185   0.53743   0.00000  Uiso   1.00
C986   C     0.14723   0.97481   0.46257   0.00000  Uiso   1.00
N987   N     0.16667   0.95069   0.50000   0.00000  Uiso   1.00
N988   N     0.16667   0.71598   0.50000   0.00000  Uiso   1.00
N989   N     0.04047   0.74685   0.49808   0.00000  Uiso   1.00
H990   H     0.02978   0.72299   0.47210   0.00000  Uiso   1.00
C991   C     0.04700   0.72692   0.54653   0.00000  Uiso   1.00
H992   H     0.01741   0.71639   0.56172   0.00000  Uiso   1.00
H993   H     0.06285   0.75225   0.57199   0.00000  Uiso   1.00
H994   H     0.06648   0.69585   0.54386   0.00000  Uiso   1.00
N995   N     0.29286   0.91982   0.50188   0.00000  Uiso   1.00
H996   H     0.30356   0.94370   0.52783   0.00000  Uiso   1.00
C997   C     0.28631   0.93972   0.45341   0.00000  Uiso   1.00
H998   H     0.31589   0.95025   0.43821   0.00000  Uiso   1.00
H999   H     0.26682   0.97078   0.45607   0.00000  Uiso   1.00
H1000  H     0.27046   0.91437   0.42798   0.00000  Uiso   1.00
N1001  N     0.28924   0.75027   0.47596   0.00000  Uiso   1.00
H1002  H     0.29853   0.72008   0.49305   0.00000  Uiso   1.00
C1003  C     0.28093   0.74511   0.42347   0.00000  Uiso   1.00
H1004  H     0.30979   0.73977   0.40443   0.00000  Uiso   1.00
H1005  H     0.26541   0.77636   0.40828   0.00000  Uiso   1.00
H1006  H     0.26046   0.71464   0.41629   0.00000  Uiso   1.00
N1007  N     0.04409   0.91641   0.52398   0.00000  Uiso   1.00
H1008  H     0.03482   0.94658   0.50685   0.00000  Uiso   1.00
C1009  C     0.05240   0.92163   0.57646   0.00000  Uiso   1.00
H1010  H     0.02356   0.92728   0.59546   0.00000  Uiso   1.00
H1011  H     0.07308   0.95195   0.58358   0.00000  Uiso   1.00
H1012  H     0.06771   0.89027   0.59176   0.00000  Uiso   1.00
N1013  N     0.12999   0.71386   0.42011   0.00000  Uiso   1.00
O1014  O     0.09331   0.73008   0.42117   0.00000  Uiso   1.00
O1015  O     0.14767   0.71181   0.37826   0.00000  Uiso   1.00
N1016  N     0.20335   0.95280   0.57988   0.00000  Uiso   1.00
O1017  O     0.18567   0.95484   0.62173   0.00000  Uiso   1.00
O1018  O     0.24006   0.93665   0.57882   0.00000  Uiso   1.00
N1019  N     0.20883   0.71609   0.57582   0.00000  Uiso   1.00
O1020  O     0.24710   0.72592   0.57024   0.00000  Uiso   1.00
O1021  O     0.19481   0.71762   0.61982   0.00000  Uiso   1.00
N1022  N     0.12451   0.95057   0.42417   0.00000  Uiso   1.00
O1023  O     0.13854   0.94904   0.38017   0.00000  Uiso   1.00
O1024  O     0.08624   0.94074   0.42973   0.00000  Uiso   1.00
O1025  O     0.43988   0.87291   0.50000   0.00000  Uiso   1.00
O1026  O     0.56012   0.79375   0.50000   0.00000  Uiso   1.00
O1027  O     0.56012   0.87291   0.50000   0.00000  Uiso   1.00
O1028  O     0.43988   0.79375   0.50000   0.00000  Uiso   1.00
C1029  C     0.42084   0.83304   0.50221   0.00000  Uiso   1.00
C1030  C     0.57916   0.83363   0.49778   0.00000  Uiso   1.00
O1031  O     0.50000   0.87292   0.42946   0.00000  Uiso   1.00
O1032  O     0.50000   0.79375   0.57054   0.00000  Uiso   1.00
O1033  O     0.50000   0.87292   0.57054   0.00000  Uiso   1.00
O1034  O     0.50000   0.79375   0.42946   0.00000  Uiso   1.00
C1035  C     0.49992   0.83327   0.40695   0.00000  Uiso   1.00
C1036  C     0.50008   0.83340   0.59305   0.00000  Uiso   1.00
Cu1037 Cu    0.50000   0.88022   0.50000   0.00000  Uiso   1.00
Cu1038 Cu    0.50000   0.78645   0.50000   0.00000  Uiso   1.00
C1039  C     0.49998   0.83324   0.35521   0.00000  Uiso   1.00
C1040  C     0.50002   0.83342   0.64479   0.00000  Uiso   1.00
C1041  C     0.35368   0.79049   0.49754   0.00000  Uiso   1.00
C1042  C     0.64632   0.87618   0.50244   0.00000  Uiso   1.00
C1043  C     0.64458   0.79169   0.49004   0.00000  Uiso   1.00
C1044  C     0.35541   0.87498   0.50994   0.00000  Uiso   1.00
C1045  C     0.62393   0.83412   0.49543   0.00000  Uiso   1.00
C1046  C     0.37607   0.83255   0.50455   0.00000  Uiso   1.00
C1047  C     0.48116   0.69083   0.46211   0.00000  Uiso   1.00
C1048  C     0.51885   0.97583   0.53788   0.00000  Uiso   1.00
C1049  C     0.51944   0.69185   0.53743   0.00000  Uiso   1.00
C1050  C     0.48056   0.97481   0.46257   0.00000  Uiso   1.00
N1051  N     0.50000   0.95069   0.50000   0.00000  Uiso   1.00
N1052  N     0.50000   0.71598   0.50000   0.00000  Uiso   1.00
N1053  N     0.37380   0.74685   0.49808   0.00000  Uiso   1.00
H1054  H     0.36311   0.72299   0.47210   0.00000  Uiso   1.00
C1055  C     0.38033   0.72692   0.54653   0.00000  Uiso   1.00
H1056  H     0.35075   0.71639   0.56172   0.00000  Uiso   1.00
H1057  H     0.39618   0.75225   0.57199   0.00000  Uiso   1.00
H1058  H     0.39981   0.69585   0.54386   0.00000  Uiso   1.00
N1059  N     0.62619   0.91982   0.50188   0.00000  Uiso   1.00
H1060  H     0.63690   0.94370   0.52783   0.00000  Uiso   1.00
C1061  C     0.61965   0.93972   0.45341   0.00000  Uiso   1.00
H1062  H     0.64922   0.95025   0.43821   0.00000  Uiso   1.00
H1063  H     0.60016   0.97078   0.45607   0.00000  Uiso   1.00
H1064  H     0.60380   0.91437   0.42798   0.00000  Uiso   1.00
N1065  N     0.62258   0.75027   0.47596   0.00000  Uiso   1.00
H1066  H     0.63187   0.72008   0.49305   0.00000  Uiso   1.00
C1067  C     0.61426   0.74511   0.42347   0.00000  Uiso   1.00
H1068  H     0.64312   0.73977   0.40443   0.00000  Uiso   1.00
H1069  H     0.59874   0.77636   0.40828   0.00000  Uiso   1.00
H1070  H     0.59379   0.71464   0.41629   0.00000  Uiso   1.00
N1071  N     0.37742   0.91641   0.52398   0.00000  Uiso   1.00
H1072  H     0.36815   0.94658   0.50685   0.00000  Uiso   1.00
C1073  C     0.38573   0.92163   0.57646   0.00000  Uiso   1.00
H1074  H     0.35689   0.92728   0.59546   0.00000  Uiso   1.00
H1075  H     0.40641   0.95195   0.58358   0.00000  Uiso   1.00
H1076  H     0.40104   0.89027   0.59176   0.00000  Uiso   1.00
N1077  N     0.46333   0.71386   0.42011   0.00000  Uiso   1.00
O1078  O     0.42665   0.73008   0.42117   0.00000  Uiso   1.00
O1079  O     0.48100   0.71181   0.37826   0.00000  Uiso   1.00
N1080  N     0.53669   0.95280   0.57988   0.00000  Uiso   1.00
O1081  O     0.51901   0.95484   0.62173   0.00000  Uiso   1.00
O1082  O     0.57339   0.93665   0.57882   0.00000  Uiso   1.00
N1083  N     0.54217   0.71609   0.57582   0.00000  Uiso   1.00
O1084  O     0.58044   0.72592   0.57024   0.00000  Uiso   1.00
O1085  O     0.52815   0.71762   0.61982   0.00000  Uiso   1.00
N1086  N     0.45785   0.95057   0.42417   0.00000  Uiso   1.00
O1087  O     0.47188   0.94904   0.38017   0.00000  Uiso   1.00
O1088  O     0.41957   0.94074   0.42973   0.00000  Uiso   1.00
O1089  O     0.77321   0.87291   0.50000   0.00000  Uiso   1.00
O1090  O     0.89345   0.79375   0.50000   0.00000  Uiso   1.00
O1091  O     0.89345   0.87291   0.50000   0.00000  Uiso   1.00
O1092  O     0.77321   0.79375   0.50000   0.00000  Uiso   1.00
C1093  C     0.75417   0.83304   0.50221   0.00000  Uiso   1.00
C1094  C     0.91250   0.83363   0.49778   0.00000  Uiso   1.00
O1095  O     0.83333   0.87292   0.42946   0.00000  Uiso   1.00
O1096  O     0.83333   0.79375   0.57054   0.00000  Uiso   1.00
O1097  O     0.83333   0.87292   0.57054   0.00000  Uiso   1.00
O1098  O     0.83333   0.79375   0.42946   0.00000  Uiso   1.00
C1099  C     0.83325   0.83327   0.40695   0.00000  Uiso   1.00
C1100  C     0.83341   0.83340   0.59305   0.00000  Uiso   1.00
Cu1101 Cu    0.83333   0.88022   0.50000   0.00000  Uiso   1.00
Cu1102 Cu    0.83333   0.78645   0.50000   0.00000  Uiso   1.00
C1103  C     0.83331   0.83324   0.35521   0.00000  Uiso   1.00
C1104  C     0.83336   0.83342   0.64479   0.00000  Uiso   1.00
C1105  C     0.68701   0.79049   0.49754   0.00000  Uiso   1.00
C1106  C     0.97965   0.87618   0.50244   0.00000  Uiso   1.00
C1107  C     0.97792   0.79169   0.49004   0.00000  Uiso   1.00
C1108  C     0.68875   0.87498   0.50994   0.00000  Uiso   1.00
C1109  C     0.95726   0.83412   0.49543   0.00000  Uiso   1.00
C1110  C     0.70940   0.83255   0.50455   0.00000  Uiso   1.00
C1111  C     0.81449   0.69083   0.46211   0.00000  Uiso   1.00
C1112  C     0.85218   0.97583   0.53788   0.00000  Uiso   1.00
C1113  C     0.85277   0.69185   0.53743   0.00000  Uiso   1.00
C1114  C     0.81390   0.97481   0.46257   0.00000  Uiso   1.00
N1115  N     0.83333   0.95069   0.50000   0.00000  Uiso   1.00
N1116  N     0.83333   0.71598   0.50000   0.00000  Uiso   1.00
N1117  N     0.70714   0.74685   0.49808   0.00000  Uiso   1.00
H1118  H     0.69645   0.72299   0.47210   0.00000  Uiso   1.00
C1119  C     0.71367   0.72692   0.54653   0.00000  Uiso   1.00
H1120  H     0.68408   0.71639   0.56172   0.00000  Uiso   1.00
H1121  H     0.72951   0.75225   0.57199   0.00000  Uiso   1.00
H1122  H     0.73315   0.69585   0.54386   0.00000  Uiso   1.00
N1123  N     0.95953   0.91982   0.50188   0.00000  Uiso   1.00
H1124  H     0.97023   0.94370   0.52783   0.00000  Uiso   1.00
C1125  C     0.95298   0.93972   0.45341   0.00000  Uiso   1.00
H1126  H     0.98256   0.95025   0.43821   0.00000  Uiso   1.00
H1127  H     0.93349   0.97078   0.45607   0.00000  Uiso   1.00
H1128  H     0.93713   0.91437   0.42798   0.00000  Uiso   1.00
N1129  N     0.95591   0.75027   0.47596   0.00000  Uiso   1.00
H1130  H     0.96520   0.72008   0.49305   0.00000  Uiso   1.00
C1131  C     0.94760   0.74511   0.42347   0.00000  Uiso   1.00
H1132  H     0.97645   0.73977   0.40443   0.00000  Uiso   1.00
H1133  H     0.93207   0.77636   0.40828   0.00000  Uiso   1.00
H1134  H     0.92712   0.71464   0.41629   0.00000  Uiso   1.00
N1135  N     0.71076   0.91641   0.52398   0.00000  Uiso   1.00
H1136  H     0.70148   0.94658   0.50685   0.00000  Uiso   1.00
C1137  C     0.71907   0.92163   0.57646   0.00000  Uiso   1.00
H1138  H     0.69023   0.92728   0.59546   0.00000  Uiso   1.00
H1139  H     0.73975   0.95195   0.58358   0.00000  Uiso   1.00
H1140  H     0.73438   0.89027   0.59176   0.00000  Uiso   1.00
N1141  N     0.79666   0.71386   0.42011   0.00000  Uiso   1.00
O1142  O     0.75998   0.73008   0.42117   0.00000  Uiso   1.00
O1143  O     0.81434   0.71181   0.37826   0.00000  Uiso   1.00
N1144  N     0.87002   0.95280   0.57988   0.00000  Uiso   1.00
O1145  O     0.85234   0.95484   0.62173   0.00000  Uiso   1.00
O1146  O     0.90672   0.93665   0.57882   0.00000  Uiso   1.00
N1147  N     0.87550   0.71609   0.57582   0.00000  Uiso   1.00
O1148  O     0.91377   0.72592   0.57024   0.00000  Uiso   1.00
O1149  O     0.86148   0.71762   0.61982   0.00000  Uiso   1.00
N1150  N     0.79118   0.95057   0.42417   0.00000  Uiso   1.00
O1151  O     0.80521   0.94904   0.38017   0.00000  Uiso   1.00
O1152  O     0.75291   0.94074   0.42973   0.00000  Uiso   1.00
O1153  O     0.10655   0.20625   0.83333   0.00000  Uiso   1.00
O1154  O     0.22679   0.12709   0.83334   0.00000  Uiso   1.00
O1155  O     0.22679   0.20625   0.83334   0.00000  Uiso   1.00
O1156  O     0.10655   0.12709   0.83333   0.00000  Uiso   1.00
C1157  C     0.08750   0.16637   0.83555   0.00000  Uiso   1.00
C1158  C     0.24583   0.16696   0.83112   0.00000  Uiso   1.00
O1159  O     0.16667   0.20625   0.76280   0.00000  Uiso   1.00
O1160  O     0.16667   0.12708   0.90387   0.00000  Uiso   1.00
O1161  O     0.16667   0.20625   0.90387   0.00000  Uiso   1.00
O1162  O     0.16667   0.12708   0.76280   0.00000  Uiso   1.00
C1163  C     0.16659   0.16660   0.74028   0.00000  Uiso   1.00
C1164  C     0.16675   0.16673   0.92638   0.00000  Uiso   1.00
Cu1165 Cu    0.16667   0.21355   0.83333   0.00000  Uiso   1.00
Cu1166 Cu    0.16667   0.11978   0.83333   0.00000  Uiso   1.00
C1167  C     0.16664   0.16658   0.68854   0.00000  Uiso   1.00
C1168  C     0.16669   0.16675   0.97813   0.00000  Uiso   1.00
C1169  C     0.02035   0.12382   0.83088   0.00000  Uiso   1.00
C1170  C     0.31298   0.20952   0.83577   0.00000  Uiso   1.00
C1171  C     0.31125   0.12502   0.82337   0.00000  Uiso   1.00
C1172  C     0.02208   0.20832   0.84327   0.00000  Uiso   1.00
C1173  C     0.29059   0.16745   0.82877   0.00000  Uiso   1.00
C1174  C     0.04274   0.16588   0.83789   0.00000  Uiso   1.00
C1175  C     0.14782   0.02417   0.79545   0.00000  Uiso   1.00
C1176  C     0.18551   0.30917   0.87122   0.00000  Uiso   1.00
C1177  C     0.18611   0.02519   0.87076   0.00000  Uiso   1.00
C1178  C     0.14723   0.30815   0.79590   0.00000  Uiso   1.00
N1179  N     0.16667   0.28402   0.83333   0.00000  Uiso   1.00
N1180  N     0.16667   0.04931   0.83333   0.00000  Uiso   1.00
N1181  N     0.04047   0.08018   0.83142   0.00000  Uiso   1.00
H1182  H     0.02978   0.05632   0.80543   0.00000  Uiso   1.00
C1183  C     0.04700   0.06026   0.87987   0.00000  Uiso   1.00
H1184  H     0.01741   0.04972   0.89506   0.00000  Uiso   1.00
H1185  H     0.06285   0.08558   0.90532   0.00000  Uiso   1.00
H1186  H     0.06648   0.02919   0.87720   0.00000  Uiso   1.00
N1187  N     0.29286   0.25316   0.83521   0.00000  Uiso   1.00
H1188  H     0.30356   0.27704   0.86117   0.00000  Uiso   1.00
C1189  C     0.28631   0.27305   0.78675   0.00000  Uiso   1.00
H1190  H     0.31589   0.28358   0.77154   0.00000  Uiso   1.00
H1191  H     0.26682   0.30412   0.78941   0.00000  Uiso   1.00
H1192  H     0.27046   0.24771   0.76131   0.00000  Uiso   1.00
N1193  N     0.28924   0.08360   0.80929   0.00000  Uiso   1.00
H1194  H     0.29853   0.05342   0.82639   0.00000  Uiso   1.00
C1195  C     0.28093   0.07844   0.75680   0.00000  Uiso   1.00
H1196  H     0.30979   0.07310   0.73776   0.00000  Uiso   1.00
H1197  H     0.26541   0.10969   0.74161   0.00000  Uiso   1.00
H1198  H     0.26046   0.04797   0.74962   0.00000  Uiso   1.00
N1199  N     0.04409   0.24974   0.85732   0.00000  Uiso   1.00
H1200  H     0.03482   0.27991   0.84018   0.00000  Uiso   1.00
C1201  C     0.05240   0.25496   0.90980   0.00000  Uiso   1.00
H1202  H     0.02356   0.26061   0.92879   0.00000  Uiso   1.00
H1203  H     0.07308   0.28528   0.91692   0.00000  Uiso   1.00
H1204  H     0.06771   0.22360   0.92509   0.00000  Uiso   1.00
N1205  N     0.12999   0.04719   0.75344   0.00000  Uiso   1.00
O1206  O     0.09331   0.06341   0.75451   0.00000  Uiso   1.00
O1207  O     0.14767   0.04514   0.71159   0.00000  Uiso   1.00
N1208  N     0.20335   0.28614   0.91321   0.00000  Uiso   1.00
O1209  O     0.18567   0.28817   0.95507   0.00000  Uiso   1.00
O1210  O     0.24006   0.26998   0.91216   0.00000  Uiso   1.00
N1211  N     0.20883   0.04942   0.90916   0.00000  Uiso   1.00
O1212  O     0.24710   0.05926   0.90358   0.00000  Uiso   1.00
O1213  O     0.19481   0.05095   0.95316   0.00000  Uiso   1.00
N1214  N     0.12451   0.28391   0.75750   0.00000  Uiso   1.00
O1215  O     0.13854   0.28238   0.71351   0.00000  Uiso   1.00
O1216  O     0.08624   0.27407   0.76307   0.00000  Uiso   1.00
O1217  O     0.43988   0.20625   0.83333   0.00000  Uiso   1.00
O1218  O     0.56012   0.12709   0.83334   0.00000  Uiso   1.00
O1219  O     0.56012   0.20625   0.83334   0.00000  Uiso   1.00
O1220  O     0.43988   0.12709   0.83333   0.00000  Uiso   1.00
C1221  C     0.42084   0.16637   0.83555   0.00000  Uiso   1.00
C1222  C     0.57916   0.16696   0.83112   0.00000  Uiso   1.00
O1223  O     0.50000   0.20625   0.76280   0.00000  Uiso   1.00
O1224  O     0.50000   0.12708   0.90387   0.00000  Uiso   1.00
O1225  O     0.50000   0.20625   0.90387   0.00000  Uiso   1.00
O1226  O     0.50000   0.12708   0.76280   0.00000  Uiso   1.00
C1227  C     0.49992   0.16660   0.74028   0.00000  Uiso   1.00
C1228  C     0.50008   0.16673   0.92638   0.00000  Uiso   1.00
Cu1229 Cu    0.50000   0.21355   0.83333   0.00000  Uiso   1.00
Cu1230 Cu    0.50000   0.11978   0.83333   0.00000  Uiso   1.00
C1231  C     0.49998   0.16658   0.68854   0.00000  Uiso   1.00
C1232  C     0.50002   0.16675   0.97813   0.00000  Uiso   1.00
C1233  C     0.35368   0.12382   0.83088   0.00000  Uiso   1.00
C1234  C     0.64632   0.20952   0.83577   0.00000  Uiso   1.00
C1235  C     0.64458   0.12502   0.82337   0.00000  Uiso   1.00
C1236  C     0.35541   0.20832   0.84327   0.00000  Uiso   1.00
C1237  C     0.62393   0.16745   0.82877   0.00000  Uiso   1.00
C1238  C     0.37607   0.16588   0.83789   0.00000  Uiso   1.00
C1239  C     0.48116   0.02417   0.79545   0.00000  Uiso   1.00
C1240  C     0.51885   0.30917   0.87122   0.00000  Uiso   1.00
C1241  C     0.51944   0.02519   0.87076   0.00000  Uiso   1.00
C1242  C     0.48056   0.30815   0.79590   0.00000  Uiso   1.00
N1243  N     0.50000   0.28402   0.83333   0.00000  Uiso   1.00
N1244  N     0.50000   0.04931   0.83333   0.00000  Uiso   1.00
N1245  N     0.37380   0.08018   0.83142   0.00000  Uiso   1.00
H1246  H     0.36311   0.05632   0.80543   0.00000  Uiso   1.00
C1247  C     0.38033   0.06026   0.87987   0.00000  Uiso   1.00
H1248  H     0.35075   0.04972   0.89506   0.00000  Uiso   1.00
H1249  H     0.39618   0.08558   0.90532   0.00000  Uiso   1.00
H1250  H     0.39981   0.02919   0.87720   0.00000  Uiso   1.00
N1251  N     0.62619   0.25316   0.83521   0.00000  Uiso   1.00
H1252  H     0.63690   0.27704   0.86117   0.00000  Uiso   1.00
C1253  C     0.61965   0.27305   0.78675   0.00000  Uiso   1.00
H1254  H     0.64922   0.28358   0.77154   0.00000  Uiso   1.00
H1255  H     0.60016   0.30412   0.78941   0.00000  Uiso   1.00
H1256  H     0.60380   0.24771   0.76131   0.00000  Uiso   1.00
N1257  N     0.62258   0.08360   0.80929   0.00000  Uiso   1.00
H1258  H     0.63187   0.05342   0.82639   0.00000  Uiso   1.00
C1259  C     0.61426   0.07844   0.75680   0.00000  Uiso   1.00
H1260  H     0.64312   0.07310   0.73776   0.00000  Uiso   1.00
H1261  H     0.59874   0.10969   0.74161   0.00000  Uiso   1.00
H1262  H     0.59379   0.04797   0.74962   0.00000  Uiso   1.00
N1263  N     0.37742   0.24974   0.85732   0.00000  Uiso   1.00
H1264  H     0.36815   0.27991   0.84018   0.00000  Uiso   1.00
C1265  C     0.38573   0.25496   0.90980   0.00000  Uiso   1.00
H1266  H     0.35689   0.26061   0.92879   0.00000  Uiso   1.00
H1267  H     0.40641   0.28528   0.91692   0.00000  Uiso   1.00
H1268  H     0.40104   0.22360   0.92509   0.00000  Uiso   1.00
N1269  N     0.46333   0.04719   0.75344   0.00000  Uiso   1.00
O1270  O     0.42665   0.06341   0.75451   0.00000  Uiso   1.00
O1271  O     0.48100   0.04514   0.71159   0.00000  Uiso   1.00
N1272  N     0.53669   0.28614   0.91321   0.00000  Uiso   1.00
O1273  O     0.51901   0.28817   0.95507   0.00000  Uiso   1.00
O1274  O     0.57339   0.26998   0.91216   0.00000  Uiso   1.00
N1275  N     0.54217   0.04942   0.90916   0.00000  Uiso   1.00
O1276  O     0.58044   0.05926   0.90358   0.00000  Uiso   1.00
O1277  O     0.52815   0.05095   0.95316   0.00000  Uiso   1.00
N1278  N     0.45785   0.28391   0.75750   0.00000  Uiso   1.00
O1279  O     0.47188   0.28238   0.71351   0.00000  Uiso   1.00
O1280  O     0.41957   0.27407   0.76307   0.00000  Uiso   1.00
O1281  O     0.77321   0.20625   0.83333   0.00000  Uiso   1.00
O1282  O     0.89345   0.12709   0.83334   0.00000  Uiso   1.00
O1283  O     0.89345   0.20625   0.83334   0.00000  Uiso   1.00
O1284  O     0.77321   0.12709   0.83333   0.00000  Uiso   1.00
C1285  C     0.75417   0.16637   0.83555   0.00000  Uiso   1.00
C1286  C     0.91250   0.16696   0.83112   0.00000  Uiso   1.00
O1287  O     0.83333   0.20625   0.76280   0.00000  Uiso   1.00
O1288  O     0.83333   0.12708   0.90387   0.00000  Uiso   1.00
O1289  O     0.83333   0.20625   0.90387   0.00000  Uiso   1.00
O1290  O     0.83333   0.12708   0.76280   0.00000  Uiso   1.00
C1291  C     0.83325   0.16660   0.74028   0.00000  Uiso   1.00
C1292  C     0.83341   0.16673   0.92638   0.00000  Uiso   1.00
Cu1293 Cu    0.83333   0.21355   0.83333   0.00000  Uiso   1.00
Cu1294 Cu    0.83333   0.11978   0.83333   0.00000  Uiso   1.00
C1295  C     0.83331   0.16658   0.68854   0.00000  Uiso   1.00
C1296  C     0.83336   0.16675   0.97813   0.00000  Uiso   1.00
C1297  C     0.68701   0.12382   0.83088   0.00000  Uiso   1.00
C1298  C     0.97965   0.20952   0.83577   0.00000  Uiso   1.00
C1299  C     0.97792   0.12502   0.82337   0.00000  Uiso   1.00
C1300  C     0.68875   0.20832   0.84327   0.00000  Uiso   1.00
C1301  C     0.95726   0.16745   0.82877   0.00000  Uiso   1.00
C1302  C     0.70940   0.16588   0.83789   0.00000  Uiso   1.00
C1303  C     0.81449   0.02417   0.79545   0.00000  Uiso   1.00
C1304  C     0.85218   0.30917   0.87122   0.00000  Uiso   1.00
C1305  C     0.85277   0.02519   0.87076   0.00000  Uiso   1.00
C1306  C     0.81390   0.30815   0.79590   0.00000  Uiso   1.00
N1307  N     0.83333   0.28402   0.83333   0.00000  Uiso   1.00
N1308  N     0.83333   0.04931   0.83333   0.00000  Uiso   1.00
N1309  N     0.70714   0.08018   0.83142   0.00000  Uiso   1.00
H1310  H     0.69645   0.05632   0.80543   0.00000  Uiso   1.00
C1311  C     0.71367   0.06026   0.87987   0.00000  Uiso   1.00
H1312  H     0.68408   0.04972   0.89506   0.00000  Uiso   1.00
H1313  H     0.72951   0.08558   0.90532   0.00000  Uiso   1.00
H1314  H     0.73315   0.02919   0.87720   0.00000  Uiso   1.00
N1315  N     0.95953   0.25316   0.83521   0.00000  Uiso   1.00
H1316  H     0.97023   0.27704   0.86117   0.00000  Uiso   1.00
C1317  C     0.95298   0.27305   0.78675   0.00000  Uiso   1.00
H1318  H     0.98256   0.28358   0.77154   0.00000  Uiso   1.00
H1319  H     0.93349   0.30412   0.78941   0.00000  Uiso   1.00
H1320  H     0.93713   0.24771   0.76131   0.00000  Uiso   1.00
N1321  N     0.95591   0.08360   0.80929   0.00000  Uiso   1.00
H1322  H     0.96520   0.05342   0.82639   0.00000  Uiso   1.00
C1323  C     0.94760   0.07844   0.75680   0.00000  Uiso   1.00
H1324  H     0.97645   0.07310   0.73776   0.00000  Uiso   1.00
H1325  H     0.93207   0.10969   0.74161   0.00000  Uiso   1.00
H1326  H     0.92712   0.04797   0.74962   0.00000  Uiso   1.00
N1327  N     0.71076   0.24974   0.85732   0.00000  Uiso   1.00
H1328  H     0.70148   0.27991   0.84018   0.00000  Uiso   1.00
C1329  C     0.71907   0.25496   0.90980   0.00000  Uiso   1.00
H1330  H     0.69023   0.26061   0.92879   0.00000  Uiso   1.00
H1331  H     0.73975   0.28528   0.91692   0.00000  Uiso   1.00
H1332  H     0.73438   0.22360   0.92509   0.00000  Uiso   1.00
N1333  N     0.79666   0.04719   0.75344   0.00000  Uiso   1.00
O1334  O     0.75998   0.06341   0.75451   0.00000  Uiso   1.00
O1335  O     0.81434   0.04514   0.71159   0.00000  Uiso   1.00
N1336  N     0.87002   0.28614   0.91321   0.00000  Uiso   1.00
O1337  O     0.85234   0.28817   0.95507   0.00000  Uiso   1.00
O1338  O     0.90672   0.26998   0.91216   0.00000  Uiso   1.00
N1339  N     0.87550   0.04942   0.90916   0.00000  Uiso   1.00
O1340  O     0.91377   0.05926   0.90358   0.00000  Uiso   1.00
O1341  O     0.86148   0.05095   0.95316   0.00000  Uiso   1.00
N1342  N     0.79118   0.28391   0.75750   0.00000  Uiso   1.00
O1343  O     0.80521   0.28238   0.71351   0.00000  Uiso   1.00
O1344  O     0.75291   0.27407   0.76307   0.00000  Uiso   1.00
O1345  O     0.10655   0.53958   0.83333   0.00000  Uiso   1.00
O1346  O     0.22679   0.46042   0.83334   0.00000  Uiso   1.00
O1347  O     0.22679   0.53958   0.83334   0.00000  Uiso   1.00
O1348  O     0.10655   0.46042   0.83333   0.00000  Uiso   1.00
C1349  C     0.08750   0.49971   0.83555   0.00000  Uiso   1.00
C1350  C     0.24583   0.50029   0.83112   0.00000  Uiso   1.00
O1351  O     0.16667   0.53959   0.76280   0.00000  Uiso   1.00
O1352  O     0.16667   0.46041   0.90387   0.00000  Uiso   1.00
O1353  O     0.16667   0.53959   0.90387   0.00000  Uiso   1.00
O1354  O     0.16667   0.46041   0.76280   0.00000  Uiso   1.00
C1355  C     0.16659   0.49994   0.74028   0.00000  Uiso   1.00
C1356  C     0.16675   0.50006   0.92638   0.00000  Uiso   1.00
Cu1357 Cu    0.16667   0.54689   0.83333   0.00000  Uiso   1.00
Cu1358 Cu    0.16667   0.45311   0.83333   0.00000  Uiso   1.00
C1359  C     0.16664   0.49991   0.68854   0.00000  Uiso   1.00
C1360  C     0.16669   0.50009   0.97813   0.00000  Uiso   1.00
C1361  C     0.02035   0.45715   0.83088   0.00000  Uiso   1.00
C1362  C     0.31298   0.54285   0.83577   0.00000  Uiso   1.00
C1363  C     0.31125   0.45835   0.82337   0.00000  Uiso   1.00
C1364  C     0.02208   0.54165   0.84327   0.00000  Uiso   1.00
C1365  C     0.29059   0.50079   0.82877   0.00000  Uiso   1.00
C1366  C     0.04274   0.49922   0.83789   0.00000  Uiso   1.00
C1367  C     0.14782   0.35750   0.79545   0.00000  Uiso   1.00
C1368  C     0.18551   0.64250   0.87122   0.00000  Uiso   1.00
C1369  C     0.18611   0.35852   0.87076   0.00000  Uiso   1.00
C1370  C     0.14723   0.64148   0.79590   0.00000  Uiso   1.00
N1371  N     0.16667   0.61736   0.83333   0.00000  Uiso   1.00
N1372  N     0.16667   0.38264   0.83333   0.00000  Uiso   1.00
N1373  N     0.04047   0.41352   0.83142   0.00000  Uiso   1.00
H1374  H     0.02978   0.38965   0.80543   0.00000  Uiso   1.00
C1375  C     0.04700   0.39359   0.87987   0.00000  Uiso   1.00
H1376  H     0.01741   0.38306   0.89506   0.00000  Uiso   1.00
H1377  H     0.06285   0.41892   0.90532   0.00000  Uiso   1.00
H1378  H     0.06648   0.36252   0.87720   0.00000  Uiso   1.00
N1379  N     0.29286   0.58649   0.83521   0.00000  Uiso   1.00
H1380  H     0.30356   0.61037   0.86117   0.00000  Uiso   1.00
C1381  C     0.28631   0.60638   0.78675   0.00000  Uiso   1.00
H1382  H     0.31589   0.61692   0.77154   0.00000  Uiso   1.00
H1383  H     0.26682   0.63745   0.78941   0.00000  Uiso   1.00
H1384  H     0.27046   0.58104   0.76131   0.00000  Uiso   1.00
N1385  N     0.28924   0.41694   0.80929   0.00000  Uiso   1.00
H1386  H     0.29853   0.38675   0.82639   0.00000  Uiso   1.00
C1387  C     0.28093   0.41177   0.75680   0.00000  Uiso   1.00
H1388  H     0.30979   0.40643   0.73776   0.00000  Uiso   1.00
H1389  H     0.26541   0.44302   0.74161   0.00000  Uiso   1.00
H1390  H     0.26046   0.38130   0.74962   0.00000  Uiso   1.00
N1391  N     0.04409   0.58308   0.85732   0.00000  Uiso   1.00
H1392  H     0.03482   0.61325   0.84018   0.00000  Uiso   1.00
C1393  C     0.05240   0.58830   0.90980   0.00000  Uiso   1.00
H1394  H     0.02356   0.59394   0.92879   0.00000  Uiso   1.00
H1395  H     0.07308   0.61862   0.91692   0.00000  Uiso   1.00
H1396  H     0.06771   0.55694   0.92509   0.00000  Uiso   1.00
N1397  N     0.12999   0.38053   0.75344   0.00000  Uiso   1.00
O1398  O     0.09331   0.39674   0.75451   0.00000  Uiso   1.00
O1399  O     0.14767   0.37848   0.71159   0.00000  Uiso   1.00
N1400  N     0.20335   0.61947   0.91321   0.00000  Uiso   1.00
O1401  O     0.18567   0.62150   0.95507   0.00000  Uiso   1.00
O1402  O     0.24006   0.60332   0.91216   0.00000  Uiso   1.00
N1403  N     0.20883   0.38276   0.90916   0.00000  Uiso   1.00
O1404  O     0.24710   0.39259   0.90358   0.00000  Uiso   1.00
O1405  O     0.19481   0.38429   0.95316   0.00000  Uiso   1.00
N1406  N     0.12451   0.61724   0.75750   0.00000  Uiso   1.00
O1407  O     0.13854   0.61571   0.71351   0.00000  Uiso   1.00
O1408  O     0.08624   0.60741   0.76307   0.00000  Uiso   1.00
O1409  O     0.43988   0.53958   0.83333   0.00000  Uiso   1.00
O1410  O     0.56012   0.46042   0.83334   0.00000  Uiso   1.00
O1411  O     0.56012   0.53958   0.83334   0.00000  Uiso   1.00
O1412  O     0.43988   0.46042   0.83333   0.00000  Uiso   1.00
C1413  C     0.42084   0.49971   0.83555   0.00000  Uiso   1.00
C1414  C     0.57916   0.50029   0.83112   0.00000  Uiso   1.00
O1415  O     0.50000   0.53959   0.76280   0.00000  Uiso   1.00
O1416  O     0.50000   0.46041   0.90387   0.00000  Uiso   1.00
O1417  O     0.50000   0.53959   0.90387   0.00000  Uiso   1.00
O1418  O     0.50000   0.46041   0.76280   0.00000  Uiso   1.00
C1419  C     0.49992   0.49994   0.74028   0.00000  Uiso   1.00
C1420  C     0.50008   0.50006   0.92638   0.00000  Uiso   1.00
Cu1421 Cu    0.50000   0.54689   0.83333   0.00000  Uiso   1.00
Cu1422 Cu    0.50000   0.45311   0.83333   0.00000  Uiso   1.00
C1423  C     0.49998   0.49991   0.68854   0.00000  Uiso   1.00
C1424  C     0.50002   0.50009   0.97813   0.00000  Uiso   1.00
C1425  C     0.35368   0.45715   0.83088   0.00000  Uiso   1.00
C1426  C     0.64632   0.54285   0.83577   0.00000  Uiso   1.00
C1427  C     0.64458   0.45835   0.82337   0.00000  Uiso   1.00
C1428  C     0.35541   0.54165   0.84327   0.00000  Uiso   1.00
C1429  C     0.62393   0.50079   0.82877   0.00000  Uiso   1.00
C1430  C     0.37607   0.49922   0.83789   0.00000  Uiso   1.00
C1431  C     0.48116   0.35750   0.79545   0.00000  Uiso   1.00
C1432  C     0.51885   0.64250   0.87122   0.00000  Uiso   1.00
C1433  C     0.51944   0.35852   0.87076   0.00000  Uiso   1.00
C1434  C     0.48056   0.64148   0.79590   0.00000  Uiso   1.00
N1435  N     0.50000   0.61736   0.83333   0.00000  Uiso   1.00
N1436  N     0.50000   0.38264   0.83333   0.00000  Uiso   1.00
N1437  N     0.37380   0.41352   0.83142   0.00000  Uiso   1.00
H1438  H     0.36311   0.38965   0.80543   0.00000  Uiso   1.00
C1439  C     0.38033   0.39359   0.87987   0.00000  Uiso   1.00
H1440  H     0.35075   0.38306   0.89506   0.00000  Uiso   1.00
H1441  H     0.39618   0.41892   0.90532   0.00000  Uiso   1.00
H1442  H     0.39981   0.36252   0.87720   0.00000  Uiso   1.00
N1443  N     0.62619   0.58649   0.83521   0.00000  Uiso   1.00
H1444  H     0.63690   0.61037   0.86117   0.00000  Uiso   1.00
C1445  C     0.61965   0.60638   0.78675   0.00000  Uiso   1.00
H1446  H     0.64922   0.61692   0.77154   0.00000  Uiso   1.00
H1447  H     0.60016   0.63745   0.78941   0.00000  Uiso   1.00
H1448  H     0.60380   0.58104   0.76131   0.00000  Uiso   1.00
N1449  N     0.62258   0.41694   0.80929   0.00000  Uiso   1.00
H1450  H     0.63187   0.38675   0.82639   0.00000  Uiso   1.00
C1451  C     0.61426   0.41177   0.75680   0.00000  Uiso   1.00
H1452  H     0.64312   0.40643   0.73776   0.00000  Uiso   1.00
H1453  H     0.59874   0.44302   0.74161   0.00000  Uiso   1.00
H1454  H     0.59379   0.38130   0.74962   0.00000  Uiso   1.00
N1455  N     0.37742   0.58308   0.85732   0.00000  Uiso   1.00
H1456  H     0.36815   0.61325   0.84018   0.00000  Uiso   1.00
C1457  C     0.38573   0.58830   0.90980   0.00000  Uiso   1.00
H1458  H     0.35689   0.59394   0.92879   0.00000  Uiso   1.00
H1459  H     0.40641   0.61862   0.91692   0.00000  Uiso   1.00
H1460  H     0.40104   0.55694   0.92509   0.00000  Uiso   1.00
N1461  N     0.46333   0.38053   0.75344   0.00000  Uiso   1.00
O1462  O     0.42665   0.39674   0.75451   0.00000  Uiso   1.00
O1463  O     0.48100   0.37848   0.71159   0.00000  Uiso   1.00
N1464  N     0.53669   0.61947   0.91321   0.00000  Uiso   1.00
O1465  O     0.51901   0.62150   0.95507   0.00000  Uiso   1.00
O1466  O     0.57339   0.60332   0.91216   0.00000  Uiso   1.00
N1467  N     0.54217   0.38276   0.90916   0.00000  Uiso   1.00
O1468  O     0.58044   0.39259   0.90358   0.00000  Uiso   1.00
O1469  O     0.52815   0.38429   0.95316   0.00000  Uiso   1.00
N1470  N     0.45785   0.61724   0.75750   0.00000  Uiso   1.00
O1471  O     0.47188   0.61571   0.71351   0.00000  Uiso   1.00
O1472  O     0.41957   0.60741   0.76307   0.00000  Uiso   1.00
O1473  O     0.77321   0.53958   0.83333   0.00000  Uiso   1.00
O1474  O     0.89345   0.46042   0.83334   0.00000  Uiso   1.00
O1475  O     0.89345   0.53958   0.83334   0.00000  Uiso   1.00
O1476  O     0.77321   0.46042   0.83333   0.00000  Uiso   1.00
C1477  C     0.75417   0.49971   0.83555   0.00000  Uiso   1.00
C1478  C     0.91250   0.50029   0.83112   0.00000  Uiso   1.00
O1479  O     0.83333   0.53959   0.76280   0.00000  Uiso   1.00
O1480  O     0.83333   0.46041   0.90387   0.00000  Uiso   1.00
O1481  O     0.83333   0.53959   0.90387   0.00000  Uiso   1.00
O1482  O     0.83333   0.46041   0.76280   0.00000  Uiso   1.00
C1483  C     0.83325   0.49994   0.74028   0.00000  Uiso   1.00
C1484  C     0.83341   0.50006   0.92638   0.00000  Uiso   1.00
Cu1485 Cu    0.83333   0.54689   0.83333   0.00000  Uiso   1.00
Cu1486 Cu    0.83333   0.45311   0.83333   0.00000  Uiso   1.00
C1487  C     0.83331   0.49991   0.68854   0.00000  Uiso   1.00
C1488  C     0.83336   0.50009   0.97813   0.00000  Uiso   1.00
C1489  C     0.68701   0.45715   0.83088   0.00000  Uiso   1.00
C1490  C     0.97965   0.54285   0.83577   0.00000  Uiso   1.00
C1491  C     0.97792   0.45835   0.82337   0.00000  Uiso   1.00
C1492  C     0.68875   0.54165   0.84327   0.00000  Uiso   1.00
C1493  C     0.95726   0.50079   0.82877   0.00000  Uiso   1.00
C1494  C     0.70940   0.49922   0.83789   0.00000  Uiso   1.00
C1495  C     0.81449   0.35750   0.79545   0.00000  Uiso   1.00
C1496  C     0.85218   0.64250   0.87122   0.00000  Uiso   1.00
C1497  C     0.85277   0.35852   0.87076   0.00000  Uiso   1.00
C1498  C     0.81390   0.64148   0.79590   0.00000  Uiso   1.00
N1499  N     0.83333   0.61736   0.83333   0.00000  Uiso   1.00
N1500  N     0.83333   0.38264   0.83333   0.00000  Uiso   1.00
N1501  N     0.70714   0.41352   0.83142   0.00000  Uiso   1.00
H1502  H     0.69645   0.38965   0.80543   0.00000  Uiso   1.00
C1503  C     0.71367   0.39359   0.87987   0.00000  Uiso   1.00
H1504  H     0.68408   0.38306   0.89506   0.00000  Uiso   1.00
H1505  H     0.72951   0.41892   0.90532   0.00000  Uiso   1.00
H1506  H     0.73315   0.36252   0.87720   0.00000  Uiso   1.00
N1507  N     0.95953   0.58649   0.83521   0.00000  Uiso   1.00
H1508  H     0.97023   0.61037   0.86117   0.00000  Uiso   1.00
C1509  C     0.95298   0.60638   0.78675   0.00000  Uiso   1.00
H1510  H     0.98256   0.61692   0.77154   0.00000  Uiso   1.00
H1511  H     0.93349   0.63745   0.78941   0.00000  Uiso   1.00
H1512  H     0.93713   0.58104   0.76131   0.00000  Uiso   1.00
N1513  N     0.95591   0.41694   0.80929   0.00000  Uiso   1.00
H1514  H     0.96520   0.38675   0.82639   0.00000  Uiso   1.00
C1515  C     0.94760   0.41177   0.75680   0.00000  Uiso   1.00
H1516  H     0.97645   0.40643   0.73776   0.00000  Uiso   1.00
H1517  H     0.93207   0.44302   0.74161   0.00000  Uiso   1.00
H1518  H     0.92712   0.38130   0.74962   0.00000  Uiso   1.00
N1519  N     0.71076   0.58308   0.85732   0.00000  Uiso   1.00
H1520  H     0.70148   0.61325   0.84018   0.00000  Uiso   1.00
C1521  C     0.71907   0.58830   0.90980   0.00000  Uiso   1.00
H1522  H     0.69023   0.59394   0.92879   0.00000  Uiso   1.00
H1523  H     0.73975   0.61862   0.91692   0.00000  Uiso   1.00
H1524  H     0.73438   0.55694   0.92509   0.00000  Uiso   1.00
N1525  N     0.79666   0.38053   0.75344   0.00000  Uiso   1.00
O1526  O     0.75998   0.39674   0.75451   0.00000  Uiso   1.00
O1527  O     0.81434   0.37848   0.71159   0.00000  Uiso   1.00
N1528  N     0.87002   0.61947   0.91321   0.00000  Uiso   1.00
O1529  O     0.85234   0.62150   0.95507   0.00000  Uiso   1.00
O1530  O     0.90672   0.60332   0.91216   0.00000  Uiso   1.00
N1531  N     0.87550   0.38276   0.90916   0.00000  Uiso   1.00
O1532  O     0.91377   0.39259   0.90358   0.00000  Uiso   1.00
O1533  O     0.86148   0.38429   0.95316   0.00000  Uiso   1.00
N1534  N     0.79118   0.61724   0.75750   0.00000  Uiso   1.00
O1535  O     0.80521   0.61571   0.71351   0.00000  Uiso   1.00
O1536  O     0.75291   0.60741   0.76307   0.00000  Uiso   1.00
O1537  O     0.10655   0.87291   0.83333   0.00000  Uiso   1.00
O1538  O     0.22679   0.79375   0.83334   0.00000  Uiso   1.00
O1539  O     0.22679   0.87291   0.83334   0.00000  Uiso   1.00
O1540  O     0.10655   0.79375   0.83333   0.00000  Uiso   1.00
C1541  C     0.08750   0.83304   0.83555   0.00000  Uiso   1.00
C1542  C     0.24583   0.83363   0.83112   0.00000  Uiso   1.00
O1543  O     0.16667   0.87292   0.76280   0.00000  Uiso   1.00
O1544  O     0.16667   0.79375   0.90387   0.00000  Uiso   1.00
O1545  O     0.16667   0.87292   0.90387   0.00000  Uiso   1.00
O1546  O     0.16667   0.79375   0.76280   0.00000  Uiso   1.00
C1547  C     0.16659   0.83327   0.74028   0.00000  Uiso   1.00
C1548  C     0.16675   0.83340   0.92638   0.00000  Uiso   1.00
Cu1549 Cu    0.16667   0.88022   0.83333   0.00000  Uiso   1.00
Cu1550 Cu    0.16667   0.78645   0.83333   0.00000  Uiso   1.00
C1551  C     0.16664   0.83324   0.68854   0.00000  Uiso   1.00
C1552  C     0.16669   0.83342   0.97813   0.00000  Uiso   1.00
C1553  C     0.02035   0.79049   0.83088   0.00000  Uiso   1.00
C1554  C     0.31298   0.87618   0.83577   0.00000  Uiso   1.00
C1555  C     0.31125   0.79169   0.82337   0.00000  Uiso   1.00
C1556  C     0.02208   0.87498   0.84327   0.00000  Uiso   1.00
C1557  C     0.29059   0.83412   0.82877   0.00000  Uiso   1.00
C1558  C     0.04274   0.83255   0.83789   0.00000  Uiso   1.00
C1559  C     0.14782   0.69083   0.79545   0.00000  Uiso   1.00
C1560  C     0.18551   0.97583   0.87122   0.00000  Uiso   1.00
C1561  C     0.18611   0.69185   0.87076   0.00000  Uiso   1.00
C1562  C     0.14723   0.97481   0.79590   0.00000  Uiso   1.00
N1563  N     0.16667   0.95069   0.83333   0.00000  Uiso   1.00
N1564  N     0.16667   0.71598   0.83333   0.00000  Uiso   1.00
N1565  N     0.04047   0.74685   0.83142   0.00000  Uiso   1.00
H1566  H     0.02978   0.72299   0.80543   0.00000  Uiso   1.00
C1567  C     0.04700   0.72692   0.87987   0.00000  Uiso   1.00
H1568  H     0.01741   0.71639   0.89506   0.00000  Uiso   1.00
H1569  H     0.06285   0.75225   0.90532   0.00000  Uiso   1.00
H1570  H     0.06648   0.69585   0.87720   0.00000  Uiso   1.00
N1571  N     0.29286   0.91982   0.83521   0.00000  Uiso   1.00
H1572  H     0.30356   0.94370   0.86117   0.00000  Uiso   1.00
C1573  C     0.28631   0.93972   0.78675   0.00000  Uiso   1.00
H1574  H     0.31589   0.95025   0.77154   0.00000  Uiso   1.00
H1575  H     0.26682   0.97078   0.78941   0.00000  Uiso   1.00
H1576  H     0.27046   0.91437   0.76131   0.00000  Uiso   1.00
N1577  N     0.28924   0.75027   0.80929   0.00000  Uiso   1.00
H1578  H     0.29853   0.72008   0.82639   0.00000  Uiso   1.00
C1579  C     0.28093   0.74511   0.75680   0.00000  Uiso   1.00
H1580  H     0.30979   0.73977   0.73776   0.00000  Uiso   1.00
H1581  H     0.26541   0.77636   0.74161   0.00000  Uiso   1.00
H1582  H     0.26046   0.71464   0.74962   0.00000  Uiso   1.00
N1583  N     0.04409   0.91641   0.85732   0.00000  Uiso   1.00
H1584  H     0.03482   0.94658   0.84018   0.00000  Uiso   1.00
C1585  C     0.05240   0.92163   0.90980   0.00000  Uiso   1.00
H1586  H     0.02356   0.92728   0.92879   0.00000  Uiso   1.00
H1587  H     0.07308   0.95195   0.91692   0.00000  Uiso   1.00
H1588  H     0.06771   0.89027   0.92509   0.00000  Uiso   1.00
N1589  N     0.12999   0.71386   0.75344   0.00000  Uiso   1.00
O1590  O     0.09331   0.73008   0.75451   0.00000  Uiso   1.00
O1591  O     0.14767   0.71181   0.71159   0.00000  Uiso   1.00
N1592  N     0.20335   0.95280   0.91321   0.00000  Uiso   1.00
O1593  O     0.18567   0.95484   0.95507   0.00000  Uiso   1.00
O1594  O     0.24006   0.93665   0.91216   0.00000  Uiso   1.00
N1595  N     0.20883   0.71609   0.90916   0.00000  Uiso   1.00
O1596  O     0.24710   0.72592   0.90358   0.00000  Uiso   1.00
O1597  O     0.19481   0.71762   0.95316   0.00000  Uiso   1.00
N1598  N     0.12451   0.95057   0.75750   0.00000  Uiso   1.00
O1599  O     0.13854   0.94904   0.71351   0.00000  Uiso   1.00
O1600  O     0.08624   0.94074   0.76307   0.00000  Uiso   1.00
O1601  O     0.43988   0.87291   0.83333   0.00000  Uiso   1.00
O1602  O     0.56012   0.79375   0.83334   0.00000  Uiso   1.00
O1603  O     0.56012   0.87291   0.83334   0.00000  Uiso   1.00
O1604  O     0.43988   0.79375   0.83333   0.00000  Uiso   1.00
C1605  C     0.42084   0.83304   0.83555   0.00000  Uiso   1.00
C1606  C     0.57916   0.83363   0.83112   0.00000  Uiso   1.00
O1607  O     0.50000   0.87292   0.76280   0.00000  Uiso   1.00
O1608  O     0.50000   0.79375   0.90387   0.00000  Uiso   1.00
O1609  O     0.50000   0.87292   0.90387   0.00000  Uiso   1.00
O1610  O     0.50000   0.79375   0.76280   0.00000  Uiso   1.00
C1611  C     0.49992   0.83327   0.74028   0.00000  Uiso   1.00
C1612  C     0.50008   0.83340   0.92638   0.00000  Uiso   1.00
Cu1613 Cu    0.50000   0.88022   0.83333   0.00000  Uiso   1.00
Cu1614 Cu    0.50000   0.78645   0.83333   0.00000  Uiso   1.00
C1615  C     0.49998   0.83324   0.68854   0.00000  Uiso   1.00
C1616  C     0.50002   0.83342   0.97813   0.00000  Uiso   1.00
C1617  C     0.35368   0.79049   0.83088   0.00000  Uiso   1.00
C1618  C     0.64632   0.87618   0.83577   0.00000  Uiso   1.00
C1619  C     0.64458   0.79169   0.82337   0.00000  Uiso   1.00
C1620  C     0.35541   0.87498   0.84327   0.00000  Uiso   1.00
C1621  C     0.62393   0.83412   0.82877   0.00000  Uiso   1.00
C1622  C     0.37607   0.83255   0.83789   0.00000  Uiso   1.00
C1623  C     0.48116   0.69083   0.79545   0.00000  Uiso   1.00
C1624  C     0.51885   0.97583   0.87122   0.00000  Uiso   1.00
C1625  C     0.51944   0.69185   0.87076   0.00000  Uiso   1.00
C1626  C     0.48056   0.97481   0.79590   0.00000  Uiso   1.00
N1627  N     0.50000   0.95069   0.83333   0.00000  Uiso   1.00
N1628  N     0.50000   0.71598   0.83333   0.00000  Uiso   1.00
N1629  N     0.37380   0.74685   0.83142   0.00000  Uiso   1.00
H1630  H     0.36311   0.72299   0.80543   0.00000  Uiso   1.00
C1631  C     0.38033   0.72692   0.87987   0.00000  Uiso   1.00
H1632  H     0.35075   0.71639   0.89506   0.00000  Uiso   1.00
H1633  H     0.39618   0.75225   0.90532   0.00000  Uiso   1.00
H1634  H     0.39981   0.69585   0.87720   0.00000  Uiso   1.00
N1635  N     0.62619   0.91982   0.83521   0.00000  Uiso   1.00
H1636  H     0.63690   0.94370   0.86117   0.00000  Uiso   1.00
C1637  C     0.61965   0.93972   0.78675   0.00000  Uiso   1.00
H1638  H     0.64922   0.95025   0.77154   0.00000  Uiso   1.00
H1639  H     0.60016   0.97078   0.78941   0.00000  Uiso   1.00
H1640  H     0.60380   0.91437   0.76131   0.00000  Uiso   1.00
N1641  N     0.62258   0.75027   0.80929   0.00000  Uiso   1.00
H1642  H     0.63187   0.72008   0.82639   0.00000  Uiso   1.00
C1643  C     0.61426   0.74511   0.75680   0.00000  Uiso   1.00
H1644  H     0.64312   0.73977   0.73776   0.00000  Uiso   1.00
H1645  H     0.59874   0.77636   0.74161   0.00000  Uiso   1.00
H1646  H     0.59379   0.71464   0.74962   0.00000  Uiso   1.00
N1647  N     0.37742   0.91641   0.85732   0.00000  Uiso   1.00
H1648  H     0.36815   0.94658   0.84018   0.00000  Uiso   1.00
C1649  C     0.38573   0.92163   0.90980   0.00000  Uiso   1.00
H1650  H     0.35689   0.92728   0.92879   0.00000  Uiso   1.00
H1651  H     0.40641   0.95195   0.91692   0.00000  Uiso   1.00
H1652  H     0.40104   0.89027   0.92509   0.00000  Uiso   1.00
N1653  N     0.46333   0.71386   0.75344   0.00000  Uiso   1.00
O1654  O     0.42665   0.73008   0.75451   0.00000  Uiso   1.00
O1655  O     0.48100   0.71181   0.71159   0.00000  Uiso   1.00
N1656  N     0.53669   0.95280   0.91321   0.00000  Uiso   1.00
O1657  O     0.51901   0.95484   0.95507   0.00000  Uiso   1.00
O1658  O     0.57339   0.93665   0.91216   0.00000  Uiso   1.00
N1659  N     0.54217   0.71609   0.90916   0.00000  Uiso   1.00
O1660  O     0.58044   0.72592   0.90358   0.00000  Uiso   1.00
O1661  O     0.52815   0.71762   0.95316   0.00000  Uiso   1.00
N1662  N     0.45785   0.95057   0.75750   0.00000  Uiso   1.00
O1663  O     0.47188   0.94904   0.71351   0.00000  Uiso   1.00
O1664  O     0.41957   0.94074   0.76307   0.00000  Uiso   1.00
O1665  O     0.77321   0.87291   0.83333   0.00000  Uiso   1.00
O1666  O     0.89345   0.79375   0.83334   0.00000  Uiso   1.00
O1667  O     0.89345   0.87291   0.83334   0.00000  Uiso   1.00
O1668  O     0.77321   0.79375   0.83333   0.00000  Uiso   1.00
C1669  C     0.75417   0.83304   0.83555   0.00000  Uiso   1.00
C1670  C     0.91250   0.83363   0.83112   0.00000  Uiso   1.00
O1671  O     0.83333   0.87292   0.76280   0.00000  Uiso   1.00
O1672  O     0.83333   0.79375   0.90387   0.00000  Uiso   1.00
O1673  O     0.83333   0.87292   0.90387   0.00000  Uiso   1.00
O1674  O     0.83333   0.79375   0.76280   0.00000  Uiso   1.00
C1675  C     0.83325   0.83327   0.74028   0.00000  Uiso   1.00
C1676  C     0.83341   0.83340   0.92638   0.00000  Uiso   1.00
Cu1677 Cu    0.83333   0.88022   0.83333   0.00000  Uiso   1.00
Cu1678 Cu    0.83333   0.78645   0.83333   0.00000  Uiso   1.00
C1679  C     0.83331   0.83324   0.68854   0.00000  Uiso   1.00
C1680  C     0.83336   0.83342   0.97813   0.00000  Uiso   1.00
C1681  C     0.68701   0.79049   0.83088   0.00000  Uiso   1.00
C1682  C     0.97965   0.87618   0.83577   0.00000  Uiso   1.00
C1683  C     0.97792   0.79169   0.82337   0.00000  Uiso   1.00
C1684  C     0.68875   0.87498   0.84327   0.00000  Uiso   1.00
C1685  C     0.95726   0.83412   0.82877   0.00000  Uiso   1.00
C1686  C     0.70940   0.83255   0.83789   0.00000  Uiso   1.00
C1687  C     0.81449   0.69083   0.79545   0.00000  Uiso   1.00
C1688  C     0.85218   0.97583   0.87122   0.00000  Uiso   1.00
C1689  C     0.85277   0.69185   0.87076   0.00000  Uiso   1.00
C1690  C     0.81390   0.97481   0.79590   0.00000  Uiso   1.00
N1691  N     0.83333   0.95069   0.83333   0.00000  Uiso   1.00
N1692  N     0.83333   0.71598   0.83333   0.00000  Uiso   1.00
N1693  N     0.70714   0.74685   0.83142   0.00000  Uiso   1.00
H1694  H     0.69645   0.72299   0.80543   0.00000  Uiso   1.00
C1695  C     0.71367   0.72692   0.87987   0.00000  Uiso   1.00
H1696  H     0.68408   0.71639   0.89506   0.00000  Uiso   1.00
H1697  H     0.72951   0.75225   0.90532   0.00000  Uiso   1.00
H1698  H     0.73315   0.69585   0.87720   0.00000  Uiso   1.00
N1699  N     0.95953   0.91982   0.83521   0.00000  Uiso   1.00
H1700  H     0.97023   0.94370   0.86117   0.00000  Uiso   1.00
C1701  C     0.95298   0.93972   0.78675   0.00000  Uiso   1.00
H1702  H     0.98256   0.95025   0.77154   0.00000  Uiso   1.00
H1703  H     0.93349   0.97078   0.78941   0.00000  Uiso   1.00
H1704  H     0.93713   0.91437   0.76131   0.00000  Uiso   1.00
N1705  N     0.95591   0.75027   0.80929   0.00000  Uiso   1.00
H1706  H     0.96520   0.72008   0.82639   0.00000  Uiso   1.00
C1707  C     0.94760   0.74511   0.75680   0.00000  Uiso   1.00
H1708  H     0.97645   0.73977   0.73776   0.00000  Uiso   1.00
H1709  H     0.93207   0.77636   0.74161   0.00000  Uiso   1.00
H1710  H     0.92712   0.71464   0.74962   0.00000  Uiso   1.00
N1711  N     0.71076   0.91641   0.85732   0.00000  Uiso   1.00
H1712  H     0.70148   0.94658   0.84018   0.00000  Uiso   1.00
C1713  C     0.71907   0.92163   0.90980   0.00000  Uiso   1.00
H1714  H     0.69023   0.92728   0.92879   0.00000  Uiso   1.00
H1715  H     0.73975   0.95195   0.91692   0.00000  Uiso   1.00
H1716  H     0.73438   0.89027   0.92509   0.00000  Uiso   1.00
N1717  N     0.79666   0.71386   0.75344   0.00000  Uiso   1.00
O1718  O     0.75998   0.73008   0.75451   0.00000  Uiso   1.00
O1719  O     0.81434   0.71181   0.71159   0.00000  Uiso   1.00
N1720  N     0.87002   0.95280   0.91321   0.00000  Uiso   1.00
O1721  O     0.85234   0.95484   0.95507   0.00000  Uiso   1.00
O1722  O     0.90672   0.93665   0.91216   0.00000  Uiso   1.00
N1723  N     0.87550   0.71609   0.90916   0.00000  Uiso   1.00
O1724  O     0.91377   0.72592   0.90358   0.00000  Uiso   1.00
O1725  O     0.86148   0.71762   0.95316   0.00000  Uiso   1.00
N1726  N     0.79118   0.95057   0.75750   0.00000  Uiso   1.00
O1727  O     0.80521   0.94904   0.71351   0.00000  Uiso   1.00
O1728  O     0.75291   0.94074   0.76307   0.00000  Uiso   1.00
loop_
_geom_bond_atom_site_label_1
_geom_bond_atom_site_label_2
_geom_bond_distance
_geom_bond_site_symmetry_2
_ccdc_geom_bond_type
O1     C5      1.303   .     A
O1     Cu13    1.982   .     S
O2     C6      1.303   .     A
O2     Cu14    1.982   .     S
O3     Cu13    1.987   .     S
O3     C6      1.301   .     A
O4     Cu14    1.987   .     S
O4     C5      1.301   .     A
C5     C22     1.473   .     S
C6     C21     1.473   .     S
O7     C11     1.293   .     A
O7     Cu13    1.927   .     S
O8     C12     1.293   .     A
O8     Cu14    1.927   .     S
O9     C12     1.294   .     A
O9     Cu13    1.929   .     S
O10    C11     1.294   .     A
O10    Cu14    1.929   .     S
C11    C15     1.406   .     S
C12    C16     1.406   .     S
Cu13   Cu14    2.700   .     S
Cu13   N27     2.029   .     S
Cu14   N28     2.029   .     S
C15    C1168   1.189   1_554 S
C16    C591    1.189   .     S
C17    N29     1.426   .     S
C17    C22     1.417   .     A
C17    C147    1.399   1_455 S
C18    C21     1.417   .     A
C18    N35     1.426   .     S
C18    C84     1.399   .     S
C19    C21     1.415   .     A
C19    N41     1.428   .     S
C19    C81     1.399   .     S
C20    C22     1.415   .     A
C20    N47     1.428   .     S
C20    C146    1.399   1_455 S
C23    N53     1.429   .     S
C23    N28     1.376   .     A
C23    C410    1.421   1_545 S
C24    N56     1.429   .     S
C24    N27     1.376   .     A
C24    C217    1.421   .     S
C25    N28     1.372   .     A
C25    N59     1.430   .     S
C25    C408    1.421   1_545 S
C26    N62     1.430   .     S
C26    N27     1.372   .     A
C26    C215    1.421   .     S
N29    H30     1.030   .     S
N29    C31     1.447   .     S
C31    H33     1.111   .     S
C31    H34     1.110   .     S
C31    H32     1.111   .     S
N35    C37     1.447   .     S
N35    H36     1.030   .     S
C37    H39     1.110   .     S
C37    H38     1.111   .     S
C37    H40     1.111   .     S
N41    H42     1.030   .     S
N41    C43     1.447   .     S
C43    H44     1.111   .     S
C43    H45     1.111   .     S
C43    H46     1.110   .     S
N47    C49     1.447   .     S
N47    H48     1.030   .     S
C49    H52     1.112   .     S
C49    H50     1.111   .     S
C49    H51     1.110   .     S
N53    O54     1.298   .     A
N53    O55     1.301   .     A
N56    O58     1.298   .     A
N56    O57     1.301   .     A
N59    O60     1.300   .     A
N59    O61     1.301   .     A
N62    O64     1.300   .     A
N62    O63     1.301   .     A
O65    C69     1.303   .     A
O65    Cu77    1.982   .     S
O66    C70     1.303   .     A
O66    Cu78    1.982   .     S
O67    Cu77    1.987   .     S
O67    C70     1.301   .     A
O68    Cu78    1.987   .     S
O68    C69     1.301   .     A
C69    C86     1.473   .     S
C70    C85     1.473   .     S
O71    C75     1.293   .     A
O71    Cu77    1.927   .     S
O72    C76     1.293   .     A
O72    Cu78    1.927   .     S
O73    C76     1.294   .     A
O73    Cu77    1.929   .     S
O74    C75     1.294   .     A
O74    Cu78    1.929   .     S
C75    C79     1.406   .     S
C76    C80     1.406   .     S
Cu77   Cu78    2.700   .     S
Cu77   N91     2.029   .     S
Cu78   N92     2.029   .     S
C79    C1232   1.189   1_554 S
C80    C655    1.189   .     S
C81    N93     1.426   .     S
C81    C86     1.417   .     A
C82    C85     1.417   .     A
C82    N99     1.426   .     S
C82    C148    1.399   .     S
C83    C85     1.415   .     A
C83    N105    1.428   .     S
C83    C145    1.399   .     S
C84    C86     1.415   .     A
C84    N111    1.428   .     S
C87    N117    1.429   .     S
C87    N92     1.376   .     A
C87    C474    1.421   1_545 S
C88    N120    1.429   .     S
C88    N91     1.376   .     A
C88    C281    1.421   .     S
C89    N92     1.372   .     A
C89    N123    1.430   .     S
C89    C472    1.421   1_545 S
C90    N126    1.430   .     S
C90    N91     1.372   .     A
C90    C279    1.421   .     S
N93    H94     1.030   .     S
N93    C95     1.447   .     S
C95    H97     1.111   .     S
C95    H98     1.110   .     S
C95    H96     1.111   .     S
N99    C101    1.447   .     S
N99    H100    1.030   .     S
C101   H103    1.110   .     S
C101   H102    1.111   .     S
C101   H104    1.111   .     S
N105   H106    1.030   .     S
N105   C107    1.447   .     S
C107   H108    1.111   .     S
C107   H109    1.111   .     S
C107   H110    1.110   .     S
N111   C113    1.447   .     S
N111   H112    1.030   .     S
C113   H116    1.112   .     S
C113   H114    1.111   .     S
C113   H115    1.110   .     S
N117   O118    1.298   .     A
N117   O119    1.301   .     A
N120   O122    1.298   .     A
N120   O121    1.301   .     A
N123   O124    1.300   .     A
N123   O125    1.301   .     A
N126   O128    1.300   .     A
N126   O127    1.301   .     A
O129   C133    1.303   .     A
O129   Cu141   1.982   .     S
O130   C134    1.303   .     A
O130   Cu142   1.982   .     S
O131   Cu141   1.987   .     S
O131   C134    1.301   .     A
O132   Cu142   1.987   .     S
O132   C133    1.301   .     A
C133   C150    1.473   .     S
C134   C149    1.473   .     S
O135   C139    1.293   .     A
O135   Cu141   1.927   .     S
O136   C140    1.293   .     A
O136   Cu142   1.927   .     S
O137   C140    1.294   .     A
O137   Cu141   1.929   .     S
O138   C139    1.294   .     A
O138   Cu142   1.929   .     S
C139   C143    1.406   .     S
C140   C144    1.406   .     S
Cu141  Cu142   2.700   .     S
Cu141  N155    2.029   .     S
Cu142  N156    2.029   .     S
C143   C1296   1.189   1_554 S
C144   C719    1.189   .     S
C145   N157    1.426   .     S
C145   C150    1.417   .     A
C146   C149    1.417   .     A
C146   N163    1.426   .     S
C146   C20     1.399   1_655 S
C147   C149    1.415   .     A
C147   N169    1.428   .     S
C147   C17     1.399   1_655 S
C148   C150    1.415   .     A
C148   N175    1.428   .     S
C151   N181    1.429   .     S
C151   N156    1.376   .     A
C151   C538    1.421   1_545 S
C152   N184    1.429   .     S
C152   N155    1.376   .     A
C152   C345    1.421   .     S
C153   N156    1.372   .     A
C153   N187    1.430   .     S
C153   C536    1.421   1_545 S
C154   N190    1.430   .     S
C154   N155    1.372   .     A
C154   C343    1.421   .     S
N157   H158    1.030   .     S
N157   C159    1.447   .     S
C159   H161    1.111   .     S
C159   H162    1.110   .     S
C159   H160    1.111   .     S
N163   C165    1.447   .     S
N163   H164    1.030   .     S
C165   H167    1.110   .     S
C165   H166    1.111   .     S
C165   H168    1.111   .     S
N169   H170    1.030   .     S
N169   C171    1.447   .     S
C171   H172    1.111   .     S
C171   H173    1.111   .     S
C171   H174    1.110   .     S
N175   C177    1.447   .     S
N175   H176    1.030   .     S
C177   H180    1.112   .     S
C177   H178    1.111   .     S
C177   H179    1.110   .     S
N181   O182    1.298   .     A
N181   O183    1.301   .     A
N184   O186    1.298   .     A
N184   O185    1.301   .     A
N187   O188    1.300   .     A
N187   O189    1.301   .     A
N190   O192    1.300   .     A
N190   O191    1.301   .     A
O193   C197    1.303   .     A
O193   Cu205   1.982   .     S
O194   C198    1.303   .     A
O194   Cu206   1.982   .     S
O195   Cu205   1.987   .     S
O195   C198    1.301   .     A
O196   Cu206   1.987   .     S
O196   C197    1.301   .     A
C197   C214    1.473   .     S
C198   C213    1.473   .     S
O199   C203    1.293   .     A
O199   Cu205   1.927   .     S
O200   C204    1.293   .     A
O200   Cu206   1.927   .     S
O201   C204    1.294   .     A
O201   Cu205   1.929   .     S
O202   C203    1.294   .     A
O202   Cu206   1.929   .     S
C203   C207    1.406   .     S
C204   C208    1.406   .     S
Cu205  Cu206   2.700   .     S
Cu205  N219    2.029   .     S
Cu206  N220    2.029   .     S
C207   C1360   1.189   1_554 S
C208   C783    1.189   .     S
C209   N221    1.426   .     S
C209   C214    1.417   .     A
C209   C339    1.399   1_455 S
C210   C213    1.417   .     A
C210   N227    1.426   .     S
C210   C276    1.399   .     S
C211   C213    1.415   .     A
C211   N233    1.428   .     S
C211   C273    1.399   .     S
C212   C214    1.415   .     A
C212   N239    1.428   .     S
C212   C338    1.399   1_455 S
C215   N245    1.429   .     S
C215   N220    1.376   .     A
C216   N248    1.429   .     S
C216   N219    1.376   .     A
C216   C409    1.421   .     S
C217   N220    1.372   .     A
C217   N251    1.430   .     S
C218   N254    1.430   .     S
C218   N219    1.372   .     A
C218   C407    1.421   .     S
N221   H222    1.030   .     S
N221   C223    1.447   .     S
C223   H225    1.111   .     S
C223   H226    1.110   .     S
C223   H224    1.111   .     S
N227   C229    1.447   .     S
N227   H228    1.030   .     S
C229   H231    1.110   .     S
C229   H230    1.111   .     S
C229   H232    1.111   .     S
N233   H234    1.030   .     S
N233   C235    1.447   .     S
C235   H236    1.111   .     S
C235   H237    1.111   .     S
C235   H238    1.110   .     S
N239   C241    1.447   .     S
N239   H240    1.030   .     S
C241   H244    1.112   .     S
C241   H242    1.111   .     S
C241   H243    1.110   .     S
N245   O246    1.298   .     A
N245   O247    1.301   .     A
N248   O250    1.298   .     A
N248   O249    1.301   .     A
N251   O252    1.300   .     A
N251   O253    1.301   .     A
N254   O256    1.300   .     A
N254   O255    1.301   .     A
O257   C261    1.303   .     A
O257   Cu269   1.982   .     S
O258   C262    1.303   .     A
O258   Cu270   1.982   .     S
O259   Cu269   1.987   .     S
O259   C262    1.301   .     A
O260   Cu270   1.987   .     S
O260   C261    1.301   .     A
C261   C278    1.473   .     S
C262   C277    1.473   .     S
O263   C267    1.293   .     A
O263   Cu269   1.927   .     S
O264   C268    1.293   .     A
O264   Cu270   1.927   .     S
O265   C268    1.294   .     A
O265   Cu269   1.929   .     S
O266   C267    1.294   .     A
O266   Cu270   1.929   .     S
C267   C271    1.406   .     S
C268   C272    1.406   .     S
Cu269  Cu270   2.700   .     S
Cu269  N283    2.029   .     S
Cu270  N284    2.029   .     S
C271   C1424   1.189   1_554 S
C272   C847    1.189   .     S
C273   N285    1.426   .     S
C273   C278    1.417   .     A
C274   C277    1.417   .     A
C274   N291    1.426   .     S
C274   C340    1.399   .     S
C275   C277    1.415   .     A
C275   N297    1.428   .     S
C275   C337    1.399   .     S
C276   C278    1.415   .     A
C276   N303    1.428   .     S
C279   N309    1.429   .     S
C279   N284    1.376   .     A
C280   N312    1.429   .     S
C280   N283    1.376   .     A
C280   C473    1.421   .     S
C281   N284    1.372   .     A
C281   N315    1.430   .     S
C282   N318    1.430   .     S
C282   N283    1.372   .     A
C282   C471    1.421   .     S
N285   H286    1.030   .     S
N285   C287    1.447   .     S
C287   H289    1.111   .     S
C287   H290    1.110   .     S
C287   H288    1.111   .     S
N291   C293    1.447   .     S
N291   H292    1.030   .     S
C293   H295    1.110   .     S
C293   H294    1.111   .     S
C293   H296    1.111   .     S
N297   H298    1.030   .     S
N297   C299    1.447   .     S
C299   H300    1.111   .     S
C299   H301    1.111   .     S
C299   H302    1.110   .     S
N303   C305    1.447   .     S
N303   H304    1.030   .     S
C305   H308    1.112   .     S
C305   H306    1.111   .     S
C305   H307    1.110   .     S
N309   O310    1.298   .     A
N309   O311    1.301   .     A
N312   O314    1.298   .     A
N312   O313    1.301   .     A
N315   O316    1.300   .     A
N315   O317    1.301   .     A
N318   O320    1.300   .     A
N318   O319    1.301   .     A
O321   C325    1.303   .     A
O321   Cu333   1.982   .     S
O322   C326    1.303   .     A
O322   Cu334   1.982   .     S
O323   Cu333   1.987   .     S
O323   C326    1.301   .     A
O324   Cu334   1.987   .     S
O324   C325    1.301   .     A
C325   C342    1.473   .     S
C326   C341    1.473   .     S
O327   C331    1.293   .     A
O327   Cu333   1.927   .     S
O328   C332    1.293   .     A
O328   Cu334   1.927   .     S
O329   C332    1.294   .     A
O329   Cu333   1.929   .     S
O330   C331    1.294   .     A
O330   Cu334   1.929   .     S
C331   C335    1.406   .     S
C332   C336    1.406   .     S
Cu333  Cu334   2.700   .     S
Cu333  N347    2.029   .     S
Cu334  N348    2.029   .     S
C335   C1488   1.189   1_554 S
C336   C911    1.189   .     S
C337   N349    1.426   .     S
C337   C342    1.417   .     A
C338   C341    1.417   .     A
C338   N355    1.426   .     S
C338   C212    1.399   1_655 S
C339   C341    1.415   .     A
C339   N361    1.428   .     S
C339   C209    1.399   1_655 S
C340   C342    1.415   .     A
C340   N367    1.428   .     S
C343   N373    1.429   .     S
C343   N348    1.376   .     A
C344   N376    1.429   .     S
C344   N347    1.376   .     A
C344   C537    1.421   .     S
C345   N348    1.372   .     A
C345   N379    1.430   .     S
C346   N382    1.430   .     S
C346   N347    1.372   .     A
C346   C535    1.421   .     S
N349   H350    1.030   .     S
N349   C351    1.447   .     S
C351   H353    1.111   .     S
C351   H354    1.110   .     S
C351   H352    1.111   .     S
N355   C357    1.447   .     S
N355   H356    1.030   .     S
C357   H359    1.110   .     S
C357   H358    1.111   .     S
C357   H360    1.111   .     S
N361   H362    1.030   .     S
N361   C363    1.447   .     S
C363   H364    1.111   .     S
C363   H365    1.111   .     S
C363   H366    1.110   .     S
N367   C369    1.447   .     S
N367   H368    1.030   .     S
C369   H372    1.112   .     S
C369   H370    1.111   .     S
C369   H371    1.110   .     S
N373   O374    1.298   .     A
N373   O375    1.301   .     A
N376   O378    1.298   .     A
N376   O377    1.301   .     A
N379   O380    1.300   .     A
N379   O381    1.301   .     A
N382   O384    1.300   .     A
N382   O383    1.301   .     A
O385   C389    1.303   .     A
O385   Cu397   1.982   .     S
O386   C390    1.303   .     A
O386   Cu398   1.982   .     S
O387   Cu397   1.987   .     S
O387   C390    1.301   .     A
O388   Cu398   1.987   .     S
O388   C389    1.301   .     A
C389   C406    1.473   .     S
C390   C405    1.473   .     S
O391   C395    1.293   .     A
O391   Cu397   1.927   .     S
O392   C396    1.293   .     A
O392   Cu398   1.927   .     S
O393   C396    1.294   .     A
O393   Cu397   1.929   .     S
O394   C395    1.294   .     A
O394   Cu398   1.929   .     S
C395   C399    1.406   .     S
C396   C400    1.406   .     S
Cu397  Cu398   2.700   .     S
Cu397  N411    2.029   .     S
Cu398  N412    2.029   .     S
C399   C1552   1.189   1_554 S
C400   C975    1.189   .     S
C401   N413    1.426   .     S
C401   C406    1.417   .     A
C401   C531    1.399   1_455 S
C402   C405    1.417   .     A
C402   N419    1.426   .     S
C402   C468    1.399   .     S
C403   C405    1.415   .     A
C403   N425    1.428   .     S
C403   C465    1.399   .     S
C404   C406    1.415   .     A
C404   N431    1.428   .     S
C404   C530    1.399   1_455 S
C407   N437    1.429   .     S
C407   N412    1.376   .     A
C408   N440    1.429   .     S
C408   N411    1.376   .     A
C408   C25     1.421   1_565 S
C409   N412    1.372   .     A
C409   N443    1.430   .     S
C410   N446    1.430   .     S
C410   N411    1.372   .     A
C410   C23     1.421   1_565 S
N413   H414    1.030   .     S
N413   C415    1.447   .     S
C415   H417    1.111   .     S
C415   H418    1.110   .     S
C415   H416    1.111   .     S
N419   C421    1.447   .     S
N419   H420    1.030   .     S
C421   H423    1.110   .     S
C421   H422    1.111   .     S
C421   H424    1.111   .     S
N425   H426    1.030   .     S
N425   C427    1.447   .     S
C427   H428    1.111   .     S
C427   H429    1.111   .     S
C427   H430    1.110   .     S
N431   C433    1.447   .     S
N431   H432    1.030   .     S
C433   H436    1.112   .     S
C433   H434    1.111   .     S
C433   H435    1.110   .     S
N437   O438    1.298   .     A
N437   O439    1.301   .     A
N440   O442    1.298   .     A
N440   O441    1.301   .     A
N443   O444    1.300   .     A
N443   O445    1.301   .     A
N446   O448    1.300   .     A
N446   O447    1.301   .     A
O449   C453    1.303   .     A
O449   Cu461   1.982   .     S
O450   C454    1.303   .     A
O450   Cu462   1.982   .     S
O451   Cu461   1.987   .     S
O451   C454    1.301   .     A
O452   Cu462   1.987   .     S
O452   C453    1.301   .     A
C453   C470    1.473   .     S
C454   C469    1.473   .     S
O455   C459    1.293   .     A
O455   Cu461   1.927   .     S
O456   C460    1.293   .     A
O456   Cu462   1.927   .     S
O457   C460    1.294   .     A
O457   Cu461   1.929   .     S
O458   C459    1.294   .     A
O458   Cu462   1.929   .     S
C459   C463    1.406   .     S
C460   C464    1.406   .     S
Cu461  Cu462   2.700   .     S
Cu461  N475    2.029   .     S
Cu462  N476    2.029   .     S
C463   C1616   1.189   1_554 S
C464   C1039   1.189   .     S
C465   N477    1.426   .     S
C465   C470    1.417   .     A
C466   C469    1.417   .     A
C466   N483    1.426   .     S
C466   C532    1.399   .     S
C467   C469    1.415   .     A
C467   N489    1.428   .     S
C467   C529    1.399   .     S
C468   C470    1.415   .     A
C468   N495    1.428   .     S
C471   N501    1.429   .     S
C471   N476    1.376   .     A
C472   N504    1.429   .     S
C472   N475    1.376   .     A
C472   C89     1.421   1_565 S
C473   N476    1.372   .     A
C473   N507    1.430   .     S
C474   N510    1.430   .     S
C474   N475    1.372   .     A
C474   C87     1.421   1_565 S
N477   H478    1.030   .     S
N477   C479    1.447   .     S
C479   H481    1.111   .     S
C479   H482    1.110   .     S
C479   H480    1.111   .     S
N483   C485    1.447   .     S
N483   H484    1.030   .     S
C485   H487    1.110   .     S
C485   H486    1.111   .     S
C485   H488    1.111   .     S
N489   H490    1.030   .     S
N489   C491    1.447   .     S
C491   H492    1.111   .     S
C491   H493    1.111   .     S
C491   H494    1.110   .     S
N495   C497    1.447   .     S
N495   H496    1.030   .     S
C497   H500    1.112   .     S
C497   H498    1.111   .     S
C497   H499    1.110   .     S
N501   O502    1.298   .     A
N501   O503    1.301   .     A
N504   O506    1.298   .     A
N504   O505    1.301   .     A
N507   O508    1.300   .     A
N507   O509    1.301   .     A
N510   O512    1.300   .     A
N510   O511    1.301   .     A
O513   C517    1.303   .     A
O513   Cu525   1.982   .     S
O514   C518    1.303   .     A
O514   Cu526   1.982   .     S
O515   Cu525   1.987   .     S
O515   C518    1.301   .     A
O516   Cu526   1.987   .     S
O516   C517    1.301   .     A
C517   C534    1.473   .     S
C518   C533    1.473   .     S
O519   C523    1.293   .     A
O519   Cu525   1.927   .     S
O520   C524    1.293   .     A
O520   Cu526   1.927   .     S
O521   C524    1.294   .     A
O521   Cu525   1.929   .     S
O522   C523    1.294   .     A
O522   Cu526   1.929   .     S
C523   C527    1.406   .     S
C524   C528    1.406   .     S
Cu525  Cu526   2.700   .     S
Cu525  N539    2.029   .     S
Cu526  N540    2.029   .     S
C527   C1680   1.189   1_554 S
C528   C1103   1.189   .     S
C529   N541    1.426   .     S
C529   C534    1.417   .     A
C530   C533    1.417   .     A
C530   N547    1.426   .     S
C530   C404    1.399   1_655 S
C531   C533    1.415   .     A
C531   N553    1.428   .     S
C531   C401    1.399   1_655 S
C532   C534    1.415   .     A
C532   N559    1.428   .     S
C535   N565    1.429   .     S
C535   N540    1.376   .     A
C536   N568    1.429   .     S
C536   N539    1.376   .     A
C536   C153    1.421   1_565 S
C537   N540    1.372   .     A
C537   N571    1.430   .     S
C538   N574    1.430   .     S
C538   N539    1.372   .     A
C538   C151    1.421   1_565 S
N541   H542    1.030   .     S
N541   C543    1.447   .     S
C543   H545    1.111   .     S
C543   H546    1.110   .     S
C543   H544    1.111   .     S
N547   C549    1.447   .     S
N547   H548    1.030   .     S
C549   H551    1.110   .     S
C549   H550    1.111   .     S
C549   H552    1.111   .     S
N553   H554    1.030   .     S
N553   C555    1.447   .     S
C555   H556    1.111   .     S
C555   H557    1.111   .     S
C555   H558    1.110   .     S
N559   C561    1.447   .     S
N559   H560    1.030   .     S
C561   H564    1.112   .     S
C561   H562    1.111   .     S
C561   H563    1.110   .     S
N565   O566    1.298   .     A
N565   O567    1.301   .     A
N568   O570    1.298   .     A
N568   O569    1.301   .     A
N571   O572    1.300   .     A
N571   O573    1.301   .     A
N574   O576    1.300   .     A
N574   O575    1.301   .     A
O577   C581    1.303   .     A
O577   Cu589   1.982   .     S
O578   C582    1.303   .     A
O578   Cu590   1.982   .     S
O579   Cu589   1.987   .     S
O579   C582    1.301   .     A
O580   Cu590   1.987   .     S
O580   C581    1.301   .     A
C581   C598    1.473   .     S
C582   C597    1.473   .     S
O583   C587    1.293   .     A
O583   Cu589   1.927   .     S
O584   C588    1.293   .     A
O584   Cu590   1.927   .     S
O585   C588    1.294   .     A
O585   Cu589   1.929   .     S
O586   C587    1.294   .     A
O586   Cu590   1.929   .     S
C587   C591    1.406   .     S
C588   C592    1.406   .     S
Cu589  Cu590   2.700   .     S
Cu589  N603    2.029   .     S
Cu590  N604    2.029   .     S
C592   C1167   1.189   .     S
C593   N605    1.426   .     S
C593   C598    1.417   .     A
C593   C723    1.399   1_455 S
C594   C597    1.417   .     A
C594   N611    1.426   .     S
C594   C660    1.399   .     S
C595   C597    1.415   .     A
C595   N617    1.428   .     S
C595   C657    1.399   .     S
C596   C598    1.415   .     A
C596   N623    1.428   .     S
C596   C722    1.399   1_455 S
C599   N629    1.429   .     S
C599   N604    1.376   .     A
C599   C986    1.421   1_545 S
C600   N632    1.429   .     S
C600   N603    1.376   .     A
C600   C793    1.421   .     S
C601   N604    1.372   .     A
C601   N635    1.430   .     S
C601   C984    1.421   1_545 S
C602   N638    1.430   .     S
C602   N603    1.372   .     A
C602   C791    1.421   .     S
N605   H606    1.030   .     S
N605   C607    1.447   .     S
C607   H609    1.111   .     S
C607   H610    1.110   .     S
C607   H608    1.111   .     S
N611   C613    1.447   .     S
N611   H612    1.030   .     S
C613   H615    1.110   .     S
C613   H614    1.111   .     S
C613   H616    1.111   .     S
N617   H618    1.030   .     S
N617   C619    1.447   .     S
C619   H620    1.111   .     S
C619   H621    1.111   .     S
C619   H622    1.110   .     S
N623   C625    1.447   .     S
N623   H624    1.030   .     S
C625   H628    1.112   .     S
C625   H626    1.111   .     S
C625   H627    1.110   .     S
N629   O630    1.298   .     A
N629   O631    1.301   .     A
N632   O634    1.298   .     A
N632   O633    1.301   .     A
N635   O636    1.300   .     A
N635   O637    1.301   .     A
N638   O640    1.300   .     A
N638   O639    1.301   .     A
O641   C645    1.303   .     A
O641   Cu653   1.982   .     S
O642   C646    1.303   .     A
O642   Cu654   1.982   .     S
O643   Cu653   1.987   .     S
O643   C646    1.301   .     A
O644   Cu654   1.987   .     S
O644   C645    1.301   .     A
C645   C662    1.473   .     S
C646   C661    1.473   .     S
O647   C651    1.293   .     A
O647   Cu653   1.927   .     S
O648   C652    1.293   .     A
O648   Cu654   1.927   .     S
O649   C652    1.294   .     A
O649   Cu653   1.929   .     S
O650   C651    1.294   .     A
O650   Cu654   1.929   .     S
C651   C655    1.406   .     S
C652   C656    1.406   .     S
Cu653  Cu654   2.700   .     S
Cu653  N667    2.029   .     S
Cu654  N668    2.029   .     S
C656   C1231   1.189   .     S
C657   N669    1.426   .     S
C657   C662    1.417   .     A
C658   C661    1.417   .     A
C658   N675    1.426   .     S
C658   C724    1.399   .     S
C659   C661    1.415   .     A
C659   N681    1.428   .     S
C659   C721    1.399   .     S
C660   C662    1.415   .     A
C660   N687    1.428   .     S
C663   N693    1.429   .     S
C663   N668    1.376   .     A
C663   C1050   1.421   1_545 S
C664   N696    1.429   .     S
C664   N667    1.376   .     A
C664   C857    1.421   .     S
C665   N668    1.372   .     A
C665   N699    1.430   .     S
C665   C1048   1.421   1_545 S
C666   N702    1.430   .     S
C666   N667    1.372   .     A
C666   C855    1.421   .     S
N669   H670    1.030   .     S
N669   C671    1.447   .     S
C671   H673    1.111   .     S
C671   H674    1.110   .     S
C671   H672    1.111   .     S
N675   C677    1.447   .     S
N675   H676    1.030   .     S
C677   H679    1.110   .     S
C677   H678    1.111   .     S
C677   H680    1.111   .     S
N681   H682    1.030   .     S
N681   C683    1.447   .     S
C683   H684    1.111   .     S
C683   H685    1.111   .     S
C683   H686    1.110   .     S
N687   C689    1.447   .     S
N687   H688    1.030   .     S
C689   H692    1.112   .     S
C689   H690    1.111   .     S
C689   H691    1.110   .     S
N693   O694    1.298   .     A
N693   O695    1.301   .     A
N696   O698    1.298   .     A
N696   O697    1.301   .     A
N699   O700    1.300   .     A
N699   O701    1.301   .     A
N702   O704    1.300   .     A
N702   O703    1.301   .     A
O705   C709    1.303   .     A
O705   Cu717   1.982   .     S
O706   C710    1.303   .     A
O706   Cu718   1.982   .     S
O707   Cu717   1.987   .     S
O707   C710    1.301   .     A
O708   Cu718   1.987   .     S
O708   C709    1.301   .     A
C709   C726    1.473   .     S
C710   C725    1.473   .     S
O711   C715    1.293   .     A
O711   Cu717   1.927   .     S
O712   C716    1.293   .     A
O712   Cu718   1.927   .     S
O713   C716    1.294   .     A
O713   Cu717   1.929   .     S
O714   C715    1.294   .     A
O714   Cu718   1.929   .     S
C715   C719    1.406   .     S
C716   C720    1.406   .     S
Cu717  Cu718   2.700   .     S
Cu717  N731    2.029   .     S
Cu718  N732    2.029   .     S
C720   C1295   1.189   .     S
C721   N733    1.426   .     S
C721   C726    1.417   .     A
C722   C725    1.417   .     A
C722   N739    1.426   .     S
C722   C596    1.399   1_655 S
C723   C725    1.415   .     A
C723   N745    1.428   .     S
C723   C593    1.399   1_655 S
C724   C726    1.415   .     A
C724   N751    1.428   .     S
C727   N757    1.429   .     S
C727   N732    1.376   .     A
C727   C1114   1.421   1_545 S
C728   N760    1.429   .     S
C728   N731    1.376   .     A
C728   C921    1.421   .     S
C729   N732    1.372   .     A
C729   N763    1.430   .     S
C729   C1112   1.421   1_545 S
C730   N766    1.430   .     S
C730   N731    1.372   .     A
C730   C919    1.421   .     S
N733   H734    1.030   .     S
N733   C735    1.447   .     S
C735   H737    1.111   .     S
C735   H738    1.110   .     S
C735   H736    1.111   .     S
N739   C741    1.447   .     S
N739   H740    1.030   .     S
C741   H743    1.110   .     S
C741   H742    1.111   .     S
C741   H744    1.111   .     S
N745   H746    1.030   .     S
N745   C747    1.447   .     S
C747   H748    1.111   .     S
C747   H749    1.111   .     S
C747   H750    1.110   .     S
N751   C753    1.447   .     S
N751   H752    1.030   .     S
C753   H756    1.112   .     S
C753   H754    1.111   .     S
C753   H755    1.110   .     S
N757   O758    1.298   .     A
N757   O759    1.301   .     A
N760   O762    1.298   .     A
N760   O761    1.301   .     A
N763   O764    1.300   .     A
N763   O765    1.301   .     A
N766   O768    1.300   .     A
N766   O767    1.301   .     A
O769   C773    1.303   .     A
O769   Cu781   1.982   .     S
O770   C774    1.303   .     A
O770   Cu782   1.982   .     S
O771   Cu781   1.987   .     S
O771   C774    1.301   .     A
O772   Cu782   1.987   .     S
O772   C773    1.301   .     A
C773   C790    1.473   .     S
C774   C789    1.473   .     S
O775   C779    1.293   .     A
O775   Cu781   1.927   .     S
O776   C780    1.293   .     A
O776   Cu782   1.927   .     S
O777   C780    1.294   .     A
O777   Cu781   1.929   .     S
O778   C779    1.294   .     A
O778   Cu782   1.929   .     S
C779   C783    1.406   .     S
C780   C784    1.406   .     S
Cu781  Cu782   2.700   .     S
Cu781  N795    2.029   .     S
Cu782  N796    2.029   .     S
C784   C1359   1.189   .     S
C785   N797    1.426   .     S
C785   C790    1.417   .     A
C785   C915    1.399   1_455 S
C786   C789    1.417   .     A
C786   N803    1.426   .     S
C786   C852    1.399   .     S
C787   C789    1.415   .     A
C787   N809    1.428   .     S
C787   C849    1.399   .     S
C788   C790    1.415   .     A
C788   N815    1.428   .     S
C788   C914    1.399   1_455 S
C791   N821    1.429   .     S
C791   N796    1.376   .     A
C792   N824    1.429   .     S
C792   N795    1.376   .     A
C792   C985    1.421   .     S
C793   N796    1.372   .     A
C793   N827    1.430   .     S
C794   N830    1.430   .     S
C794   N795    1.372   .     A
C794   C983    1.421   .     S
N797   H798    1.030   .     S
N797   C799    1.447   .     S
C799   H801    1.111   .     S
C799   H802    1.110   .     S
C799   H800    1.111   .     S
N803   C805    1.447   .     S
N803   H804    1.030   .     S
C805   H807    1.110   .     S
C805   H806    1.111   .     S
C805   H808    1.111   .     S
N809   H810    1.030   .     S
N809   C811    1.447   .     S
C811   H812    1.111   .     S
C811   H813    1.111   .     S
C811   H814    1.110   .     S
N815   C817    1.447   .     S
N815   H816    1.030   .     S
C817   H820    1.112   .     S
C817   H818    1.111   .     S
C817   H819    1.110   .     S
N821   O822    1.298   .     A
N821   O823    1.301   .     A
N824   O826    1.298   .     A
N824   O825    1.301   .     A
N827   O828    1.300   .     A
N827   O829    1.301   .     A
N830   O832    1.300   .     A
N830   O831    1.301   .     A
O833   C837    1.303   .     A
O833   Cu845   1.982   .     S
O834   C838    1.303   .     A
O834   Cu846   1.982   .     S
O835   Cu845   1.987   .     S
O835   C838    1.301   .     A
O836   Cu846   1.987   .     S
O836   C837    1.301   .     A
C837   C854    1.473   .     S
C838   C853    1.473   .     S
O839   C843    1.293   .     A
O839   Cu845   1.927   .     S
O840   C844    1.293   .     A
O840   Cu846   1.927   .     S
O841   C844    1.294   .     A
O841   Cu845   1.929   .     S
O842   C843    1.294   .     A
O842   Cu846   1.929   .     S
C843   C847    1.406   .     S
C844   C848    1.406   .     S
Cu845  Cu846   2.700   .     S
Cu845  N859    2.029   .     S
Cu846  N860    2.029   .     S
C848   C1423   1.189   .     S
C849   N861    1.426   .     S
C849   C854    1.417   .     A
C850   C853    1.417   .     A
C850   N867    1.426   .     S
C850   C916    1.399   .     S
C851   C853    1.415   .     A
C851   N873    1.428   .     S
C851   C913    1.399   .     S
C852   C854    1.415   .     A
C852   N879    1.428   .     S
C855   N885    1.429   .     S
C855   N860    1.376   .     A
C856   N888    1.429   .     S
C856   N859    1.376   .     A
C856   C1049   1.421   .     S
C857   N860    1.372   .     A
C857   N891    1.430   .     S
C858   N894    1.430   .     S
C858   N859    1.372   .     A
C858   C1047   1.421   .     S
N861   H862    1.030   .     S
N861   C863    1.447   .     S
C863   H865    1.111   .     S
C863   H866    1.110   .     S
C863   H864    1.111   .     S
N867   C869    1.447   .     S
N867   H868    1.030   .     S
C869   H871    1.110   .     S
C869   H870    1.111   .     S
C869   H872    1.111   .     S
N873   H874    1.030   .     S
N873   C875    1.447   .     S
C875   H876    1.111   .     S
C875   H877    1.111   .     S
C875   H878    1.110   .     S
N879   C881    1.447   .     S
N879   H880    1.030   .     S
C881   H884    1.112   .     S
C881   H882    1.111   .     S
C881   H883    1.110   .     S
N885   O886    1.298   .     A
N885   O887    1.301   .     A
N888   O890    1.298   .     A
N888   O889    1.301   .     A
N891   O892    1.300   .     A
N891   O893    1.301   .     A
N894   O896    1.300   .     A
N894   O895    1.301   .     A
O897   C901    1.303   .     A
O897   Cu909   1.982   .     S
O898   C902    1.303   .     A
O898   Cu910   1.982   .     S
O899   Cu909   1.987   .     S
O899   C902    1.301   .     A
O900   Cu910   1.987   .     S
O900   C901    1.301   .     A
C901   C918    1.473   .     S
C902   C917    1.473   .     S
O903   C907    1.293   .     A
O903   Cu909   1.927   .     S
O904   C908    1.293   .     A
O904   Cu910   1.927   .     S
O905   C908    1.294   .     A
O905   Cu909   1.929   .     S
O906   C907    1.294   .     A
O906   Cu910   1.929   .     S
C907   C911    1.406   .     S
C908   C912    1.406   .     S
Cu909  Cu910   2.700   .     S
Cu909  N923    2.029   .     S
Cu910  N924    2.029   .     S
C912   C1487   1.189   .     S
C913   N925    1.426   .     S
C913   C918    1.417   .     A
C914   C917    1.417   .     A
C914   N931    1.426   .     S
C914   C788    1.399   1_655 S
C915   C917    1.415   .     A
C915   N937    1.428   .     S
C915   C785    1.399   1_655 S
C916   C918    1.415   .     A
C916   N943    1.428   .     S
C919   N949    1.429   .     S
C919   N924    1.376   .     A
C920   N952    1.429   .     S
C920   N923    1.376   .     A
C920   C1113   1.421   .     S
C921   N924    1.372   .     A
C921   N955    1.430   .     S
C922   N958    1.430   .     S
C922   N923    1.372   .     A
C922   C1111   1.421   .     S
N925   H926    1.030   .     S
N925   C927    1.447   .     S
C927   H929    1.111   .     S
C927   H930    1.110   .     S
C927   H928    1.111   .     S
N931   C933    1.447   .     S
N931   H932    1.030   .     S
C933   H935    1.110   .     S
C933   H934    1.111   .     S
C933   H936    1.111   .     S
N937   H938    1.030   .     S
N937   C939    1.447   .     S
C939   H940    1.111   .     S
C939   H941    1.111   .     S
C939   H942    1.110   .     S
N943   C945    1.447   .     S
N943   H944    1.030   .     S
C945   H948    1.112   .     S
C945   H946    1.111   .     S
C945   H947    1.110   .     S
N949   O950    1.298   .     A
N949   O951    1.301   .     A
N952   O954    1.298   .     A
N952   O953    1.301   .     A
N955   O956    1.300   .     A
N955   O957    1.301   .     A
N958   O960    1.300   .     A
N958   O959    1.301   .     A
O961   C965    1.303   .     A
O961   Cu973   1.982   .     S
O962   C966    1.303   .     A
O962   Cu974   1.982   .     S
O963   Cu973   1.987   .     S
O963   C966    1.301   .     A
O964   Cu974   1.987   .     S
O964   C965    1.301   .     A
C965   C982    1.473   .     S
C966   C981    1.473   .     S
O967   C971    1.293   .     A
O967   Cu973   1.927   .     S
O968   C972    1.293   .     A
O968   Cu974   1.927   .     S
O969   C972    1.294   .     A
O969   Cu973   1.929   .     S
O970   C971    1.294   .     A
O970   Cu974   1.929   .     S
C971   C975    1.406   .     S
C972   C976    1.406   .     S
Cu973  Cu974   2.700   .     S
Cu973  N987    2.029   .     S
Cu974  N988    2.029   .     S
C976   C1551   1.189   .     S
C977   N989    1.426   .     S
C977   C982    1.417   .     A
C977   C1107   1.399   1_455 S
C978   C981    1.417   .     A
C978   N995    1.426   .     S
C978   C1044   1.399   .     S
C979   C981    1.415   .     A
C979   N1001   1.428   .     S
C979   C1041   1.399   .     S
C980   C982    1.415   .     A
C980   N1007   1.428   .     S
C980   C1106   1.399   1_455 S
C983   N1013   1.429   .     S
C983   N988    1.376   .     A
C984   N1016   1.429   .     S
C984   N987    1.376   .     A
C984   C601    1.421   1_565 S
C985   N988    1.372   .     A
C985   N1019   1.430   .     S
C986   N1022   1.430   .     S
C986   N987    1.372   .     A
C986   C599    1.421   1_565 S
N989   H990    1.030   .     S
N989   C991    1.447   .     S
C991   H993    1.111   .     S
C991   H994    1.110   .     S
C991   H992    1.111   .     S
N995   C997    1.447   .     S
N995   H996    1.030   .     S
C997   H999    1.110   .     S
C997   H998    1.111   .     S
C997   H1000   1.111   .     S
N1001  H1002   1.030   .     S
N1001  C1003   1.447   .     S
C1003  H1004   1.111   .     S
C1003  H1005   1.111   .     S
C1003  H1006   1.110   .     S
N1007  C1009   1.447   .     S
N1007  H1008   1.030   .     S
C1009  H1012   1.112   .     S
C1009  H1010   1.111   .     S
C1009  H1011   1.110   .     S
N1013  O1014   1.298   .     A
N1013  O1015   1.301   .     A
N1016  O1018   1.298   .     A
N1016  O1017   1.301   .     A
N1019  O1020   1.300   .     A
N1019  O1021   1.301   .     A
N1022  O1024   1.300   .     A
N1022  O1023   1.301   .     A
O1025  C1029   1.303   .     A
O1025  Cu1037  1.982   .     S
O1026  C1030   1.303   .     A
O1026  Cu1038  1.982   .     S
O1027  Cu1037  1.987   .     S
O1027  C1030   1.301   .     A
O1028  Cu1038  1.987   .     S
O1028  C1029   1.301   .     A
C1029  C1046   1.473   .     S
C1030  C1045   1.473   .     S
O1031  C1035   1.293   .     A
O1031  Cu1037  1.927   .     S
O1032  C1036   1.293   .     A
O1032  Cu1038  1.927   .     S
O1033  C1036   1.294   .     A
O1033  Cu1037  1.929   .     S
O1034  C1035   1.294   .     A
O1034  Cu1038  1.929   .     S
C1035  C1039   1.406   .     S
C1036  C1040   1.406   .     S
Cu1037 Cu1038  2.700   .     S
Cu1037 N1051   2.029   .     S
Cu1038 N1052   2.029   .     S
C1040  C1615   1.189   .     S
C1041  N1053   1.426   .     S
C1041  C1046   1.417   .     A
C1042  C1045   1.417   .     A
C1042  N1059   1.426   .     S
C1042  C1108   1.399   .     S
C1043  C1045   1.415   .     A
C1043  N1065   1.428   .     S
C1043  C1105   1.399   .     S
C1044  C1046   1.415   .     A
C1044  N1071   1.428   .     S
C1047  N1077   1.429   .     S
C1047  N1052   1.376   .     A
C1048  N1080   1.429   .     S
C1048  N1051   1.376   .     A
C1048  C665    1.421   1_565 S
C1049  N1052   1.372   .     A
C1049  N1083   1.430   .     S
C1050  N1086   1.430   .     S
C1050  N1051   1.372   .     A
C1050  C663    1.421   1_565 S
N1053  H1054   1.030   .     S
N1053  C1055   1.447   .     S
C1055  H1057   1.111   .     S
C1055  H1058   1.110   .     S
C1055  H1056   1.111   .     S
N1059  C1061   1.447   .     S
N1059  H1060   1.030   .     S
C1061  H1063   1.110   .     S
C1061  H1062   1.111   .     S
C1061  H1064   1.111   .     S
N1065  H1066   1.030   .     S
N1065  C1067   1.447   .     S
C1067  H1068   1.111   .     S
C1067  H1069   1.111   .     S
C1067  H1070   1.110   .     S
N1071  C1073   1.447   .     S
N1071  H1072   1.030   .     S
C1073  H1076   1.112   .     S
C1073  H1074   1.111   .     S
C1073  H1075   1.110   .     S
N1077  O1078   1.298   .     A
N1077  O1079   1.301   .     A
N1080  O1082   1.298   .     A
N1080  O1081   1.301   .     A
N1083  O1084   1.300   .     A
N1083  O1085   1.301   .     A
N1086  O1088   1.300   .     A
N1086  O1087   1.301   .     A
O1089  C1093   1.303   .     A
O1089  Cu1101  1.982   .     S
O1090  C1094   1.303   .     A
O1090  Cu1102  1.982   .     S
O1091  Cu1101  1.987   .     S
O1091  C1094   1.301   .     A
O1092  Cu1102  1.987   .     S
O1092  C1093   1.301   .     A
C1093  C1110   1.473   .     S
C1094  C1109   1.473   .     S
O1095  C1099   1.293   .     A
O1095  Cu1101  1.927   .     S
O1096  C1100   1.293   .     A
O1096  Cu1102  1.927   .     S
O1097  C1100   1.294   .     A
O1097  Cu1101  1.929   .     S
O1098  C1099   1.294   .     A
O1098  Cu1102  1.929   .     S
C1099  C1103   1.406   .     S
C1100  C1104   1.406   .     S
Cu1101 Cu1102  2.700   .     S
Cu1101 N1115   2.029   .     S
Cu1102 N1116   2.029   .     S
C1104  C1679   1.189   .     S
C1105  N1117   1.426   .     S
C1105  C1110   1.417   .     A
C1106  C1109   1.417   .     A
C1106  N1123   1.426   .     S
C1106  C980    1.399   1_655 S
C1107  C1109   1.415   .     A
C1107  N1129   1.428   .     S
C1107  C977    1.399   1_655 S
C1108  C1110   1.415   .     A
C1108  N1135   1.428   .     S
C1111  N1141   1.429   .     S
C1111  N1116   1.376   .     A
C1112  N1144   1.429   .     S
C1112  N1115   1.376   .     A
C1112  C729    1.421   1_565 S
C1113  N1116   1.372   .     A
C1113  N1147   1.430   .     S
C1114  N1150   1.430   .     S
C1114  N1115   1.372   .     A
C1114  C727    1.421   1_565 S
N1117  H1118   1.030   .     S
N1117  C1119   1.447   .     S
C1119  H1121   1.111   .     S
C1119  H1122   1.110   .     S
C1119  H1120   1.111   .     S
N1123  C1125   1.447   .     S
N1123  H1124   1.030   .     S
C1125  H1127   1.110   .     S
C1125  H1126   1.111   .     S
C1125  H1128   1.111   .     S
N1129  H1130   1.030   .     S
N1129  C1131   1.447   .     S
C1131  H1132   1.111   .     S
C1131  H1133   1.111   .     S
C1131  H1134   1.110   .     S
N1135  C1137   1.447   .     S
N1135  H1136   1.030   .     S
C1137  H1140   1.112   .     S
C1137  H1138   1.111   .     S
C1137  H1139   1.110   .     S
N1141  O1142   1.298   .     A
N1141  O1143   1.301   .     A
N1144  O1146   1.298   .     A
N1144  O1145   1.301   .     A
N1147  O1148   1.300   .     A
N1147  O1149   1.301   .     A
N1150  O1152   1.300   .     A
N1150  O1151   1.301   .     A
O1153  C1157   1.303   .     A
O1153  Cu1165  1.982   .     S
O1154  C1158   1.303   .     A
O1154  Cu1166  1.982   .     S
O1155  Cu1165  1.987   .     S
O1155  C1158   1.301   .     A
O1156  Cu1166  1.987   .     S
O1156  C1157   1.301   .     A
C1157  C1174   1.473   .     S
C1158  C1173   1.473   .     S
O1159  C1163   1.293   .     A
O1159  Cu1165  1.927   .     S
O1160  C1164   1.293   .     A
O1160  Cu1166  1.927   .     S
O1161  C1164   1.294   .     A
O1161  Cu1165  1.929   .     S
O1162  C1163   1.294   .     A
O1162  Cu1166  1.929   .     S
C1163  C1167   1.406   .     S
C1164  C1168   1.406   .     S
Cu1165 Cu1166  2.700   .     S
Cu1165 N1179   2.029   .     S
Cu1166 N1180   2.029   .     S
C1168  C15     1.189   1_556 S
C1169  N1181   1.426   .     S
C1169  C1174   1.417   .     A
C1169  C1299   1.399   1_455 S
C1170  C1173   1.417   .     A
C1170  N1187   1.426   .     S
C1170  C1236   1.399   .     S
C1171  C1173   1.415   .     A
C1171  N1193   1.428   .     S
C1171  C1233   1.399   .     S
C1172  C1174   1.415   .     A
C1172  N1199   1.428   .     S
C1172  C1298   1.399   1_455 S
C1175  N1205   1.429   .     S
C1175  N1180   1.376   .     A
C1175  C1562   1.421   1_545 S
C1176  N1208   1.429   .     S
C1176  N1179   1.376   .     A
C1176  C1369   1.421   .     S
C1177  N1180   1.372   .     A
C1177  N1211   1.430   .     S
C1177  C1560   1.421   1_545 S
C1178  N1214   1.430   .     S
C1178  N1179   1.372   .     A
C1178  C1367   1.421   .     S
N1181  H1182   1.030   .     S
N1181  C1183   1.447   .     S
C1183  H1185   1.111   .     S
C1183  H1186   1.110   .     S
C1183  H1184   1.111   .     S
N1187  C1189   1.447   .     S
N1187  H1188   1.030   .     S
C1189  H1191   1.110   .     S
C1189  H1190   1.111   .     S
C1189  H1192   1.111   .     S
N1193  H1194   1.030   .     S
N1193  C1195   1.447   .     S
C1195  H1196   1.111   .     S
C1195  H1197   1.111   .     S
C1195  H1198   1.110   .     S
N1199  C1201   1.447   .     S
N1199  H1200   1.030   .     S
C1201  H1204   1.112   .     S
C1201  H1202   1.111   .     S
C1201  H1203   1.110   .     S
N1205  O1206   1.298   .     A
N1205  O1207   1.301   .     A
N1208  O1210   1.298   .     A
N1208  O1209   1.301   .     A
N1211  O1212   1.300   .     A
N1211  O1213   1.301   .     A
N1214  O1216   1.300   .     A
N1214  O1215   1.301   .     A
O1217  C1221   1.303   .     A
O1217  Cu1229  1.982   .     S
O1218  C1222   1.303   .     A
O1218  Cu1230  1.982   .     S
O1219  Cu1229  1.987   .     S
O1219  C1222   1.301   .     A
O1220  Cu1230  1.987   .     S
O1220  C1221   1.301   .     A
C1221  C1238   1.473   .     S
C1222  C1237   1.473   .     S
O1223  C1227   1.293   .     A
O1223  Cu1229  1.927   .     S
O1224  C1228   1.293   .     A
O1224  Cu1230  1.927   .     S
O1225  C1228   1.294   .     A
O1225  Cu1229  1.929   .     S
O1226  C1227   1.294   .     A
O1226  Cu1230  1.929   .     S
C1227  C1231   1.406   .     S
C1228  C1232   1.406   .     S
Cu1229 Cu1230  2.700   .     S
Cu1229 N1243   2.029   .     S
Cu1230 N1244   2.029   .     S
C1232  C79     1.189   1_556 S
C1233  N1245   1.426   .     S
C1233  C1238   1.417   .     A
C1234  C1237   1.417   .     A
C1234  N1251   1.426   .     S
C1234  C1300   1.399   .     S
C1235  C1237   1.415   .     A
C1235  N1257   1.428   .     S
C1235  C1297   1.399   .     S
C1236  C1238   1.415   .     A
C1236  N1263   1.428   .     S
C1239  N1269   1.429   .     S
C1239  N1244   1.376   .     A
C1239  C1626   1.421   1_545 S
C1240  N1272   1.429   .     S
C1240  N1243   1.376   .     A
C1240  C1433   1.421   .     S
C1241  N1244   1.372   .     A
C1241  N1275   1.430   .     S
C1241  C1624   1.421   1_545 S
C1242  N1278   1.430   .     S
C1242  N1243   1.372   .     A
C1242  C1431   1.421   .     S
N1245  H1246   1.030   .     S
N1245  C1247   1.447   .     S
C1247  H1249   1.111   .     S
C1247  H1250   1.110   .     S
C1247  H1248   1.111   .     S
N1251  C1253   1.447   .     S
N1251  H1252   1.030   .     S
C1253  H1255   1.110   .     S
C1253  H1254   1.111   .     S
C1253  H1256   1.111   .     S
N1257  H1258   1.030   .     S
N1257  C1259   1.447   .     S
C1259  H1260   1.111   .     S
C1259  H1261   1.111   .     S
C1259  H1262   1.110   .     S
N1263  C1265   1.447   .     S
N1263  H1264   1.030   .     S
C1265  H1268   1.112   .     S
C1265  H1266   1.111   .     S
C1265  H1267   1.110   .     S
N1269  O1270   1.298   .     A
N1269  O1271   1.301   .     A
N1272  O1274   1.298   .     A
N1272  O1273   1.301   .     A
N1275  O1276   1.300   .     A
N1275  O1277   1.301   .     A
N1278  O1280   1.300   .     A
N1278  O1279   1.301   .     A
O1281  C1285   1.303   .     A
O1281  Cu1293  1.982   .     S
O1282  C1286   1.303   .     A
O1282  Cu1294  1.982   .     S
O1283  Cu1293  1.987   .     S
O1283  C1286   1.301   .     A
O1284  Cu1294  1.987   .     S
O1284  C1285   1.301   .     A
C1285  C1302   1.473   .     S
C1286  C1301   1.473   .     S
O1287  C1291   1.293   .     A
O1287  Cu1293  1.927   .     S
O1288  C1292   1.293   .     A
O1288  Cu1294  1.927   .     S
O1289  C1292   1.294   .     A
O1289  Cu1293  1.929   .     S
O1290  C1291   1.294   .     A
O1290  Cu1294  1.929   .     S
C1291  C1295   1.406   .     S
C1292  C1296   1.406   .     S
Cu1293 Cu1294  2.700   .     S
Cu1293 N1307   2.029   .     S
Cu1294 N1308   2.029   .     S
C1296  C143    1.189   1_556 S
C1297  N1309   1.426   .     S
C1297  C1302   1.417   .     A
C1298  C1301   1.417   .     A
C1298  N1315   1.426   .     S
C1298  C1172   1.399   1_655 S
C1299  C1301   1.415   .     A
C1299  N1321   1.428   .     S
C1299  C1169   1.399   1_655 S
C1300  C1302   1.415   .     A
C1300  N1327   1.428   .     S
C1303  N1333   1.429   .     S
C1303  N1308   1.376   .     A
C1303  C1690   1.421   1_545 S
C1304  N1336   1.429   .     S
C1304  N1307   1.376   .     A
C1304  C1497   1.421   .     S
C1305  N1308   1.372   .     A
C1305  N1339   1.430   .     S
C1305  C1688   1.421   1_545 S
C1306  N1342   1.430   .     S
C1306  N1307   1.372   .     A
C1306  C1495   1.421   .     S
N1309  H1310   1.030   .     S
N1309  C1311   1.447   .     S
C1311  H1313   1.111   .     S
C1311  H1314   1.110   .     S
C1311  H1312   1.111   .     S
N1315  C1317   1.447   .     S
N1315  H1316   1.030   .     S
C1317  H1319   1.110   .     S
C1317  H1318   1.111   .     S
C1317  H1320   1.111   .     S
N1321  H1322   1.030   .     S
N1321  C1323   1.447   .     S
C1323  H1324   1.111   .     S
C1323  H1325   1.111   .     S
C1323  H1326   1.110   .     S
N1327  C1329   1.447   .     S
N1327  H1328   1.030   .     S
C1329  H1332   1.112   .     S
C1329  H1330   1.111   .     S
C1329  H1331   1.110   .     S
N1333  O1334   1.298   .     A
N1333  O1335   1.301   .     A
N1336  O1338   1.298   .     A
N1336  O1337   1.301   .     A
N1339  O1340   1.300   .     A
N1339  O1341   1.301   .     A
N1342  O1344   1.300   .     A
N1342  O1343   1.301   .     A
O1345  C1349   1.303   .     A
O1345  Cu1357  1.982   .     S
O1346  C1350   1.303   .     A
O1346  Cu1358  1.982   .     S
O1347  Cu1357  1.987   .     S
O1347  C1350   1.301   .     A
O1348  Cu1358  1.987   .     S
O1348  C1349   1.301   .     A
C1349  C1366   1.473   .     S
C1350  C1365   1.473   .     S
O1351  C1355   1.293   .     A
O1351  Cu1357  1.927   .     S
O1352  C1356   1.293   .     A
O1352  Cu1358  1.927   .     S
O1353  C1356   1.294   .     A
O1353  Cu1357  1.929   .     S
O1354  C1355   1.294   .     A
O1354  Cu1358  1.929   .     S
C1355  C1359   1.406   .     S
C1356  C1360   1.406   .     S
Cu1357 Cu1358  2.700   .     S
Cu1357 N1371   2.029   .     S
Cu1358 N1372   2.029   .     S
C1360  C207    1.189   1_556 S
C1361  N1373   1.426   .     S
C1361  C1366   1.417   .     A
C1361  C1491   1.399   1_455 S
C1362  C1365   1.417   .     A
C1362  N1379   1.426   .     S
C1362  C1428   1.399   .     S
C1363  C1365   1.415   .     A
C1363  N1385   1.428   .     S
C1363  C1425   1.399   .     S
C1364  C1366   1.415   .     A
C1364  N1391   1.428   .     S
C1364  C1490   1.399   1_455 S
C1367  N1397   1.429   .     S
C1367  N1372   1.376   .     A
C1368  N1400   1.429   .     S
C1368  N1371   1.376   .     A
C1368  C1561   1.421   .     S
C1369  N1372   1.372   .     A
C1369  N1403   1.430   .     S
C1370  N1406   1.430   .     S
C1370  N1371   1.372   .     A
C1370  C1559   1.421   .     S
N1373  H1374   1.030   .     S
N1373  C1375   1.447   .     S
C1375  H1377   1.111   .     S
C1375  H1378   1.110   .     S
C1375  H1376   1.111   .     S
N1379  C1381   1.447   .     S
N1379  H1380   1.030   .     S
C1381  H1383   1.110   .     S
C1381  H1382   1.111   .     S
C1381  H1384   1.111   .     S
N1385  H1386   1.030   .     S
N1385  C1387   1.447   .     S
C1387  H1388   1.111   .     S
C1387  H1389   1.111   .     S
C1387  H1390   1.110   .     S
N1391  C1393   1.447   .     S
N1391  H1392   1.030   .     S
C1393  H1396   1.112   .     S
C1393  H1394   1.111   .     S
C1393  H1395   1.110   .     S
N1397  O1398   1.298   .     A
N1397  O1399   1.301   .     A
N1400  O1402   1.298   .     A
N1400  O1401   1.301   .     A
N1403  O1404   1.300   .     A
N1403  O1405   1.301   .     A
N1406  O1408   1.300   .     A
N1406  O1407   1.301   .     A
O1409  C1413   1.303   .     A
O1409  Cu1421  1.982   .     S
O1410  C1414   1.303   .     A
O1410  Cu1422  1.982   .     S
O1411  Cu1421  1.987   .     S
O1411  C1414   1.301   .     A
O1412  Cu1422  1.987   .     S
O1412  C1413   1.301   .     A
C1413  C1430   1.473   .     S
C1414  C1429   1.473   .     S
O1415  C1419   1.293   .     A
O1415  Cu1421  1.927   .     S
O1416  C1420   1.293   .     A
O1416  Cu1422  1.927   .     S
O1417  C1420   1.294   .     A
O1417  Cu1421  1.929   .     S
O1418  C1419   1.294   .     A
O1418  Cu1422  1.929   .     S
C1419  C1423   1.406   .     S
C1420  C1424   1.406   .     S
Cu1421 Cu1422  2.700   .     S
Cu1421 N1435   2.029   .     S
Cu1422 N1436   2.029   .     S
C1424  C271    1.189   1_556 S
C1425  N1437   1.426   .     S
C1425  C1430   1.417   .     A
C1426  C1429   1.417   .     A
C1426  N1443   1.426   .     S
C1426  C1492   1.399   .     S
C1427  C1429   1.415   .     A
C1427  N1449   1.428   .     S
C1427  C1489   1.399   .     S
C1428  C1430   1.415   .     A
C1428  N1455   1.428   .     S
C1431  N1461   1.429   .     S
C1431  N1436   1.376   .     A
C1432  N1464   1.429   .     S
C1432  N1435   1.376   .     A
C1432  C1625   1.421   .     S
C1433  N1436   1.372   .     A
C1433  N1467   1.430   .     S
C1434  N1470   1.430   .     S
C1434  N1435   1.372   .     A
C1434  C1623   1.421   .     S
N1437  H1438   1.030   .     S
N1437  C1439   1.447   .     S
C1439  H1441   1.111   .     S
C1439  H1442   1.110   .     S
C1439  H1440   1.111   .     S
N1443  C1445   1.447   .     S
N1443  H1444   1.030   .     S
C1445  H1447   1.110   .     S
C1445  H1446   1.111   .     S
C1445  H1448   1.111   .     S
N1449  H1450   1.030   .     S
N1449  C1451   1.447   .     S
C1451  H1452   1.111   .     S
C1451  H1453   1.111   .     S
C1451  H1454   1.110   .     S
N1455  C1457   1.447   .     S
N1455  H1456   1.030   .     S
C1457  H1460   1.112   .     S
C1457  H1458   1.111   .     S
C1457  H1459   1.110   .     S
N1461  O1462   1.298   .     A
N1461  O1463   1.301   .     A
N1464  O1466   1.298   .     A
N1464  O1465   1.301   .     A
N1467  O1468   1.300   .     A
N1467  O1469   1.301   .     A
N1470  O1472   1.300   .     A
N1470  O1471   1.301   .     A
O1473  C1477   1.303   .     A
O1473  Cu1485  1.982   .     S
O1474  C1478   1.303   .     A
O1474  Cu1486  1.982   .     S
O1475  Cu1485  1.987   .     S
O1475  C1478   1.301   .     A
O1476  Cu1486  1.987   .     S
O1476  C1477   1.301   .     A
C1477  C1494   1.473   .     S
C1478  C1493   1.473   .     S
O1479  C1483   1.293   .     A
O1479  Cu1485  1.927   .     S
O1480  C1484   1.293   .     A
O1480  Cu1486  1.927   .     S
O1481  C1484   1.294   .     A
O1481  Cu1485  1.929   .     S
O1482  C1483   1.294   .     A
O1482  Cu1486  1.929   .     S
C1483  C1487   1.406   .     S
C1484  C1488   1.406   .     S
Cu1485 Cu1486  2.700   .     S
Cu1485 N1499   2.029   .     S
Cu1486 N1500   2.029   .     S
C1488  C335    1.189   1_556 S
C1489  N1501   1.426   .     S
C1489  C1494   1.417   .     A
C1490  C1493   1.417   .     A
C1490  N1507   1.426   .     S
C1490  C1364   1.399   1_655 S
C1491  C1493   1.415   .     A
C1491  N1513   1.428   .     S
C1491  C1361   1.399   1_655 S
C1492  C1494   1.415   .     A
C1492  N1519   1.428   .     S
C1495  N1525   1.429   .     S
C1495  N1500   1.376   .     A
C1496  N1528   1.429   .     S
C1496  N1499   1.376   .     A
C1496  C1689   1.421   .     S
C1497  N1500   1.372   .     A
C1497  N1531   1.430   .     S
C1498  N1534   1.430   .     S
C1498  N1499   1.372   .     A
C1498  C1687   1.421   .     S
N1501  H1502   1.030   .     S
N1501  C1503   1.447   .     S
C1503  H1505   1.111   .     S
C1503  H1506   1.110   .     S
C1503  H1504   1.111   .     S
N1507  C1509   1.447   .     S
N1507  H1508   1.030   .     S
C1509  H1511   1.110   .     S
C1509  H1510   1.111   .     S
C1509  H1512   1.111   .     S
N1513  H1514   1.030   .     S
N1513  C1515   1.447   .     S
C1515  H1516   1.111   .     S
C1515  H1517   1.111   .     S
C1515  H1518   1.110   .     S
N1519  C1521   1.447   .     S
N1519  H1520   1.030   .     S
C1521  H1524   1.112   .     S
C1521  H1522   1.111   .     S
C1521  H1523   1.110   .     S
N1525  O1526   1.298   .     A
N1525  O1527   1.301   .     A
N1528  O1530   1.298   .     A
N1528  O1529   1.301   .     A
N1531  O1532   1.300   .     A
N1531  O1533   1.301   .     A
N1534  O1536   1.300   .     A
N1534  O1535   1.301   .     A
O1537  C1541   1.303   .     A
O1537  Cu1549  1.982   .     S
O1538  C1542   1.303   .     A
O1538  Cu1550  1.982   .     S
O1539  Cu1549  1.987   .     S
O1539  C1542   1.301   .     A
O1540  Cu1550  1.987   .     S
O1540  C1541   1.301   .     A
C1541  C1558   1.473   .     S
C1542  C1557   1.473   .     S
O1543  C1547   1.293   .     A
O1543  Cu1549  1.927   .     S
O1544  C1548   1.293   .     A
O1544  Cu1550  1.927   .     S
O1545  C1548   1.294   .     A
O1545  Cu1549  1.929   .     S
O1546  C1547   1.294   .     A
O1546  Cu1550  1.929   .     S
C1547  C1551   1.406   .     S
C1548  C1552   1.406   .     S
Cu1549 Cu1550  2.700   .     S
Cu1549 N1563   2.029   .     S
Cu1550 N1564   2.029   .     S
C1552  C399    1.189   1_556 S
C1553  N1565   1.426   .     S
C1553  C1558   1.417   .     A
C1553  C1683   1.399   1_455 S
C1554  C1557   1.417   .     A
C1554  N1571   1.426   .     S
C1554  C1620   1.399   .     S
C1555  C1557   1.415   .     A
C1555  N1577   1.428   .     S
C1555  C1617   1.399   .     S
C1556  C1558   1.415   .     A
C1556  N1583   1.428   .     S
C1556  C1682   1.399   1_455 S
C1559  N1589   1.429   .     S
C1559  N1564   1.376   .     A
C1560  N1592   1.429   .     S
C1560  N1563   1.376   .     A
C1560  C1177   1.421   1_565 S
C1561  N1564   1.372   .     A
C1561  N1595   1.430   .     S
C1562  N1598   1.430   .     S
C1562  N1563   1.372   .     A
C1562  C1175   1.421   1_565 S
N1565  H1566   1.030   .     S
N1565  C1567   1.447   .     S
C1567  H1569   1.111   .     S
C1567  H1570   1.110   .     S
C1567  H1568   1.111   .     S
N1571  C1573   1.447   .     S
N1571  H1572   1.030   .     S
C1573  H1575   1.110   .     S
C1573  H1574   1.111   .     S
C1573  H1576   1.111   .     S
N1577  H1578   1.030   .     S
N1577  C1579   1.447   .     S
C1579  H1580   1.111   .     S
C1579  H1581   1.111   .     S
C1579  H1582   1.110   .     S
N1583  C1585   1.447   .     S
N1583  H1584   1.030   .     S
C1585  H1588   1.112   .     S
C1585  H1586   1.111   .     S
C1585  H1587   1.110   .     S
N1589  O1590   1.298   .     A
N1589  O1591   1.301   .     A
N1592  O1594   1.298   .     A
N1592  O1593   1.301   .     A
N1595  O1596   1.300   .     A
N1595  O1597   1.301   .     A
N1598  O1600   1.300   .     A
N1598  O1599   1.301   .     A
O1601  C1605   1.303   .     A
O1601  Cu1613  1.982   .     S
O1602  C1606   1.303   .     A
O1602  Cu1614  1.982   .     S
O1603  Cu1613  1.987   .     S
O1603  C1606   1.301   .     A
O1604  Cu1614  1.987   .     S
O1604  C1605   1.301   .     A
C1605  C1622   1.473   .     S
C1606  C1621   1.473   .     S
O1607  C1611   1.293   .     A
O1607  Cu1613  1.927   .     S
O1608  C1612   1.293   .     A
O1608  Cu1614  1.927   .     S
O1609  C1612   1.294   .     A
O1609  Cu1613  1.929   .     S
O1610  C1611   1.294   .     A
O1610  Cu1614  1.929   .     S
C1611  C1615   1.406   .     S
C1612  C1616   1.406   .     S
Cu1613 Cu1614  2.700   .     S
Cu1613 N1627   2.029   .     S
Cu1614 N1628   2.029   .     S
C1616  C463    1.189   1_556 S
C1617  N1629   1.426   .     S
C1617  C1622   1.417   .     A
C1618  C1621   1.417   .     A
C1618  N1635   1.426   .     S
C1618  C1684   1.399   .     S
C1619  C1621   1.415   .     A
C1619  N1641   1.428   .     S
C1619  C1681   1.399   .     S
C1620  C1622   1.415   .     A
C1620  N1647   1.428   .     S
C1623  N1653   1.429   .     S
C1623  N1628   1.376   .     A
C1624  N1656   1.429   .     S
C1624  N1627   1.376   .     A
C1624  C1241   1.421   1_565 S
C1625  N1628   1.372   .     A
C1625  N1659   1.430   .     S
C1626  N1662   1.430   .     S
C1626  N1627   1.372   .     A
C1626  C1239   1.421   1_565 S
N1629  H1630   1.030   .     S
N1629  C1631   1.447   .     S
C1631  H1633   1.111   .     S
C1631  H1634   1.110   .     S
C1631  H1632   1.111   .     S
N1635  C1637   1.447   .     S
N1635  H1636   1.030   .     S
C1637  H1639   1.110   .     S
C1637  H1638   1.111   .     S
C1637  H1640   1.111   .     S
N1641  H1642   1.030   .     S
N1641  C1643   1.447   .     S
C1643  H1644   1.111   .     S
C1643  H1645   1.111   .     S
C1643  H1646   1.110   .     S
N1647  C1649   1.447   .     S
N1647  H1648   1.030   .     S
C1649  H1652   1.112   .     S
C1649  H1650   1.111   .     S
C1649  H1651   1.110   .     S
N1653  O1654   1.298   .     A
N1653  O1655   1.301   .     A
N1656  O1658   1.298   .     A
N1656  O1657   1.301   .     A
N1659  O1660   1.300   .     A
N1659  O1661   1.301   .     A
N1662  O1664   1.300   .     A
N1662  O1663   1.301   .     A
O1665  C1669   1.303   .     A
O1665  Cu1677  1.982   .     S
O1666  C1670   1.303   .     A
O1666  Cu1678  1.982   .     S
O1667  Cu1677  1.987   .     S
O1667  C1670   1.301   .     A
O1668  Cu1678  1.987   .     S
O1668  C1669   1.301   .     A
C1669  C1686   1.473   .     S
C1670  C1685   1.473   .     S
O1671  C1675   1.293   .     A
O1671  Cu1677  1.927   .     S
O1672  C1676   1.293   .     A
O1672  Cu1678  1.927   .     S
O1673  C1676   1.294   .     A
O1673  Cu1677  1.929   .     S
O1674  C1675   1.294   .     A
O1674  Cu1678  1.929   .     S
C1675  C1679   1.406   .     S
C1676  C1680   1.406   .     S
Cu1677 Cu1678  2.700   .     S
Cu1677 N1691   2.029   .     S
Cu1678 N1692   2.029   .     S
C1680  C527    1.189   1_556 S
C1681  N1693   1.426   .     S
C1681  C1686   1.417   .     A
C1682  C1685   1.417   .     A
C1682  N1699   1.426   .     S
C1682  C1556   1.399   1_655 S
C1683  C1685   1.415   .     A
C1683  N1705   1.428   .     S
C1683  C1553   1.399   1_655 S
C1684  C1686   1.415   .     A
C1684  N1711   1.428   .     S
C1687  N1717   1.429   .     S
C1687  N1692   1.376   .     A
C1688  N1720   1.429   .     S
C1688  N1691   1.376   .     A
C1688  C1305   1.421   1_565 S
C1689  N1692   1.372   .     A
C1689  N1723   1.430   .     S
C1690  N1726   1.430   .     S
C1690  N1691   1.372   .     A
C1690  C1303   1.421   1_565 S
N1693  H1694   1.030   .     S
N1693  C1695   1.447   .     S
C1695  H1697   1.111   .     S
C1695  H1698   1.110   .     S
C1695  H1696   1.111   .     S
N1699  C1701   1.447   .     S
N1699  H1700   1.030   .     S
C1701  H1703   1.110   .     S
C1701  H1702   1.111   .     S
C1701  H1704   1.111   .     S
N1705  H1706   1.030   .     S
N1705  C1707   1.447   .     S
C1707  H1708   1.111   .     S
C1707  H1709   1.111   .     S
C1707  H1710   1.110   .     S
N1711  C1713   1.447   .     S
N1711  H1712   1.030   .     S
C1713  H1716   1.112   .     S
C1713  H1714   1.111   .     S
C1713  H1715   1.110   .     S
N1717  O1718   1.298   .     A
N1717  O1719   1.301   .     A
N1720  O1722   1.298   .     A
N1720  O1721   1.301   .     A
N1723  O1724   1.300   .     A
N1723  O1725   1.301   .     A
N1726  O1728   1.300   .     A
N1726  O1727   1.301   .     A
