data_str_m2_o1_o2_pcu_sym.68
_audit_creation_date              2020-01-03
_audit_creation_method            'Materials Studio'
_symmetry_space_group_name_H-M    'P1'
_symmetry_Int_Tables_number       1
_symmetry_cell_setting            triclinic
loop_
_symmetry_equiv_pos_as_xyz
  x,y,z
_cell_length_a                    32.5507
_cell_length_b                    28.5557
_cell_length_c                    30.1829
_cell_angle_alpha                 90.1529
_cell_angle_beta                  90.2701
_cell_angle_gamma                 90.0333
loop_
_atom_site_label
_atom_site_type_symbol
_atom_site_fract_x
_atom_site_fract_y
_atom_site_fract_z
_atom_site_U_iso_or_equiv
_atom_site_adp_type
_atom_site_occupancy
C1     C     0.08746   0.16666   0.24995   0.00000  Uiso   1.00
C2     C     0.31213   0.20115   0.27433   0.00000  Uiso   1.00
C3     C     0.31180   0.13245   0.22547   0.00000  Uiso   1.00
C4     C     0.02180   0.20075   0.27470   0.00000  Uiso   1.00
C5     C     0.19232   0.13845   0.04684   0.00000  Uiso   1.00
C6     C     0.13135   0.14454   0.45128   0.00000  Uiso   1.00
C7     C     0.19592   0.18727   0.45394   0.00000  Uiso   1.00
C8     C     0.13343   0.19064   0.04725   0.00000  Uiso   1.00
C9     C     0.19341   0.13906   0.09311   0.00000  Uiso   1.00
C10    C     0.13240   0.14490   0.40495   0.00000  Uiso   1.00
C11    C     0.19722   0.18812   0.40785   0.00000  Uiso   1.00
C12    C     0.24593   0.16669   0.25006   0.00000  Uiso   1.00
C13    C     0.13425   0.19182   0.09344   0.00000  Uiso   1.00
C14    C     0.16467   0.16619   0.11660   0.00000  Uiso   1.00
C15    C     0.16537   0.16676   0.38319   0.00000  Uiso   1.00
C16    C     0.16262   0.16445   0.02401   0.00000  Uiso   1.00
C17    C     0.16315   0.16553   0.47564   0.00000  Uiso   1.00
C18    C     0.29063   0.16675   0.24999   0.00000  Uiso   1.00
C19    C     0.04287   0.16668   0.24994   0.00000  Uiso   1.00
C20    C     0.16596   0.16660   0.16499   0.00000  Uiso   1.00
C21    C     0.16654   0.16672   0.33494   0.00000  Uiso   1.00
C22    C     0.13997   0.02472   0.22370   0.00000  Uiso   1.00
C23    C     0.19335   0.30863   0.27632   0.00000  Uiso   1.00
C24    C     0.19334   0.02490   0.27633   0.00000  Uiso   1.00
C25    C     0.13989   0.30845   0.22381   0.00000  Uiso   1.00
C26    C     0.02148   0.13273   0.22510   0.00000  Uiso   1.00
Cu27   Cu    0.16667   0.21355   0.25000   0.00000  Uiso   1.00
Cu28   Cu    0.16667   0.11978   0.25000   0.00000  Uiso   1.00
F29    F     0.22032   0.11268   0.02411   0.00000  Uiso   1.00
F30    F     0.09973   0.12327   0.47250   0.00000  Uiso   1.00
F31    F     0.22664   0.20779   0.47770   0.00000  Uiso   1.00
F32    F     0.10465   0.21585   0.02493   0.00000  Uiso   1.00
H33    H     0.11866   0.04332   0.20255   0.00000  Uiso   1.00
H34    H     0.22154   0.23746   0.36769   0.00000  Uiso   1.00
H35    H     0.11764   0.24581   0.13308   0.00000  Uiso   1.00
H36    H     0.08865   0.19664   0.13881   0.00000  Uiso   1.00
H37    H     0.03553   0.10409   0.16530   0.00000  Uiso   1.00
H38    H     0.03587   0.06570   0.20837   0.00000  Uiso   1.00
H39    H     0.29766   0.26895   0.28711   0.00000  Uiso   1.00
H40    H     0.29907   0.23393   0.33245   0.00000  Uiso   1.00
H41    H     0.29792   0.10079   0.16692   0.00000  Uiso   1.00
H42    H     0.29703   0.06487   0.21168   0.00000  Uiso   1.00
H43    H     0.03655   0.26782   0.29121   0.00000  Uiso   1.00
H44    H     0.21466   0.29003   0.29746   0.00000  Uiso   1.00
H45    H     0.03651   0.22958   0.33441   0.00000  Uiso   1.00
H46    H     0.21470   0.04366   0.29744   0.00000  Uiso   1.00
H47    H     0.11832   0.28972   0.20297   0.00000  Uiso   1.00
H48    H     0.25310   0.12476   0.10530   0.00000  Uiso   1.00
H49    H     0.22144   0.07785   0.10765   0.00000  Uiso   1.00
H50    H     0.09783   0.08848   0.38887   0.00000  Uiso   1.00
H51    H     0.07223   0.14005   0.38869   0.00000  Uiso   1.00
H52    H     0.24535   0.18456   0.36595   0.00000  Uiso   1.00
N53    N     0.16667   0.28402   0.25000   0.00000  Uiso   1.00
N54    N     0.04439   0.23395   0.30116   0.00000  Uiso   1.00
N55    N     0.16667   0.04931   0.25000   0.00000  Uiso   1.00
N56    N     0.22444   0.11318   0.11629   0.00000  Uiso   1.00
N57    N     0.09977   0.12374   0.37987   0.00000  Uiso   1.00
N58    N     0.23188   0.20938   0.38684   0.00000  Uiso   1.00
N59    N     0.10336   0.21839   0.11600   0.00000  Uiso   1.00
N60    N     0.04372   0.09960   0.19853   0.00000  Uiso   1.00
N61    N     0.29008   0.23582   0.29924   0.00000  Uiso   1.00
N62    N     0.28937   0.09823   0.20013   0.00000  Uiso   1.00
O63    O     0.10655   0.20625   0.25000   0.00000  Uiso   1.00
O64    O     0.22679   0.12709   0.25000   0.00000  Uiso   1.00
O65    O     0.22679   0.20625   0.25000   0.00000  Uiso   1.00
O66    O     0.10655   0.12709   0.24999   0.00000  Uiso   1.00
O67    O     0.16666   0.20626   0.18573   0.00000  Uiso   1.00
O68    O     0.16667   0.12707   0.31427   0.00000  Uiso   1.00
O69    O     0.16667   0.20626   0.31427   0.00000  Uiso   1.00
O70    O     0.16666   0.12707   0.18573   0.00000  Uiso   1.00
C71    C     0.42079   0.16666   0.24995   0.00000  Uiso   1.00
C72    C     0.64546   0.20115   0.27433   0.00000  Uiso   1.00
C73    C     0.64513   0.13245   0.22547   0.00000  Uiso   1.00
C74    C     0.35514   0.20075   0.27470   0.00000  Uiso   1.00
C75    C     0.52565   0.13845   0.04684   0.00000  Uiso   1.00
C76    C     0.46469   0.14454   0.45128   0.00000  Uiso   1.00
C77    C     0.52925   0.18727   0.45394   0.00000  Uiso   1.00
C78    C     0.46676   0.19064   0.04725   0.00000  Uiso   1.00
C79    C     0.52675   0.13906   0.09311   0.00000  Uiso   1.00
C80    C     0.46574   0.14490   0.40495   0.00000  Uiso   1.00
C81    C     0.53056   0.18812   0.40785   0.00000  Uiso   1.00
C82    C     0.57927   0.16669   0.25006   0.00000  Uiso   1.00
C83    C     0.46759   0.19182   0.09344   0.00000  Uiso   1.00
C84    C     0.49800   0.16619   0.11660   0.00000  Uiso   1.00
C85    C     0.49870   0.16676   0.38319   0.00000  Uiso   1.00
C86    C     0.49595   0.16445   0.02401   0.00000  Uiso   1.00
C87    C     0.49648   0.16553   0.47564   0.00000  Uiso   1.00
C88    C     0.62396   0.16675   0.24999   0.00000  Uiso   1.00
C89    C     0.37621   0.16668   0.24994   0.00000  Uiso   1.00
C90    C     0.49930   0.16660   0.16499   0.00000  Uiso   1.00
C91    C     0.49987   0.16672   0.33494   0.00000  Uiso   1.00
C92    C     0.47331   0.02472   0.22370   0.00000  Uiso   1.00
C93    C     0.52668   0.30863   0.27632   0.00000  Uiso   1.00
C94    C     0.52668   0.02490   0.27633   0.00000  Uiso   1.00
C95    C     0.47322   0.30845   0.22381   0.00000  Uiso   1.00
C96    C     0.35481   0.13273   0.22510   0.00000  Uiso   1.00
Cu97   Cu    0.50000   0.21355   0.25000   0.00000  Uiso   1.00
Cu98   Cu    0.50000   0.11978   0.25000   0.00000  Uiso   1.00
F99    F     0.55366   0.11268   0.02411   0.00000  Uiso   1.00
F100   F     0.43306   0.12327   0.47250   0.00000  Uiso   1.00
F101   F     0.55997   0.20779   0.47770   0.00000  Uiso   1.00
F102   F     0.43798   0.21585   0.02493   0.00000  Uiso   1.00
H103   H     0.45199   0.04332   0.20255   0.00000  Uiso   1.00
H104   H     0.55488   0.23746   0.36769   0.00000  Uiso   1.00
H105   H     0.45097   0.24581   0.13308   0.00000  Uiso   1.00
H106   H     0.42198   0.19664   0.13881   0.00000  Uiso   1.00
H107   H     0.36886   0.10409   0.16530   0.00000  Uiso   1.00
H108   H     0.36921   0.06570   0.20837   0.00000  Uiso   1.00
H109   H     0.63099   0.26895   0.28711   0.00000  Uiso   1.00
H110   H     0.63240   0.23393   0.33245   0.00000  Uiso   1.00
H111   H     0.63125   0.10079   0.16692   0.00000  Uiso   1.00
H112   H     0.63037   0.06487   0.21168   0.00000  Uiso   1.00
H113   H     0.36989   0.26782   0.29121   0.00000  Uiso   1.00
H114   H     0.54800   0.29003   0.29746   0.00000  Uiso   1.00
H115   H     0.36984   0.22958   0.33441   0.00000  Uiso   1.00
H116   H     0.54803   0.04366   0.29744   0.00000  Uiso   1.00
H117   H     0.45165   0.28972   0.20297   0.00000  Uiso   1.00
H118   H     0.58643   0.12476   0.10530   0.00000  Uiso   1.00
H119   H     0.55477   0.07785   0.10765   0.00000  Uiso   1.00
H120   H     0.43116   0.08848   0.38887   0.00000  Uiso   1.00
H121   H     0.40556   0.14005   0.38869   0.00000  Uiso   1.00
H122   H     0.57869   0.18456   0.36595   0.00000  Uiso   1.00
N123   N     0.50000   0.28402   0.25000   0.00000  Uiso   1.00
N124   N     0.37772   0.23395   0.30116   0.00000  Uiso   1.00
N125   N     0.50000   0.04931   0.25000   0.00000  Uiso   1.00
N126   N     0.55777   0.11318   0.11629   0.00000  Uiso   1.00
N127   N     0.43310   0.12374   0.37987   0.00000  Uiso   1.00
N128   N     0.56521   0.20938   0.38684   0.00000  Uiso   1.00
N129   N     0.43670   0.21839   0.11600   0.00000  Uiso   1.00
N130   N     0.37705   0.09960   0.19853   0.00000  Uiso   1.00
N131   N     0.62342   0.23582   0.29924   0.00000  Uiso   1.00
N132   N     0.62270   0.09823   0.20013   0.00000  Uiso   1.00
O133   O     0.43988   0.20625   0.25000   0.00000  Uiso   1.00
O134   O     0.56012   0.12709   0.25000   0.00000  Uiso   1.00
O135   O     0.56012   0.20625   0.25000   0.00000  Uiso   1.00
O136   O     0.43988   0.12709   0.24999   0.00000  Uiso   1.00
O137   O     0.50000   0.20626   0.18573   0.00000  Uiso   1.00
O138   O     0.50000   0.12707   0.31427   0.00000  Uiso   1.00
O139   O     0.50000   0.20626   0.31427   0.00000  Uiso   1.00
O140   O     0.50000   0.12707   0.18573   0.00000  Uiso   1.00
C141   C     0.75413   0.16666   0.24995   0.00000  Uiso   1.00
C142   C     0.97880   0.20115   0.27433   0.00000  Uiso   1.00
C143   C     0.97847   0.13245   0.22547   0.00000  Uiso   1.00
C144   C     0.68847   0.20075   0.27470   0.00000  Uiso   1.00
C145   C     0.85898   0.13845   0.04684   0.00000  Uiso   1.00
C146   C     0.79802   0.14454   0.45128   0.00000  Uiso   1.00
C147   C     0.86259   0.18727   0.45394   0.00000  Uiso   1.00
C148   C     0.80010   0.19064   0.04725   0.00000  Uiso   1.00
C149   C     0.86008   0.13906   0.09311   0.00000  Uiso   1.00
C150   C     0.79907   0.14490   0.40495   0.00000  Uiso   1.00
C151   C     0.86389   0.18812   0.40785   0.00000  Uiso   1.00
C152   C     0.91260   0.16669   0.25006   0.00000  Uiso   1.00
C153   C     0.80092   0.19182   0.09344   0.00000  Uiso   1.00
C154   C     0.83133   0.16619   0.11660   0.00000  Uiso   1.00
C155   C     0.83204   0.16676   0.38319   0.00000  Uiso   1.00
C156   C     0.82928   0.16445   0.02401   0.00000  Uiso   1.00
C157   C     0.82981   0.16553   0.47564   0.00000  Uiso   1.00
C158   C     0.95730   0.16675   0.24999   0.00000  Uiso   1.00
C159   C     0.70954   0.16668   0.24994   0.00000  Uiso   1.00
C160   C     0.83263   0.16660   0.16499   0.00000  Uiso   1.00
C161   C     0.83321   0.16672   0.33494   0.00000  Uiso   1.00
C162   C     0.80664   0.02472   0.22370   0.00000  Uiso   1.00
C163   C     0.86001   0.30863   0.27632   0.00000  Uiso   1.00
C164   C     0.86001   0.02490   0.27633   0.00000  Uiso   1.00
C165   C     0.80656   0.30845   0.22381   0.00000  Uiso   1.00
C166   C     0.68815   0.13273   0.22510   0.00000  Uiso   1.00
Cu167  Cu    0.83333   0.21355   0.25000   0.00000  Uiso   1.00
Cu168  Cu    0.83333   0.11978   0.25000   0.00000  Uiso   1.00
F169   F     0.88699   0.11268   0.02411   0.00000  Uiso   1.00
F170   F     0.76640   0.12327   0.47250   0.00000  Uiso   1.00
F171   F     0.89330   0.20779   0.47770   0.00000  Uiso   1.00
F172   F     0.77132   0.21585   0.02493   0.00000  Uiso   1.00
H173   H     0.78533   0.04332   0.20255   0.00000  Uiso   1.00
H174   H     0.88821   0.23746   0.36769   0.00000  Uiso   1.00
H175   H     0.78430   0.24581   0.13308   0.00000  Uiso   1.00
H176   H     0.75532   0.19664   0.13881   0.00000  Uiso   1.00
H177   H     0.70220   0.10409   0.16530   0.00000  Uiso   1.00
H178   H     0.70254   0.06570   0.20837   0.00000  Uiso   1.00
H179   H     0.96432   0.26895   0.28711   0.00000  Uiso   1.00
H180   H     0.96574   0.23393   0.33245   0.00000  Uiso   1.00
H181   H     0.96459   0.10079   0.16692   0.00000  Uiso   1.00
H182   H     0.96370   0.06487   0.21168   0.00000  Uiso   1.00
H183   H     0.70322   0.26782   0.29121   0.00000  Uiso   1.00
H184   H     0.88133   0.29003   0.29746   0.00000  Uiso   1.00
H185   H     0.70317   0.22958   0.33441   0.00000  Uiso   1.00
H186   H     0.88137   0.04366   0.29744   0.00000  Uiso   1.00
H187   H     0.78498   0.28972   0.20297   0.00000  Uiso   1.00
H188   H     0.91977   0.12476   0.10530   0.00000  Uiso   1.00
H189   H     0.88810   0.07785   0.10765   0.00000  Uiso   1.00
H190   H     0.76450   0.08848   0.38887   0.00000  Uiso   1.00
H191   H     0.73890   0.14005   0.38869   0.00000  Uiso   1.00
H192   H     0.91202   0.18456   0.36595   0.00000  Uiso   1.00
N193   N     0.83333   0.28402   0.25000   0.00000  Uiso   1.00
N194   N     0.71105   0.23395   0.30116   0.00000  Uiso   1.00
N195   N     0.83333   0.04931   0.25000   0.00000  Uiso   1.00
N196   N     0.89110   0.11318   0.11629   0.00000  Uiso   1.00
N197   N     0.76643   0.12374   0.37987   0.00000  Uiso   1.00
N198   N     0.89854   0.20938   0.38684   0.00000  Uiso   1.00
N199   N     0.77003   0.21839   0.11600   0.00000  Uiso   1.00
N200   N     0.71039   0.09960   0.19853   0.00000  Uiso   1.00
N201   N     0.95675   0.23582   0.29924   0.00000  Uiso   1.00
N202   N     0.95604   0.09823   0.20013   0.00000  Uiso   1.00
O203   O     0.77321   0.20625   0.25000   0.00000  Uiso   1.00
O204   O     0.89345   0.12709   0.25000   0.00000  Uiso   1.00
O205   O     0.89345   0.20625   0.25000   0.00000  Uiso   1.00
O206   O     0.77321   0.12709   0.24999   0.00000  Uiso   1.00
O207   O     0.83333   0.20626   0.18573   0.00000  Uiso   1.00
O208   O     0.83334   0.12707   0.31427   0.00000  Uiso   1.00
O209   O     0.83334   0.20626   0.31427   0.00000  Uiso   1.00
O210   O     0.83333   0.12707   0.18573   0.00000  Uiso   1.00
C211   C     0.08746   0.49999   0.24995   0.00000  Uiso   1.00
C212   C     0.31213   0.53449   0.27433   0.00000  Uiso   1.00
C213   C     0.31180   0.46579   0.22547   0.00000  Uiso   1.00
C214   C     0.02180   0.53409   0.27470   0.00000  Uiso   1.00
C215   C     0.19232   0.47179   0.04684   0.00000  Uiso   1.00
C216   C     0.13135   0.47788   0.45128   0.00000  Uiso   1.00
C217   C     0.19592   0.52060   0.45394   0.00000  Uiso   1.00
C218   C     0.13343   0.52398   0.04725   0.00000  Uiso   1.00
C219   C     0.19341   0.47240   0.09311   0.00000  Uiso   1.00
C220   C     0.13240   0.47823   0.40495   0.00000  Uiso   1.00
C221   C     0.19722   0.52145   0.40785   0.00000  Uiso   1.00
C222   C     0.24593   0.50002   0.25006   0.00000  Uiso   1.00
C223   C     0.13425   0.52515   0.09344   0.00000  Uiso   1.00
C224   C     0.16467   0.49953   0.11660   0.00000  Uiso   1.00
C225   C     0.16537   0.50010   0.38319   0.00000  Uiso   1.00
C226   C     0.16262   0.49778   0.02401   0.00000  Uiso   1.00
C227   C     0.16315   0.49886   0.47564   0.00000  Uiso   1.00
C228   C     0.29063   0.50008   0.24999   0.00000  Uiso   1.00
C229   C     0.04287   0.50001   0.24994   0.00000  Uiso   1.00
C230   C     0.16596   0.49993   0.16499   0.00000  Uiso   1.00
C231   C     0.16654   0.50006   0.33494   0.00000  Uiso   1.00
C232   C     0.13997   0.35805   0.22370   0.00000  Uiso   1.00
C233   C     0.19335   0.64196   0.27632   0.00000  Uiso   1.00
C234   C     0.19334   0.35823   0.27633   0.00000  Uiso   1.00
C235   C     0.13989   0.64178   0.22381   0.00000  Uiso   1.00
C236   C     0.02148   0.46606   0.22510   0.00000  Uiso   1.00
Cu237  Cu    0.16667   0.54689   0.25000   0.00000  Uiso   1.00
Cu238  Cu    0.16667   0.45311   0.25000   0.00000  Uiso   1.00
F239   F     0.22032   0.44601   0.02411   0.00000  Uiso   1.00
F240   F     0.09973   0.45660   0.47250   0.00000  Uiso   1.00
F241   F     0.22664   0.54112   0.47770   0.00000  Uiso   1.00
F242   F     0.10465   0.54918   0.02493   0.00000  Uiso   1.00
H243   H     0.11866   0.37666   0.20255   0.00000  Uiso   1.00
H244   H     0.22154   0.57080   0.36769   0.00000  Uiso   1.00
H245   H     0.11764   0.57914   0.13308   0.00000  Uiso   1.00
H246   H     0.08865   0.52997   0.13881   0.00000  Uiso   1.00
H247   H     0.03553   0.43742   0.16530   0.00000  Uiso   1.00
H248   H     0.03587   0.39904   0.20837   0.00000  Uiso   1.00
H249   H     0.29766   0.60229   0.28711   0.00000  Uiso   1.00
H250   H     0.29907   0.56727   0.33245   0.00000  Uiso   1.00
H251   H     0.29792   0.43412   0.16692   0.00000  Uiso   1.00
H252   H     0.29703   0.39821   0.21168   0.00000  Uiso   1.00
H253   H     0.03655   0.60116   0.29121   0.00000  Uiso   1.00
H254   H     0.21466   0.62336   0.29746   0.00000  Uiso   1.00
H255   H     0.03651   0.56291   0.33441   0.00000  Uiso   1.00
H256   H     0.21470   0.37700   0.29744   0.00000  Uiso   1.00
H257   H     0.11832   0.62306   0.20297   0.00000  Uiso   1.00
H258   H     0.25310   0.45810   0.10530   0.00000  Uiso   1.00
H259   H     0.22144   0.41119   0.10765   0.00000  Uiso   1.00
H260   H     0.09783   0.42182   0.38887   0.00000  Uiso   1.00
H261   H     0.07223   0.47338   0.38869   0.00000  Uiso   1.00
H262   H     0.24535   0.51789   0.36595   0.00000  Uiso   1.00
N263   N     0.16667   0.61736   0.25000   0.00000  Uiso   1.00
N264   N     0.04439   0.56728   0.30116   0.00000  Uiso   1.00
N265   N     0.16667   0.38264   0.25000   0.00000  Uiso   1.00
N266   N     0.22444   0.44651   0.11629   0.00000  Uiso   1.00
N267   N     0.09977   0.45708   0.37987   0.00000  Uiso   1.00
N268   N     0.23188   0.54272   0.38684   0.00000  Uiso   1.00
N269   N     0.10336   0.55172   0.11600   0.00000  Uiso   1.00
N270   N     0.04372   0.43293   0.19853   0.00000  Uiso   1.00
N271   N     0.29008   0.56915   0.29924   0.00000  Uiso   1.00
N272   N     0.28937   0.43156   0.20013   0.00000  Uiso   1.00
O273   O     0.10655   0.53958   0.25000   0.00000  Uiso   1.00
O274   O     0.22679   0.46042   0.25000   0.00000  Uiso   1.00
O275   O     0.22679   0.53958   0.25000   0.00000  Uiso   1.00
O276   O     0.10655   0.46042   0.24999   0.00000  Uiso   1.00
O277   O     0.16666   0.53959   0.18573   0.00000  Uiso   1.00
O278   O     0.16667   0.46041   0.31427   0.00000  Uiso   1.00
O279   O     0.16667   0.53959   0.31427   0.00000  Uiso   1.00
O280   O     0.16666   0.46041   0.18573   0.00000  Uiso   1.00
C281   C     0.42079   0.49999   0.24995   0.00000  Uiso   1.00
C282   C     0.64546   0.53449   0.27433   0.00000  Uiso   1.00
C283   C     0.64513   0.46579   0.22547   0.00000  Uiso   1.00
C284   C     0.35514   0.53409   0.27470   0.00000  Uiso   1.00
C285   C     0.52565   0.47179   0.04684   0.00000  Uiso   1.00
C286   C     0.46469   0.47788   0.45128   0.00000  Uiso   1.00
C287   C     0.52925   0.52060   0.45394   0.00000  Uiso   1.00
C288   C     0.46676   0.52398   0.04725   0.00000  Uiso   1.00
C289   C     0.52675   0.47240   0.09311   0.00000  Uiso   1.00
C290   C     0.46574   0.47823   0.40495   0.00000  Uiso   1.00
C291   C     0.53056   0.52145   0.40785   0.00000  Uiso   1.00
C292   C     0.57927   0.50002   0.25006   0.00000  Uiso   1.00
C293   C     0.46759   0.52515   0.09344   0.00000  Uiso   1.00
C294   C     0.49800   0.49953   0.11660   0.00000  Uiso   1.00
C295   C     0.49870   0.50010   0.38319   0.00000  Uiso   1.00
C296   C     0.49595   0.49778   0.02401   0.00000  Uiso   1.00
C297   C     0.49648   0.49886   0.47564   0.00000  Uiso   1.00
C298   C     0.62396   0.50008   0.24999   0.00000  Uiso   1.00
C299   C     0.37621   0.50001   0.24994   0.00000  Uiso   1.00
C300   C     0.49930   0.49993   0.16499   0.00000  Uiso   1.00
C301   C     0.49987   0.50006   0.33494   0.00000  Uiso   1.00
C302   C     0.47331   0.35805   0.22370   0.00000  Uiso   1.00
C303   C     0.52668   0.64196   0.27632   0.00000  Uiso   1.00
C304   C     0.52668   0.35823   0.27633   0.00000  Uiso   1.00
C305   C     0.47322   0.64178   0.22381   0.00000  Uiso   1.00
C306   C     0.35481   0.46606   0.22510   0.00000  Uiso   1.00
Cu307  Cu    0.50000   0.54689   0.25000   0.00000  Uiso   1.00
Cu308  Cu    0.50000   0.45311   0.25000   0.00000  Uiso   1.00
F309   F     0.55366   0.44601   0.02411   0.00000  Uiso   1.00
F310   F     0.43306   0.45660   0.47250   0.00000  Uiso   1.00
F311   F     0.55997   0.54112   0.47770   0.00000  Uiso   1.00
F312   F     0.43798   0.54918   0.02493   0.00000  Uiso   1.00
H313   H     0.45199   0.37666   0.20255   0.00000  Uiso   1.00
H314   H     0.55488   0.57080   0.36769   0.00000  Uiso   1.00
H315   H     0.45097   0.57914   0.13308   0.00000  Uiso   1.00
H316   H     0.42198   0.52997   0.13881   0.00000  Uiso   1.00
H317   H     0.36886   0.43742   0.16530   0.00000  Uiso   1.00
H318   H     0.36921   0.39904   0.20837   0.00000  Uiso   1.00
H319   H     0.63099   0.60229   0.28711   0.00000  Uiso   1.00
H320   H     0.63240   0.56727   0.33245   0.00000  Uiso   1.00
H321   H     0.63125   0.43412   0.16692   0.00000  Uiso   1.00
H322   H     0.63037   0.39821   0.21168   0.00000  Uiso   1.00
H323   H     0.36989   0.60116   0.29121   0.00000  Uiso   1.00
H324   H     0.54800   0.62336   0.29746   0.00000  Uiso   1.00
H325   H     0.36984   0.56291   0.33441   0.00000  Uiso   1.00
H326   H     0.54803   0.37700   0.29744   0.00000  Uiso   1.00
H327   H     0.45165   0.62306   0.20297   0.00000  Uiso   1.00
H328   H     0.58643   0.45810   0.10530   0.00000  Uiso   1.00
H329   H     0.55477   0.41119   0.10765   0.00000  Uiso   1.00
H330   H     0.43116   0.42182   0.38887   0.00000  Uiso   1.00
H331   H     0.40556   0.47338   0.38869   0.00000  Uiso   1.00
H332   H     0.57869   0.51789   0.36595   0.00000  Uiso   1.00
N333   N     0.50000   0.61736   0.25000   0.00000  Uiso   1.00
N334   N     0.37772   0.56728   0.30116   0.00000  Uiso   1.00
N335   N     0.50000   0.38264   0.25000   0.00000  Uiso   1.00
N336   N     0.55777   0.44651   0.11629   0.00000  Uiso   1.00
N337   N     0.43310   0.45708   0.37987   0.00000  Uiso   1.00
N338   N     0.56521   0.54272   0.38684   0.00000  Uiso   1.00
N339   N     0.43670   0.55172   0.11600   0.00000  Uiso   1.00
N340   N     0.37705   0.43293   0.19853   0.00000  Uiso   1.00
N341   N     0.62342   0.56915   0.29924   0.00000  Uiso   1.00
N342   N     0.62270   0.43156   0.20013   0.00000  Uiso   1.00
O343   O     0.43988   0.53958   0.25000   0.00000  Uiso   1.00
O344   O     0.56012   0.46042   0.25000   0.00000  Uiso   1.00
O345   O     0.56012   0.53958   0.25000   0.00000  Uiso   1.00
O346   O     0.43988   0.46042   0.24999   0.00000  Uiso   1.00
O347   O     0.50000   0.53959   0.18573   0.00000  Uiso   1.00
O348   O     0.50000   0.46041   0.31427   0.00000  Uiso   1.00
O349   O     0.50000   0.53959   0.31427   0.00000  Uiso   1.00
O350   O     0.50000   0.46041   0.18573   0.00000  Uiso   1.00
C351   C     0.75413   0.49999   0.24995   0.00000  Uiso   1.00
C352   C     0.97880   0.53449   0.27433   0.00000  Uiso   1.00
C353   C     0.97847   0.46579   0.22547   0.00000  Uiso   1.00
C354   C     0.68847   0.53409   0.27470   0.00000  Uiso   1.00
C355   C     0.85898   0.47179   0.04684   0.00000  Uiso   1.00
C356   C     0.79802   0.47788   0.45128   0.00000  Uiso   1.00
C357   C     0.86259   0.52060   0.45394   0.00000  Uiso   1.00
C358   C     0.80010   0.52398   0.04725   0.00000  Uiso   1.00
C359   C     0.86008   0.47240   0.09311   0.00000  Uiso   1.00
C360   C     0.79907   0.47823   0.40495   0.00000  Uiso   1.00
C361   C     0.86389   0.52145   0.40785   0.00000  Uiso   1.00
C362   C     0.91260   0.50002   0.25006   0.00000  Uiso   1.00
C363   C     0.80092   0.52515   0.09344   0.00000  Uiso   1.00
C364   C     0.83133   0.49953   0.11660   0.00000  Uiso   1.00
C365   C     0.83204   0.50010   0.38319   0.00000  Uiso   1.00
C366   C     0.82928   0.49778   0.02401   0.00000  Uiso   1.00
C367   C     0.82981   0.49886   0.47564   0.00000  Uiso   1.00
C368   C     0.95730   0.50008   0.24999   0.00000  Uiso   1.00
C369   C     0.70954   0.50001   0.24994   0.00000  Uiso   1.00
C370   C     0.83263   0.49993   0.16499   0.00000  Uiso   1.00
C371   C     0.83321   0.50006   0.33494   0.00000  Uiso   1.00
C372   C     0.80664   0.35805   0.22370   0.00000  Uiso   1.00
C373   C     0.86001   0.64196   0.27632   0.00000  Uiso   1.00
C374   C     0.86001   0.35823   0.27633   0.00000  Uiso   1.00
C375   C     0.80656   0.64178   0.22381   0.00000  Uiso   1.00
C376   C     0.68815   0.46606   0.22510   0.00000  Uiso   1.00
Cu377  Cu    0.83333   0.54689   0.25000   0.00000  Uiso   1.00
Cu378  Cu    0.83333   0.45311   0.25000   0.00000  Uiso   1.00
F379   F     0.88699   0.44601   0.02411   0.00000  Uiso   1.00
F380   F     0.76640   0.45660   0.47250   0.00000  Uiso   1.00
F381   F     0.89330   0.54112   0.47770   0.00000  Uiso   1.00
F382   F     0.77132   0.54918   0.02493   0.00000  Uiso   1.00
H383   H     0.78533   0.37666   0.20255   0.00000  Uiso   1.00
H384   H     0.88821   0.57080   0.36769   0.00000  Uiso   1.00
H385   H     0.78430   0.57914   0.13308   0.00000  Uiso   1.00
H386   H     0.75532   0.52997   0.13881   0.00000  Uiso   1.00
H387   H     0.70220   0.43742   0.16530   0.00000  Uiso   1.00
H388   H     0.70254   0.39904   0.20837   0.00000  Uiso   1.00
H389   H     0.96432   0.60229   0.28711   0.00000  Uiso   1.00
H390   H     0.96574   0.56727   0.33245   0.00000  Uiso   1.00
H391   H     0.96459   0.43412   0.16692   0.00000  Uiso   1.00
H392   H     0.96370   0.39821   0.21168   0.00000  Uiso   1.00
H393   H     0.70322   0.60116   0.29121   0.00000  Uiso   1.00
H394   H     0.88133   0.62336   0.29746   0.00000  Uiso   1.00
H395   H     0.70317   0.56291   0.33441   0.00000  Uiso   1.00
H396   H     0.88137   0.37700   0.29744   0.00000  Uiso   1.00
H397   H     0.78498   0.62306   0.20297   0.00000  Uiso   1.00
H398   H     0.91977   0.45810   0.10530   0.00000  Uiso   1.00
H399   H     0.88810   0.41119   0.10765   0.00000  Uiso   1.00
H400   H     0.76450   0.42182   0.38887   0.00000  Uiso   1.00
H401   H     0.73890   0.47338   0.38869   0.00000  Uiso   1.00
H402   H     0.91202   0.51789   0.36595   0.00000  Uiso   1.00
N403   N     0.83333   0.61736   0.25000   0.00000  Uiso   1.00
N404   N     0.71105   0.56728   0.30116   0.00000  Uiso   1.00
N405   N     0.83333   0.38264   0.25000   0.00000  Uiso   1.00
N406   N     0.89110   0.44651   0.11629   0.00000  Uiso   1.00
N407   N     0.76643   0.45708   0.37987   0.00000  Uiso   1.00
N408   N     0.89854   0.54272   0.38684   0.00000  Uiso   1.00
N409   N     0.77003   0.55172   0.11600   0.00000  Uiso   1.00
N410   N     0.71039   0.43293   0.19853   0.00000  Uiso   1.00
N411   N     0.95675   0.56915   0.29924   0.00000  Uiso   1.00
N412   N     0.95604   0.43156   0.20013   0.00000  Uiso   1.00
O413   O     0.77321   0.53958   0.25000   0.00000  Uiso   1.00
O414   O     0.89345   0.46042   0.25000   0.00000  Uiso   1.00
O415   O     0.89345   0.53958   0.25000   0.00000  Uiso   1.00
O416   O     0.77321   0.46042   0.24999   0.00000  Uiso   1.00
O417   O     0.83333   0.53959   0.18573   0.00000  Uiso   1.00
O418   O     0.83334   0.46041   0.31427   0.00000  Uiso   1.00
O419   O     0.83334   0.53959   0.31427   0.00000  Uiso   1.00
O420   O     0.83333   0.46041   0.18573   0.00000  Uiso   1.00
C421   C     0.08746   0.83333   0.24995   0.00000  Uiso   1.00
C422   C     0.31213   0.86782   0.27433   0.00000  Uiso   1.00
C423   C     0.31180   0.79912   0.22547   0.00000  Uiso   1.00
C424   C     0.02180   0.86742   0.27470   0.00000  Uiso   1.00
C425   C     0.19232   0.80512   0.04684   0.00000  Uiso   1.00
C426   C     0.13135   0.81121   0.45128   0.00000  Uiso   1.00
C427   C     0.19592   0.85394   0.45394   0.00000  Uiso   1.00
C428   C     0.13343   0.85731   0.04725   0.00000  Uiso   1.00
C429   C     0.19341   0.80573   0.09311   0.00000  Uiso   1.00
C430   C     0.13240   0.81157   0.40495   0.00000  Uiso   1.00
C431   C     0.19722   0.85479   0.40785   0.00000  Uiso   1.00
C432   C     0.24593   0.83336   0.25006   0.00000  Uiso   1.00
C433   C     0.13425   0.85849   0.09344   0.00000  Uiso   1.00
C434   C     0.16467   0.83286   0.11660   0.00000  Uiso   1.00
C435   C     0.16537   0.83343   0.38319   0.00000  Uiso   1.00
C436   C     0.16262   0.83111   0.02401   0.00000  Uiso   1.00
C437   C     0.16315   0.83220   0.47564   0.00000  Uiso   1.00
C438   C     0.29063   0.83342   0.24999   0.00000  Uiso   1.00
C439   C     0.04287   0.83334   0.24994   0.00000  Uiso   1.00
C440   C     0.16596   0.83327   0.16499   0.00000  Uiso   1.00
C441   C     0.16654   0.83339   0.33494   0.00000  Uiso   1.00
C442   C     0.13997   0.69138   0.22370   0.00000  Uiso   1.00
C443   C     0.19335   0.97529   0.27632   0.00000  Uiso   1.00
C444   C     0.19334   0.69157   0.27633   0.00000  Uiso   1.00
C445   C     0.13989   0.97512   0.22381   0.00000  Uiso   1.00
C446   C     0.02148   0.79940   0.22510   0.00000  Uiso   1.00
Cu447  Cu    0.16667   0.88022   0.25000   0.00000  Uiso   1.00
Cu448  Cu    0.16667   0.78645   0.25000   0.00000  Uiso   1.00
F449   F     0.22032   0.77935   0.02411   0.00000  Uiso   1.00
F450   F     0.09973   0.78993   0.47250   0.00000  Uiso   1.00
F451   F     0.22664   0.87446   0.47770   0.00000  Uiso   1.00
F452   F     0.10465   0.88251   0.02493   0.00000  Uiso   1.00
H453   H     0.11866   0.70999   0.20255   0.00000  Uiso   1.00
H454   H     0.22154   0.90413   0.36769   0.00000  Uiso   1.00
H455   H     0.11764   0.91248   0.13308   0.00000  Uiso   1.00
H456   H     0.08865   0.86331   0.13881   0.00000  Uiso   1.00
H457   H     0.03553   0.77075   0.16530   0.00000  Uiso   1.00
H458   H     0.03587   0.73237   0.20837   0.00000  Uiso   1.00
H459   H     0.29766   0.93562   0.28711   0.00000  Uiso   1.00
H460   H     0.29907   0.90060   0.33245   0.00000  Uiso   1.00
H461   H     0.29792   0.76746   0.16692   0.00000  Uiso   1.00
H462   H     0.29703   0.73154   0.21168   0.00000  Uiso   1.00
H463   H     0.03655   0.93449   0.29121   0.00000  Uiso   1.00
H464   H     0.21466   0.95670   0.29746   0.00000  Uiso   1.00
H465   H     0.03651   0.89624   0.33441   0.00000  Uiso   1.00
H466   H     0.21470   0.71033   0.29744   0.00000  Uiso   1.00
H467   H     0.11832   0.95639   0.20297   0.00000  Uiso   1.00
H468   H     0.25310   0.79143   0.10530   0.00000  Uiso   1.00
H469   H     0.22144   0.74452   0.10765   0.00000  Uiso   1.00
H470   H     0.09783   0.75515   0.38887   0.00000  Uiso   1.00
H471   H     0.07223   0.80671   0.38869   0.00000  Uiso   1.00
H472   H     0.24535   0.85122   0.36595   0.00000  Uiso   1.00
N473   N     0.16667   0.95069   0.25000   0.00000  Uiso   1.00
N474   N     0.04439   0.90061   0.30116   0.00000  Uiso   1.00
N475   N     0.16667   0.71598   0.25000   0.00000  Uiso   1.00
N476   N     0.22444   0.77984   0.11629   0.00000  Uiso   1.00
N477   N     0.09977   0.79041   0.37987   0.00000  Uiso   1.00
N478   N     0.23188   0.87605   0.38684   0.00000  Uiso   1.00
N479   N     0.10336   0.88505   0.11600   0.00000  Uiso   1.00
N480   N     0.04372   0.76626   0.19853   0.00000  Uiso   1.00
N481   N     0.29008   0.90249   0.29924   0.00000  Uiso   1.00
N482   N     0.28937   0.76490   0.20013   0.00000  Uiso   1.00
O483   O     0.10655   0.87291   0.25000   0.00000  Uiso   1.00
O484   O     0.22679   0.79375   0.25000   0.00000  Uiso   1.00
O485   O     0.22679   0.87291   0.25000   0.00000  Uiso   1.00
O486   O     0.10655   0.79375   0.24999   0.00000  Uiso   1.00
O487   O     0.16666   0.87293   0.18573   0.00000  Uiso   1.00
O488   O     0.16667   0.79374   0.31427   0.00000  Uiso   1.00
O489   O     0.16667   0.87293   0.31427   0.00000  Uiso   1.00
O490   O     0.16666   0.79374   0.18573   0.00000  Uiso   1.00
C491   C     0.42079   0.83333   0.24995   0.00000  Uiso   1.00
C492   C     0.64546   0.86782   0.27433   0.00000  Uiso   1.00
C493   C     0.64513   0.79912   0.22547   0.00000  Uiso   1.00
C494   C     0.35514   0.86742   0.27470   0.00000  Uiso   1.00
C495   C     0.52565   0.80512   0.04684   0.00000  Uiso   1.00
C496   C     0.46469   0.81121   0.45128   0.00000  Uiso   1.00
C497   C     0.52925   0.85394   0.45394   0.00000  Uiso   1.00
C498   C     0.46676   0.85731   0.04725   0.00000  Uiso   1.00
C499   C     0.52675   0.80573   0.09311   0.00000  Uiso   1.00
C500   C     0.46574   0.81157   0.40495   0.00000  Uiso   1.00
C501   C     0.53056   0.85479   0.40785   0.00000  Uiso   1.00
C502   C     0.57927   0.83336   0.25006   0.00000  Uiso   1.00
C503   C     0.46759   0.85849   0.09344   0.00000  Uiso   1.00
C504   C     0.49800   0.83286   0.11660   0.00000  Uiso   1.00
C505   C     0.49870   0.83343   0.38319   0.00000  Uiso   1.00
C506   C     0.49595   0.83111   0.02401   0.00000  Uiso   1.00
C507   C     0.49648   0.83220   0.47564   0.00000  Uiso   1.00
C508   C     0.62396   0.83342   0.24999   0.00000  Uiso   1.00
C509   C     0.37621   0.83334   0.24994   0.00000  Uiso   1.00
C510   C     0.49930   0.83327   0.16499   0.00000  Uiso   1.00
C511   C     0.49987   0.83339   0.33494   0.00000  Uiso   1.00
C512   C     0.47331   0.69138   0.22370   0.00000  Uiso   1.00
C513   C     0.52668   0.97529   0.27632   0.00000  Uiso   1.00
C514   C     0.52668   0.69157   0.27633   0.00000  Uiso   1.00
C515   C     0.47322   0.97512   0.22381   0.00000  Uiso   1.00
C516   C     0.35481   0.79940   0.22510   0.00000  Uiso   1.00
Cu517  Cu    0.50000   0.88022   0.25000   0.00000  Uiso   1.00
Cu518  Cu    0.50000   0.78645   0.25000   0.00000  Uiso   1.00
F519   F     0.55366   0.77935   0.02411   0.00000  Uiso   1.00
F520   F     0.43306   0.78993   0.47250   0.00000  Uiso   1.00
F521   F     0.55997   0.87446   0.47770   0.00000  Uiso   1.00
F522   F     0.43798   0.88251   0.02493   0.00000  Uiso   1.00
H523   H     0.45199   0.70999   0.20255   0.00000  Uiso   1.00
H524   H     0.55488   0.90413   0.36769   0.00000  Uiso   1.00
H525   H     0.45097   0.91248   0.13308   0.00000  Uiso   1.00
H526   H     0.42198   0.86331   0.13881   0.00000  Uiso   1.00
H527   H     0.36886   0.77075   0.16530   0.00000  Uiso   1.00
H528   H     0.36921   0.73237   0.20837   0.00000  Uiso   1.00
H529   H     0.63099   0.93562   0.28711   0.00000  Uiso   1.00
H530   H     0.63240   0.90060   0.33245   0.00000  Uiso   1.00
H531   H     0.63125   0.76746   0.16692   0.00000  Uiso   1.00
H532   H     0.63037   0.73154   0.21168   0.00000  Uiso   1.00
H533   H     0.36989   0.93449   0.29121   0.00000  Uiso   1.00
H534   H     0.54800   0.95670   0.29746   0.00000  Uiso   1.00
H535   H     0.36984   0.89624   0.33441   0.00000  Uiso   1.00
H536   H     0.54803   0.71033   0.29744   0.00000  Uiso   1.00
H537   H     0.45165   0.95639   0.20297   0.00000  Uiso   1.00
H538   H     0.58643   0.79143   0.10530   0.00000  Uiso   1.00
H539   H     0.55477   0.74452   0.10765   0.00000  Uiso   1.00
H540   H     0.43116   0.75515   0.38887   0.00000  Uiso   1.00
H541   H     0.40556   0.80671   0.38869   0.00000  Uiso   1.00
H542   H     0.57869   0.85122   0.36595   0.00000  Uiso   1.00
N543   N     0.50000   0.95069   0.25000   0.00000  Uiso   1.00
N544   N     0.37772   0.90061   0.30116   0.00000  Uiso   1.00
N545   N     0.50000   0.71598   0.25000   0.00000  Uiso   1.00
N546   N     0.55777   0.77984   0.11629   0.00000  Uiso   1.00
N547   N     0.43310   0.79041   0.37987   0.00000  Uiso   1.00
N548   N     0.56521   0.87605   0.38684   0.00000  Uiso   1.00
N549   N     0.43670   0.88505   0.11600   0.00000  Uiso   1.00
N550   N     0.37705   0.76626   0.19853   0.00000  Uiso   1.00
N551   N     0.62342   0.90249   0.29924   0.00000  Uiso   1.00
N552   N     0.62270   0.76490   0.20013   0.00000  Uiso   1.00
O553   O     0.43988   0.87291   0.25000   0.00000  Uiso   1.00
O554   O     0.56012   0.79375   0.25000   0.00000  Uiso   1.00
O555   O     0.56012   0.87291   0.25000   0.00000  Uiso   1.00
O556   O     0.43988   0.79375   0.24999   0.00000  Uiso   1.00
O557   O     0.50000   0.87293   0.18573   0.00000  Uiso   1.00
O558   O     0.50000   0.79374   0.31427   0.00000  Uiso   1.00
O559   O     0.50000   0.87293   0.31427   0.00000  Uiso   1.00
O560   O     0.50000   0.79374   0.18573   0.00000  Uiso   1.00
C561   C     0.75413   0.83333   0.24995   0.00000  Uiso   1.00
C562   C     0.97880   0.86782   0.27433   0.00000  Uiso   1.00
C563   C     0.97847   0.79912   0.22547   0.00000  Uiso   1.00
C564   C     0.68847   0.86742   0.27470   0.00000  Uiso   1.00
C565   C     0.85898   0.80512   0.04684   0.00000  Uiso   1.00
C566   C     0.79802   0.81121   0.45128   0.00000  Uiso   1.00
C567   C     0.86259   0.85394   0.45394   0.00000  Uiso   1.00
C568   C     0.80010   0.85731   0.04725   0.00000  Uiso   1.00
C569   C     0.86008   0.80573   0.09311   0.00000  Uiso   1.00
C570   C     0.79907   0.81157   0.40495   0.00000  Uiso   1.00
C571   C     0.86389   0.85479   0.40785   0.00000  Uiso   1.00
C572   C     0.91260   0.83336   0.25006   0.00000  Uiso   1.00
C573   C     0.80092   0.85849   0.09344   0.00000  Uiso   1.00
C574   C     0.83133   0.83286   0.11660   0.00000  Uiso   1.00
C575   C     0.83204   0.83343   0.38319   0.00000  Uiso   1.00
C576   C     0.82928   0.83111   0.02401   0.00000  Uiso   1.00
C577   C     0.82981   0.83220   0.47564   0.00000  Uiso   1.00
C578   C     0.95730   0.83342   0.24999   0.00000  Uiso   1.00
C579   C     0.70954   0.83334   0.24994   0.00000  Uiso   1.00
C580   C     0.83263   0.83327   0.16499   0.00000  Uiso   1.00
C581   C     0.83321   0.83339   0.33494   0.00000  Uiso   1.00
C582   C     0.80664   0.69138   0.22370   0.00000  Uiso   1.00
C583   C     0.86001   0.97529   0.27632   0.00000  Uiso   1.00
C584   C     0.86001   0.69157   0.27633   0.00000  Uiso   1.00
C585   C     0.80656   0.97512   0.22381   0.00000  Uiso   1.00
C586   C     0.68815   0.79940   0.22510   0.00000  Uiso   1.00
Cu587  Cu    0.83333   0.88022   0.25000   0.00000  Uiso   1.00
Cu588  Cu    0.83333   0.78645   0.25000   0.00000  Uiso   1.00
F589   F     0.88699   0.77935   0.02411   0.00000  Uiso   1.00
F590   F     0.76640   0.78993   0.47250   0.00000  Uiso   1.00
F591   F     0.89330   0.87446   0.47770   0.00000  Uiso   1.00
F592   F     0.77132   0.88251   0.02493   0.00000  Uiso   1.00
H593   H     0.78533   0.70999   0.20255   0.00000  Uiso   1.00
H594   H     0.88821   0.90413   0.36769   0.00000  Uiso   1.00
H595   H     0.78430   0.91248   0.13308   0.00000  Uiso   1.00
H596   H     0.75532   0.86331   0.13881   0.00000  Uiso   1.00
H597   H     0.70220   0.77075   0.16530   0.00000  Uiso   1.00
H598   H     0.70254   0.73237   0.20837   0.00000  Uiso   1.00
H599   H     0.96432   0.93562   0.28711   0.00000  Uiso   1.00
H600   H     0.96574   0.90060   0.33245   0.00000  Uiso   1.00
H601   H     0.96459   0.76746   0.16692   0.00000  Uiso   1.00
H602   H     0.96370   0.73154   0.21168   0.00000  Uiso   1.00
H603   H     0.70322   0.93449   0.29121   0.00000  Uiso   1.00
H604   H     0.88133   0.95670   0.29746   0.00000  Uiso   1.00
H605   H     0.70317   0.89624   0.33441   0.00000  Uiso   1.00
H606   H     0.88137   0.71033   0.29744   0.00000  Uiso   1.00
H607   H     0.78498   0.95639   0.20297   0.00000  Uiso   1.00
H608   H     0.91977   0.79143   0.10530   0.00000  Uiso   1.00
H609   H     0.88810   0.74452   0.10765   0.00000  Uiso   1.00
H610   H     0.76450   0.75515   0.38887   0.00000  Uiso   1.00
H611   H     0.73890   0.80671   0.38869   0.00000  Uiso   1.00
H612   H     0.91202   0.85122   0.36595   0.00000  Uiso   1.00
N613   N     0.83333   0.95069   0.25000   0.00000  Uiso   1.00
N614   N     0.71105   0.90061   0.30116   0.00000  Uiso   1.00
N615   N     0.83333   0.71598   0.25000   0.00000  Uiso   1.00
N616   N     0.89110   0.77984   0.11629   0.00000  Uiso   1.00
N617   N     0.76643   0.79041   0.37987   0.00000  Uiso   1.00
N618   N     0.89854   0.87605   0.38684   0.00000  Uiso   1.00
N619   N     0.77003   0.88505   0.11600   0.00000  Uiso   1.00
N620   N     0.71039   0.76626   0.19853   0.00000  Uiso   1.00
N621   N     0.95675   0.90249   0.29924   0.00000  Uiso   1.00
N622   N     0.95604   0.76490   0.20013   0.00000  Uiso   1.00
O623   O     0.77321   0.87291   0.25000   0.00000  Uiso   1.00
O624   O     0.89345   0.79375   0.25000   0.00000  Uiso   1.00
O625   O     0.89345   0.87291   0.25000   0.00000  Uiso   1.00
O626   O     0.77321   0.79375   0.24999   0.00000  Uiso   1.00
O627   O     0.83333   0.87293   0.18573   0.00000  Uiso   1.00
O628   O     0.83334   0.79374   0.31427   0.00000  Uiso   1.00
O629   O     0.83334   0.87293   0.31427   0.00000  Uiso   1.00
O630   O     0.83333   0.79374   0.18573   0.00000  Uiso   1.00
C631   C     0.08746   0.16666   0.74995   0.00000  Uiso   1.00
C632   C     0.31213   0.20115   0.77433   0.00000  Uiso   1.00
C633   C     0.31180   0.13245   0.72547   0.00000  Uiso   1.00
C634   C     0.02180   0.20075   0.77470   0.00000  Uiso   1.00
C635   C     0.19232   0.13845   0.54684   0.00000  Uiso   1.00
C636   C     0.13135   0.14454   0.95128   0.00000  Uiso   1.00
C637   C     0.19592   0.18727   0.95394   0.00000  Uiso   1.00
C638   C     0.13343   0.19064   0.54725   0.00000  Uiso   1.00
C639   C     0.19341   0.13906   0.59311   0.00000  Uiso   1.00
C640   C     0.13240   0.14490   0.90495   0.00000  Uiso   1.00
C641   C     0.19722   0.18812   0.90785   0.00000  Uiso   1.00
C642   C     0.24593   0.16669   0.75006   0.00000  Uiso   1.00
C643   C     0.13425   0.19182   0.59344   0.00000  Uiso   1.00
C644   C     0.16467   0.16619   0.61660   0.00000  Uiso   1.00
C645   C     0.16537   0.16676   0.88319   0.00000  Uiso   1.00
C646   C     0.16262   0.16445   0.52401   0.00000  Uiso   1.00
C647   C     0.16315   0.16553   0.97564   0.00000  Uiso   1.00
C648   C     0.29063   0.16675   0.74999   0.00000  Uiso   1.00
C649   C     0.04287   0.16668   0.74994   0.00000  Uiso   1.00
C650   C     0.16596   0.16660   0.66499   0.00000  Uiso   1.00
C651   C     0.16654   0.16672   0.83494   0.00000  Uiso   1.00
C652   C     0.13997   0.02472   0.72370   0.00000  Uiso   1.00
C653   C     0.19335   0.30863   0.77632   0.00000  Uiso   1.00
C654   C     0.19334   0.02490   0.77633   0.00000  Uiso   1.00
C655   C     0.13989   0.30845   0.72381   0.00000  Uiso   1.00
C656   C     0.02148   0.13273   0.72510   0.00000  Uiso   1.00
Cu657  Cu    0.16667   0.21355   0.75000   0.00000  Uiso   1.00
Cu658  Cu    0.16667   0.11978   0.75000   0.00000  Uiso   1.00
F659   F     0.22032   0.11268   0.52411   0.00000  Uiso   1.00
F660   F     0.09973   0.12327   0.97250   0.00000  Uiso   1.00
F661   F     0.22664   0.20779   0.97770   0.00000  Uiso   1.00
F662   F     0.10465   0.21585   0.52493   0.00000  Uiso   1.00
H663   H     0.11866   0.04332   0.70255   0.00000  Uiso   1.00
H664   H     0.22154   0.23746   0.86769   0.00000  Uiso   1.00
H665   H     0.11764   0.24581   0.63308   0.00000  Uiso   1.00
H666   H     0.08865   0.19664   0.63881   0.00000  Uiso   1.00
H667   H     0.03553   0.10409   0.66530   0.00000  Uiso   1.00
H668   H     0.03587   0.06570   0.70837   0.00000  Uiso   1.00
H669   H     0.29766   0.26895   0.78711   0.00000  Uiso   1.00
H670   H     0.29907   0.23393   0.83245   0.00000  Uiso   1.00
H671   H     0.29792   0.10079   0.66692   0.00000  Uiso   1.00
H672   H     0.29703   0.06487   0.71168   0.00000  Uiso   1.00
H673   H     0.03655   0.26782   0.79121   0.00000  Uiso   1.00
H674   H     0.21466   0.29003   0.79746   0.00000  Uiso   1.00
H675   H     0.03651   0.22958   0.83441   0.00000  Uiso   1.00
H676   H     0.21470   0.04366   0.79744   0.00000  Uiso   1.00
H677   H     0.11832   0.28972   0.70297   0.00000  Uiso   1.00
H678   H     0.25310   0.12476   0.60530   0.00000  Uiso   1.00
H679   H     0.22144   0.07785   0.60765   0.00000  Uiso   1.00
H680   H     0.09783   0.08848   0.88887   0.00000  Uiso   1.00
H681   H     0.07223   0.14005   0.88869   0.00000  Uiso   1.00
H682   H     0.24535   0.18456   0.86595   0.00000  Uiso   1.00
N683   N     0.16667   0.28402   0.75000   0.00000  Uiso   1.00
N684   N     0.04439   0.23395   0.80116   0.00000  Uiso   1.00
N685   N     0.16667   0.04931   0.75000   0.00000  Uiso   1.00
N686   N     0.22444   0.11318   0.61629   0.00000  Uiso   1.00
N687   N     0.09977   0.12374   0.87987   0.00000  Uiso   1.00
N688   N     0.23188   0.20938   0.88684   0.00000  Uiso   1.00
N689   N     0.10336   0.21839   0.61600   0.00000  Uiso   1.00
N690   N     0.04372   0.09960   0.69853   0.00000  Uiso   1.00
N691   N     0.29008   0.23582   0.79924   0.00000  Uiso   1.00
N692   N     0.28937   0.09823   0.70013   0.00000  Uiso   1.00
O693   O     0.10655   0.20625   0.75000   0.00000  Uiso   1.00
O694   O     0.22679   0.12709   0.75000   0.00000  Uiso   1.00
O695   O     0.22679   0.20625   0.75000   0.00000  Uiso   1.00
O696   O     0.10655   0.12709   0.74999   0.00000  Uiso   1.00
O697   O     0.16666   0.20626   0.68573   0.00000  Uiso   1.00
O698   O     0.16667   0.12707   0.81427   0.00000  Uiso   1.00
O699   O     0.16667   0.20626   0.81427   0.00000  Uiso   1.00
O700   O     0.16666   0.12707   0.68573   0.00000  Uiso   1.00
C701   C     0.42079   0.16666   0.74995   0.00000  Uiso   1.00
C702   C     0.64546   0.20115   0.77433   0.00000  Uiso   1.00
C703   C     0.64513   0.13245   0.72547   0.00000  Uiso   1.00
C704   C     0.35514   0.20075   0.77470   0.00000  Uiso   1.00
C705   C     0.52565   0.13845   0.54684   0.00000  Uiso   1.00
C706   C     0.46469   0.14454   0.95128   0.00000  Uiso   1.00
C707   C     0.52925   0.18727   0.95394   0.00000  Uiso   1.00
C708   C     0.46676   0.19064   0.54725   0.00000  Uiso   1.00
C709   C     0.52675   0.13906   0.59311   0.00000  Uiso   1.00
C710   C     0.46574   0.14490   0.90495   0.00000  Uiso   1.00
C711   C     0.53056   0.18812   0.90785   0.00000  Uiso   1.00
C712   C     0.57927   0.16669   0.75006   0.00000  Uiso   1.00
C713   C     0.46759   0.19182   0.59344   0.00000  Uiso   1.00
C714   C     0.49800   0.16619   0.61660   0.00000  Uiso   1.00
C715   C     0.49870   0.16676   0.88319   0.00000  Uiso   1.00
C716   C     0.49595   0.16445   0.52401   0.00000  Uiso   1.00
C717   C     0.49648   0.16553   0.97564   0.00000  Uiso   1.00
C718   C     0.62396   0.16675   0.74999   0.00000  Uiso   1.00
C719   C     0.37621   0.16668   0.74994   0.00000  Uiso   1.00
C720   C     0.49930   0.16660   0.66499   0.00000  Uiso   1.00
C721   C     0.49987   0.16672   0.83494   0.00000  Uiso   1.00
C722   C     0.47331   0.02472   0.72370   0.00000  Uiso   1.00
C723   C     0.52668   0.30863   0.77632   0.00000  Uiso   1.00
C724   C     0.52668   0.02490   0.77633   0.00000  Uiso   1.00
C725   C     0.47322   0.30845   0.72381   0.00000  Uiso   1.00
C726   C     0.35481   0.13273   0.72510   0.00000  Uiso   1.00
Cu727  Cu    0.50000   0.21355   0.75000   0.00000  Uiso   1.00
Cu728  Cu    0.50000   0.11978   0.75000   0.00000  Uiso   1.00
F729   F     0.55366   0.11268   0.52411   0.00000  Uiso   1.00
F730   F     0.43306   0.12327   0.97250   0.00000  Uiso   1.00
F731   F     0.55997   0.20779   0.97770   0.00000  Uiso   1.00
F732   F     0.43798   0.21585   0.52493   0.00000  Uiso   1.00
H733   H     0.45199   0.04332   0.70255   0.00000  Uiso   1.00
H734   H     0.55488   0.23746   0.86769   0.00000  Uiso   1.00
H735   H     0.45097   0.24581   0.63308   0.00000  Uiso   1.00
H736   H     0.42198   0.19664   0.63881   0.00000  Uiso   1.00
H737   H     0.36886   0.10409   0.66530   0.00000  Uiso   1.00
H738   H     0.36921   0.06570   0.70837   0.00000  Uiso   1.00
H739   H     0.63099   0.26895   0.78711   0.00000  Uiso   1.00
H740   H     0.63240   0.23393   0.83245   0.00000  Uiso   1.00
H741   H     0.63125   0.10079   0.66692   0.00000  Uiso   1.00
H742   H     0.63037   0.06487   0.71168   0.00000  Uiso   1.00
H743   H     0.36989   0.26782   0.79121   0.00000  Uiso   1.00
H744   H     0.54800   0.29003   0.79746   0.00000  Uiso   1.00
H745   H     0.36984   0.22958   0.83441   0.00000  Uiso   1.00
H746   H     0.54803   0.04366   0.79744   0.00000  Uiso   1.00
H747   H     0.45165   0.28972   0.70297   0.00000  Uiso   1.00
H748   H     0.58643   0.12476   0.60530   0.00000  Uiso   1.00
H749   H     0.55477   0.07785   0.60765   0.00000  Uiso   1.00
H750   H     0.43116   0.08848   0.88887   0.00000  Uiso   1.00
H751   H     0.40556   0.14005   0.88869   0.00000  Uiso   1.00
H752   H     0.57869   0.18456   0.86595   0.00000  Uiso   1.00
N753   N     0.50000   0.28402   0.75000   0.00000  Uiso   1.00
N754   N     0.37772   0.23395   0.80116   0.00000  Uiso   1.00
N755   N     0.50000   0.04931   0.75000   0.00000  Uiso   1.00
N756   N     0.55777   0.11318   0.61629   0.00000  Uiso   1.00
N757   N     0.43310   0.12374   0.87987   0.00000  Uiso   1.00
N758   N     0.56521   0.20938   0.88684   0.00000  Uiso   1.00
N759   N     0.43670   0.21839   0.61600   0.00000  Uiso   1.00
N760   N     0.37705   0.09960   0.69853   0.00000  Uiso   1.00
N761   N     0.62342   0.23582   0.79924   0.00000  Uiso   1.00
N762   N     0.62270   0.09823   0.70013   0.00000  Uiso   1.00
O763   O     0.43988   0.20625   0.75000   0.00000  Uiso   1.00
O764   O     0.56012   0.12709   0.75000   0.00000  Uiso   1.00
O765   O     0.56012   0.20625   0.75000   0.00000  Uiso   1.00
O766   O     0.43988   0.12709   0.74999   0.00000  Uiso   1.00
O767   O     0.50000   0.20626   0.68573   0.00000  Uiso   1.00
O768   O     0.50000   0.12707   0.81427   0.00000  Uiso   1.00
O769   O     0.50000   0.20626   0.81427   0.00000  Uiso   1.00
O770   O     0.50000   0.12707   0.68573   0.00000  Uiso   1.00
C771   C     0.75413   0.16666   0.74995   0.00000  Uiso   1.00
C772   C     0.97880   0.20115   0.77433   0.00000  Uiso   1.00
C773   C     0.97847   0.13245   0.72547   0.00000  Uiso   1.00
C774   C     0.68847   0.20075   0.77470   0.00000  Uiso   1.00
C775   C     0.85898   0.13845   0.54684   0.00000  Uiso   1.00
C776   C     0.79802   0.14454   0.95128   0.00000  Uiso   1.00
C777   C     0.86259   0.18727   0.95394   0.00000  Uiso   1.00
C778   C     0.80010   0.19064   0.54725   0.00000  Uiso   1.00
C779   C     0.86008   0.13906   0.59311   0.00000  Uiso   1.00
C780   C     0.79907   0.14490   0.90495   0.00000  Uiso   1.00
C781   C     0.86389   0.18812   0.90785   0.00000  Uiso   1.00
C782   C     0.91260   0.16669   0.75006   0.00000  Uiso   1.00
C783   C     0.80092   0.19182   0.59344   0.00000  Uiso   1.00
C784   C     0.83133   0.16619   0.61660   0.00000  Uiso   1.00
C785   C     0.83204   0.16676   0.88319   0.00000  Uiso   1.00
C786   C     0.82928   0.16445   0.52401   0.00000  Uiso   1.00
C787   C     0.82981   0.16553   0.97564   0.00000  Uiso   1.00
C788   C     0.95730   0.16675   0.74999   0.00000  Uiso   1.00
C789   C     0.70954   0.16668   0.74994   0.00000  Uiso   1.00
C790   C     0.83263   0.16660   0.66499   0.00000  Uiso   1.00
C791   C     0.83321   0.16672   0.83494   0.00000  Uiso   1.00
C792   C     0.80664   0.02472   0.72370   0.00000  Uiso   1.00
C793   C     0.86001   0.30863   0.77632   0.00000  Uiso   1.00
C794   C     0.86001   0.02490   0.77633   0.00000  Uiso   1.00
C795   C     0.80656   0.30845   0.72381   0.00000  Uiso   1.00
C796   C     0.68815   0.13273   0.72510   0.00000  Uiso   1.00
Cu797  Cu    0.83333   0.21355   0.75000   0.00000  Uiso   1.00
Cu798  Cu    0.83333   0.11978   0.75000   0.00000  Uiso   1.00
F799   F     0.88699   0.11268   0.52411   0.00000  Uiso   1.00
F800   F     0.76640   0.12327   0.97250   0.00000  Uiso   1.00
F801   F     0.89330   0.20779   0.97770   0.00000  Uiso   1.00
F802   F     0.77132   0.21585   0.52493   0.00000  Uiso   1.00
H803   H     0.78533   0.04332   0.70255   0.00000  Uiso   1.00
H804   H     0.88821   0.23746   0.86769   0.00000  Uiso   1.00
H805   H     0.78430   0.24581   0.63308   0.00000  Uiso   1.00
H806   H     0.75532   0.19664   0.63881   0.00000  Uiso   1.00
H807   H     0.70220   0.10409   0.66530   0.00000  Uiso   1.00
H808   H     0.70254   0.06570   0.70837   0.00000  Uiso   1.00
H809   H     0.96432   0.26895   0.78711   0.00000  Uiso   1.00
H810   H     0.96574   0.23393   0.83245   0.00000  Uiso   1.00
H811   H     0.96459   0.10079   0.66692   0.00000  Uiso   1.00
H812   H     0.96370   0.06487   0.71168   0.00000  Uiso   1.00
H813   H     0.70322   0.26782   0.79121   0.00000  Uiso   1.00
H814   H     0.88133   0.29003   0.79746   0.00000  Uiso   1.00
H815   H     0.70317   0.22958   0.83441   0.00000  Uiso   1.00
H816   H     0.88137   0.04366   0.79744   0.00000  Uiso   1.00
H817   H     0.78498   0.28972   0.70297   0.00000  Uiso   1.00
H818   H     0.91977   0.12476   0.60530   0.00000  Uiso   1.00
H819   H     0.88810   0.07785   0.60765   0.00000  Uiso   1.00
H820   H     0.76450   0.08848   0.88887   0.00000  Uiso   1.00
H821   H     0.73890   0.14005   0.88869   0.00000  Uiso   1.00
H822   H     0.91202   0.18456   0.86595   0.00000  Uiso   1.00
N823   N     0.83333   0.28402   0.75000   0.00000  Uiso   1.00
N824   N     0.71105   0.23395   0.80116   0.00000  Uiso   1.00
N825   N     0.83333   0.04931   0.75000   0.00000  Uiso   1.00
N826   N     0.89110   0.11318   0.61629   0.00000  Uiso   1.00
N827   N     0.76643   0.12374   0.87987   0.00000  Uiso   1.00
N828   N     0.89854   0.20938   0.88684   0.00000  Uiso   1.00
N829   N     0.77003   0.21839   0.61600   0.00000  Uiso   1.00
N830   N     0.71039   0.09960   0.69853   0.00000  Uiso   1.00
N831   N     0.95675   0.23582   0.79924   0.00000  Uiso   1.00
N832   N     0.95604   0.09823   0.70013   0.00000  Uiso   1.00
O833   O     0.77321   0.20625   0.75000   0.00000  Uiso   1.00
O834   O     0.89345   0.12709   0.75000   0.00000  Uiso   1.00
O835   O     0.89345   0.20625   0.75000   0.00000  Uiso   1.00
O836   O     0.77321   0.12709   0.74999   0.00000  Uiso   1.00
O837   O     0.83333   0.20626   0.68573   0.00000  Uiso   1.00
O838   O     0.83334   0.12707   0.81427   0.00000  Uiso   1.00
O839   O     0.83334   0.20626   0.81427   0.00000  Uiso   1.00
O840   O     0.83333   0.12707   0.68573   0.00000  Uiso   1.00
C841   C     0.08746   0.49999   0.74995   0.00000  Uiso   1.00
C842   C     0.31213   0.53449   0.77433   0.00000  Uiso   1.00
C843   C     0.31180   0.46579   0.72547   0.00000  Uiso   1.00
C844   C     0.02180   0.53409   0.77470   0.00000  Uiso   1.00
C845   C     0.19232   0.47179   0.54684   0.00000  Uiso   1.00
C846   C     0.13135   0.47788   0.95128   0.00000  Uiso   1.00
C847   C     0.19592   0.52060   0.95394   0.00000  Uiso   1.00
C848   C     0.13343   0.52398   0.54725   0.00000  Uiso   1.00
C849   C     0.19341   0.47240   0.59311   0.00000  Uiso   1.00
C850   C     0.13240   0.47823   0.90495   0.00000  Uiso   1.00
C851   C     0.19722   0.52145   0.90785   0.00000  Uiso   1.00
C852   C     0.24593   0.50002   0.75006   0.00000  Uiso   1.00
C853   C     0.13425   0.52515   0.59344   0.00000  Uiso   1.00
C854   C     0.16467   0.49953   0.61660   0.00000  Uiso   1.00
C855   C     0.16537   0.50010   0.88319   0.00000  Uiso   1.00
C856   C     0.16262   0.49778   0.52401   0.00000  Uiso   1.00
C857   C     0.16315   0.49886   0.97564   0.00000  Uiso   1.00
C858   C     0.29063   0.50008   0.74999   0.00000  Uiso   1.00
C859   C     0.04287   0.50001   0.74994   0.00000  Uiso   1.00
C860   C     0.16596   0.49993   0.66499   0.00000  Uiso   1.00
C861   C     0.16654   0.50006   0.83494   0.00000  Uiso   1.00
C862   C     0.13997   0.35805   0.72370   0.00000  Uiso   1.00
C863   C     0.19335   0.64196   0.77632   0.00000  Uiso   1.00
C864   C     0.19334   0.35823   0.77633   0.00000  Uiso   1.00
C865   C     0.13989   0.64178   0.72381   0.00000  Uiso   1.00
C866   C     0.02148   0.46606   0.72510   0.00000  Uiso   1.00
Cu867  Cu    0.16667   0.54689   0.75000   0.00000  Uiso   1.00
Cu868  Cu    0.16667   0.45311   0.75000   0.00000  Uiso   1.00
F869   F     0.22032   0.44601   0.52411   0.00000  Uiso   1.00
F870   F     0.09973   0.45660   0.97250   0.00000  Uiso   1.00
F871   F     0.22664   0.54112   0.97770   0.00000  Uiso   1.00
F872   F     0.10465   0.54918   0.52493   0.00000  Uiso   1.00
H873   H     0.11866   0.37666   0.70255   0.00000  Uiso   1.00
H874   H     0.22154   0.57080   0.86769   0.00000  Uiso   1.00
H875   H     0.11764   0.57914   0.63308   0.00000  Uiso   1.00
H876   H     0.08865   0.52997   0.63881   0.00000  Uiso   1.00
H877   H     0.03553   0.43742   0.66530   0.00000  Uiso   1.00
H878   H     0.03587   0.39904   0.70837   0.00000  Uiso   1.00
H879   H     0.29766   0.60229   0.78711   0.00000  Uiso   1.00
H880   H     0.29907   0.56727   0.83245   0.00000  Uiso   1.00
H881   H     0.29792   0.43412   0.66692   0.00000  Uiso   1.00
H882   H     0.29703   0.39821   0.71168   0.00000  Uiso   1.00
H883   H     0.03655   0.60116   0.79121   0.00000  Uiso   1.00
H884   H     0.21466   0.62336   0.79746   0.00000  Uiso   1.00
H885   H     0.03651   0.56291   0.83441   0.00000  Uiso   1.00
H886   H     0.21470   0.37700   0.79744   0.00000  Uiso   1.00
H887   H     0.11832   0.62306   0.70297   0.00000  Uiso   1.00
H888   H     0.25310   0.45810   0.60530   0.00000  Uiso   1.00
H889   H     0.22144   0.41119   0.60765   0.00000  Uiso   1.00
H890   H     0.09783   0.42182   0.88887   0.00000  Uiso   1.00
H891   H     0.07223   0.47338   0.88869   0.00000  Uiso   1.00
H892   H     0.24535   0.51789   0.86595   0.00000  Uiso   1.00
N893   N     0.16667   0.61736   0.75000   0.00000  Uiso   1.00
N894   N     0.04439   0.56728   0.80116   0.00000  Uiso   1.00
N895   N     0.16667   0.38264   0.75000   0.00000  Uiso   1.00
N896   N     0.22444   0.44651   0.61629   0.00000  Uiso   1.00
N897   N     0.09977   0.45708   0.87987   0.00000  Uiso   1.00
N898   N     0.23188   0.54272   0.88684   0.00000  Uiso   1.00
N899   N     0.10336   0.55172   0.61600   0.00000  Uiso   1.00
N900   N     0.04372   0.43293   0.69853   0.00000  Uiso   1.00
N901   N     0.29008   0.56915   0.79924   0.00000  Uiso   1.00
N902   N     0.28937   0.43156   0.70013   0.00000  Uiso   1.00
O903   O     0.10655   0.53958   0.75000   0.00000  Uiso   1.00
O904   O     0.22679   0.46042   0.75000   0.00000  Uiso   1.00
O905   O     0.22679   0.53958   0.75000   0.00000  Uiso   1.00
O906   O     0.10655   0.46042   0.74999   0.00000  Uiso   1.00
O907   O     0.16666   0.53959   0.68573   0.00000  Uiso   1.00
O908   O     0.16667   0.46041   0.81427   0.00000  Uiso   1.00
O909   O     0.16667   0.53959   0.81427   0.00000  Uiso   1.00
O910   O     0.16666   0.46041   0.68573   0.00000  Uiso   1.00
C911   C     0.42079   0.49999   0.74995   0.00000  Uiso   1.00
C912   C     0.64546   0.53449   0.77433   0.00000  Uiso   1.00
C913   C     0.64513   0.46579   0.72547   0.00000  Uiso   1.00
C914   C     0.35514   0.53409   0.77470   0.00000  Uiso   1.00
C915   C     0.52565   0.47179   0.54684   0.00000  Uiso   1.00
C916   C     0.46469   0.47788   0.95128   0.00000  Uiso   1.00
C917   C     0.52925   0.52060   0.95394   0.00000  Uiso   1.00
C918   C     0.46676   0.52398   0.54725   0.00000  Uiso   1.00
C919   C     0.52675   0.47240   0.59311   0.00000  Uiso   1.00
C920   C     0.46574   0.47823   0.90495   0.00000  Uiso   1.00
C921   C     0.53056   0.52145   0.90785   0.00000  Uiso   1.00
C922   C     0.57927   0.50002   0.75006   0.00000  Uiso   1.00
C923   C     0.46759   0.52515   0.59344   0.00000  Uiso   1.00
C924   C     0.49800   0.49953   0.61660   0.00000  Uiso   1.00
C925   C     0.49870   0.50010   0.88319   0.00000  Uiso   1.00
C926   C     0.49595   0.49778   0.52401   0.00000  Uiso   1.00
C927   C     0.49648   0.49886   0.97564   0.00000  Uiso   1.00
C928   C     0.62396   0.50008   0.74999   0.00000  Uiso   1.00
C929   C     0.37621   0.50001   0.74994   0.00000  Uiso   1.00
C930   C     0.49930   0.49993   0.66499   0.00000  Uiso   1.00
C931   C     0.49987   0.50006   0.83494   0.00000  Uiso   1.00
C932   C     0.47331   0.35805   0.72370   0.00000  Uiso   1.00
C933   C     0.52668   0.64196   0.77632   0.00000  Uiso   1.00
C934   C     0.52668   0.35823   0.77633   0.00000  Uiso   1.00
C935   C     0.47322   0.64178   0.72381   0.00000  Uiso   1.00
C936   C     0.35481   0.46606   0.72510   0.00000  Uiso   1.00
Cu937  Cu    0.50000   0.54689   0.75000   0.00000  Uiso   1.00
Cu938  Cu    0.50000   0.45311   0.75000   0.00000  Uiso   1.00
F939   F     0.55366   0.44601   0.52411   0.00000  Uiso   1.00
F940   F     0.43306   0.45660   0.97250   0.00000  Uiso   1.00
F941   F     0.55997   0.54112   0.97770   0.00000  Uiso   1.00
F942   F     0.43798   0.54918   0.52493   0.00000  Uiso   1.00
H943   H     0.45199   0.37666   0.70255   0.00000  Uiso   1.00
H944   H     0.55488   0.57080   0.86769   0.00000  Uiso   1.00
H945   H     0.45097   0.57914   0.63308   0.00000  Uiso   1.00
H946   H     0.42198   0.52997   0.63881   0.00000  Uiso   1.00
H947   H     0.36886   0.43742   0.66530   0.00000  Uiso   1.00
H948   H     0.36921   0.39904   0.70837   0.00000  Uiso   1.00
H949   H     0.63099   0.60229   0.78711   0.00000  Uiso   1.00
H950   H     0.63240   0.56727   0.83245   0.00000  Uiso   1.00
H951   H     0.63125   0.43412   0.66692   0.00000  Uiso   1.00
H952   H     0.63037   0.39821   0.71168   0.00000  Uiso   1.00
H953   H     0.36989   0.60116   0.79121   0.00000  Uiso   1.00
H954   H     0.54800   0.62336   0.79746   0.00000  Uiso   1.00
H955   H     0.36984   0.56291   0.83441   0.00000  Uiso   1.00
H956   H     0.54803   0.37700   0.79744   0.00000  Uiso   1.00
H957   H     0.45165   0.62306   0.70297   0.00000  Uiso   1.00
H958   H     0.58643   0.45810   0.60530   0.00000  Uiso   1.00
H959   H     0.55477   0.41119   0.60765   0.00000  Uiso   1.00
H960   H     0.43116   0.42182   0.88887   0.00000  Uiso   1.00
H961   H     0.40556   0.47338   0.88869   0.00000  Uiso   1.00
H962   H     0.57869   0.51789   0.86595   0.00000  Uiso   1.00
N963   N     0.50000   0.61736   0.75000   0.00000  Uiso   1.00
N964   N     0.37772   0.56728   0.80116   0.00000  Uiso   1.00
N965   N     0.50000   0.38264   0.75000   0.00000  Uiso   1.00
N966   N     0.55777   0.44651   0.61629   0.00000  Uiso   1.00
N967   N     0.43310   0.45708   0.87987   0.00000  Uiso   1.00
N968   N     0.56521   0.54272   0.88684   0.00000  Uiso   1.00
N969   N     0.43670   0.55172   0.61600   0.00000  Uiso   1.00
N970   N     0.37705   0.43293   0.69853   0.00000  Uiso   1.00
N971   N     0.62342   0.56915   0.79924   0.00000  Uiso   1.00
N972   N     0.62270   0.43156   0.70013   0.00000  Uiso   1.00
O973   O     0.43988   0.53958   0.75000   0.00000  Uiso   1.00
O974   O     0.56012   0.46042   0.75000   0.00000  Uiso   1.00
O975   O     0.56012   0.53958   0.75000   0.00000  Uiso   1.00
O976   O     0.43988   0.46042   0.74999   0.00000  Uiso   1.00
O977   O     0.50000   0.53959   0.68573   0.00000  Uiso   1.00
O978   O     0.50000   0.46041   0.81427   0.00000  Uiso   1.00
O979   O     0.50000   0.53959   0.81427   0.00000  Uiso   1.00
O980   O     0.50000   0.46041   0.68573   0.00000  Uiso   1.00
C981   C     0.75413   0.49999   0.74995   0.00000  Uiso   1.00
C982   C     0.97880   0.53449   0.77433   0.00000  Uiso   1.00
C983   C     0.97847   0.46579   0.72547   0.00000  Uiso   1.00
C984   C     0.68847   0.53409   0.77470   0.00000  Uiso   1.00
C985   C     0.85898   0.47179   0.54684   0.00000  Uiso   1.00
C986   C     0.79802   0.47788   0.95128   0.00000  Uiso   1.00
C987   C     0.86259   0.52060   0.95394   0.00000  Uiso   1.00
C988   C     0.80010   0.52398   0.54725   0.00000  Uiso   1.00
C989   C     0.86008   0.47240   0.59311   0.00000  Uiso   1.00
C990   C     0.79907   0.47823   0.90495   0.00000  Uiso   1.00
C991   C     0.86389   0.52145   0.90785   0.00000  Uiso   1.00
C992   C     0.91260   0.50002   0.75006   0.00000  Uiso   1.00
C993   C     0.80092   0.52515   0.59344   0.00000  Uiso   1.00
C994   C     0.83133   0.49953   0.61660   0.00000  Uiso   1.00
C995   C     0.83204   0.50010   0.88319   0.00000  Uiso   1.00
C996   C     0.82928   0.49778   0.52401   0.00000  Uiso   1.00
C997   C     0.82981   0.49886   0.97564   0.00000  Uiso   1.00
C998   C     0.95730   0.50008   0.74999   0.00000  Uiso   1.00
C999   C     0.70954   0.50001   0.74994   0.00000  Uiso   1.00
C1000  C     0.83263   0.49993   0.66499   0.00000  Uiso   1.00
C1001  C     0.83321   0.50006   0.83494   0.00000  Uiso   1.00
C1002  C     0.80664   0.35805   0.72370   0.00000  Uiso   1.00
C1003  C     0.86001   0.64196   0.77632   0.00000  Uiso   1.00
C1004  C     0.86001   0.35823   0.77633   0.00000  Uiso   1.00
C1005  C     0.80656   0.64178   0.72381   0.00000  Uiso   1.00
C1006  C     0.68815   0.46606   0.72510   0.00000  Uiso   1.00
Cu1007 Cu    0.83333   0.54689   0.75000   0.00000  Uiso   1.00
Cu1008 Cu    0.83333   0.45311   0.75000   0.00000  Uiso   1.00
F1009  F     0.88699   0.44601   0.52411   0.00000  Uiso   1.00
F1010  F     0.76640   0.45660   0.97250   0.00000  Uiso   1.00
F1011  F     0.89330   0.54112   0.97770   0.00000  Uiso   1.00
F1012  F     0.77132   0.54918   0.52493   0.00000  Uiso   1.00
H1013  H     0.78533   0.37666   0.70255   0.00000  Uiso   1.00
H1014  H     0.88821   0.57080   0.86769   0.00000  Uiso   1.00
H1015  H     0.78430   0.57914   0.63308   0.00000  Uiso   1.00
H1016  H     0.75532   0.52997   0.63881   0.00000  Uiso   1.00
H1017  H     0.70220   0.43742   0.66530   0.00000  Uiso   1.00
H1018  H     0.70254   0.39904   0.70837   0.00000  Uiso   1.00
H1019  H     0.96432   0.60229   0.78711   0.00000  Uiso   1.00
H1020  H     0.96574   0.56727   0.83245   0.00000  Uiso   1.00
H1021  H     0.96459   0.43412   0.66692   0.00000  Uiso   1.00
H1022  H     0.96370   0.39821   0.71168   0.00000  Uiso   1.00
H1023  H     0.70322   0.60116   0.79121   0.00000  Uiso   1.00
H1024  H     0.88133   0.62336   0.79746   0.00000  Uiso   1.00
H1025  H     0.70317   0.56291   0.83441   0.00000  Uiso   1.00
H1026  H     0.88137   0.37700   0.79744   0.00000  Uiso   1.00
H1027  H     0.78498   0.62306   0.70297   0.00000  Uiso   1.00
H1028  H     0.91977   0.45810   0.60530   0.00000  Uiso   1.00
H1029  H     0.88810   0.41119   0.60765   0.00000  Uiso   1.00
H1030  H     0.76450   0.42182   0.88887   0.00000  Uiso   1.00
H1031  H     0.73890   0.47338   0.88869   0.00000  Uiso   1.00
H1032  H     0.91202   0.51789   0.86595   0.00000  Uiso   1.00
N1033  N     0.83333   0.61736   0.75000   0.00000  Uiso   1.00
N1034  N     0.71105   0.56728   0.80116   0.00000  Uiso   1.00
N1035  N     0.83333   0.38264   0.75000   0.00000  Uiso   1.00
N1036  N     0.89110   0.44651   0.61629   0.00000  Uiso   1.00
N1037  N     0.76643   0.45708   0.87987   0.00000  Uiso   1.00
N1038  N     0.89854   0.54272   0.88684   0.00000  Uiso   1.00
N1039  N     0.77003   0.55172   0.61600   0.00000  Uiso   1.00
N1040  N     0.71039   0.43293   0.69853   0.00000  Uiso   1.00
N1041  N     0.95675   0.56915   0.79924   0.00000  Uiso   1.00
N1042  N     0.95604   0.43156   0.70013   0.00000  Uiso   1.00
O1043  O     0.77321   0.53958   0.75000   0.00000  Uiso   1.00
O1044  O     0.89345   0.46042   0.75000   0.00000  Uiso   1.00
O1045  O     0.89345   0.53958   0.75000   0.00000  Uiso   1.00
O1046  O     0.77321   0.46042   0.74999   0.00000  Uiso   1.00
O1047  O     0.83333   0.53959   0.68573   0.00000  Uiso   1.00
O1048  O     0.83334   0.46041   0.81427   0.00000  Uiso   1.00
O1049  O     0.83334   0.53959   0.81427   0.00000  Uiso   1.00
O1050  O     0.83333   0.46041   0.68573   0.00000  Uiso   1.00
C1051  C     0.08746   0.83333   0.74995   0.00000  Uiso   1.00
C1052  C     0.31213   0.86782   0.77433   0.00000  Uiso   1.00
C1053  C     0.31180   0.79912   0.72547   0.00000  Uiso   1.00
C1054  C     0.02180   0.86742   0.77470   0.00000  Uiso   1.00
C1055  C     0.19232   0.80512   0.54684   0.00000  Uiso   1.00
C1056  C     0.13135   0.81121   0.95128   0.00000  Uiso   1.00
C1057  C     0.19592   0.85394   0.95394   0.00000  Uiso   1.00
C1058  C     0.13343   0.85731   0.54725   0.00000  Uiso   1.00
C1059  C     0.19341   0.80573   0.59311   0.00000  Uiso   1.00
C1060  C     0.13240   0.81157   0.90495   0.00000  Uiso   1.00
C1061  C     0.19722   0.85479   0.90785   0.00000  Uiso   1.00
C1062  C     0.24593   0.83336   0.75006   0.00000  Uiso   1.00
C1063  C     0.13425   0.85849   0.59344   0.00000  Uiso   1.00
C1064  C     0.16467   0.83286   0.61660   0.00000  Uiso   1.00
C1065  C     0.16537   0.83343   0.88319   0.00000  Uiso   1.00
C1066  C     0.16262   0.83111   0.52401   0.00000  Uiso   1.00
C1067  C     0.16315   0.83220   0.97564   0.00000  Uiso   1.00
C1068  C     0.29063   0.83342   0.74999   0.00000  Uiso   1.00
C1069  C     0.04287   0.83334   0.74994   0.00000  Uiso   1.00
C1070  C     0.16596   0.83327   0.66499   0.00000  Uiso   1.00
C1071  C     0.16654   0.83339   0.83494   0.00000  Uiso   1.00
C1072  C     0.13997   0.69138   0.72370   0.00000  Uiso   1.00
C1073  C     0.19335   0.97529   0.77632   0.00000  Uiso   1.00
C1074  C     0.19334   0.69157   0.77633   0.00000  Uiso   1.00
C1075  C     0.13989   0.97512   0.72381   0.00000  Uiso   1.00
C1076  C     0.02148   0.79940   0.72510   0.00000  Uiso   1.00
Cu1077 Cu    0.16667   0.88022   0.75000   0.00000  Uiso   1.00
Cu1078 Cu    0.16667   0.78645   0.75000   0.00000  Uiso   1.00
F1079  F     0.22032   0.77935   0.52411   0.00000  Uiso   1.00
F1080  F     0.09973   0.78993   0.97250   0.00000  Uiso   1.00
F1081  F     0.22664   0.87446   0.97770   0.00000  Uiso   1.00
F1082  F     0.10465   0.88251   0.52493   0.00000  Uiso   1.00
H1083  H     0.11866   0.70999   0.70255   0.00000  Uiso   1.00
H1084  H     0.22154   0.90413   0.86769   0.00000  Uiso   1.00
H1085  H     0.11764   0.91248   0.63308   0.00000  Uiso   1.00
H1086  H     0.08865   0.86331   0.63881   0.00000  Uiso   1.00
H1087  H     0.03553   0.77075   0.66530   0.00000  Uiso   1.00
H1088  H     0.03587   0.73237   0.70837   0.00000  Uiso   1.00
H1089  H     0.29766   0.93562   0.78711   0.00000  Uiso   1.00
H1090  H     0.29907   0.90060   0.83245   0.00000  Uiso   1.00
H1091  H     0.29792   0.76746   0.66692   0.00000  Uiso   1.00
H1092  H     0.29703   0.73154   0.71168   0.00000  Uiso   1.00
H1093  H     0.03655   0.93449   0.79121   0.00000  Uiso   1.00
H1094  H     0.21466   0.95670   0.79746   0.00000  Uiso   1.00
H1095  H     0.03651   0.89624   0.83441   0.00000  Uiso   1.00
H1096  H     0.21470   0.71033   0.79744   0.00000  Uiso   1.00
H1097  H     0.11832   0.95639   0.70297   0.00000  Uiso   1.00
H1098  H     0.25310   0.79143   0.60530   0.00000  Uiso   1.00
H1099  H     0.22144   0.74452   0.60765   0.00000  Uiso   1.00
H1100  H     0.09783   0.75515   0.88887   0.00000  Uiso   1.00
H1101  H     0.07223   0.80671   0.88869   0.00000  Uiso   1.00
H1102  H     0.24535   0.85122   0.86595   0.00000  Uiso   1.00
N1103  N     0.16667   0.95069   0.75000   0.00000  Uiso   1.00
N1104  N     0.04439   0.90061   0.80116   0.00000  Uiso   1.00
N1105  N     0.16667   0.71598   0.75000   0.00000  Uiso   1.00
N1106  N     0.22444   0.77984   0.61629   0.00000  Uiso   1.00
N1107  N     0.09977   0.79041   0.87987   0.00000  Uiso   1.00
N1108  N     0.23188   0.87605   0.88684   0.00000  Uiso   1.00
N1109  N     0.10336   0.88505   0.61600   0.00000  Uiso   1.00
N1110  N     0.04372   0.76626   0.69853   0.00000  Uiso   1.00
N1111  N     0.29008   0.90249   0.79924   0.00000  Uiso   1.00
N1112  N     0.28937   0.76490   0.70013   0.00000  Uiso   1.00
O1113  O     0.10655   0.87291   0.75000   0.00000  Uiso   1.00
O1114  O     0.22679   0.79375   0.75000   0.00000  Uiso   1.00
O1115  O     0.22679   0.87291   0.75000   0.00000  Uiso   1.00
O1116  O     0.10655   0.79375   0.74999   0.00000  Uiso   1.00
O1117  O     0.16666   0.87293   0.68573   0.00000  Uiso   1.00
O1118  O     0.16667   0.79374   0.81427   0.00000  Uiso   1.00
O1119  O     0.16667   0.87293   0.81427   0.00000  Uiso   1.00
O1120  O     0.16666   0.79374   0.68573   0.00000  Uiso   1.00
C1121  C     0.42079   0.83333   0.74995   0.00000  Uiso   1.00
C1122  C     0.64546   0.86782   0.77433   0.00000  Uiso   1.00
C1123  C     0.64513   0.79912   0.72547   0.00000  Uiso   1.00
C1124  C     0.35514   0.86742   0.77470   0.00000  Uiso   1.00
C1125  C     0.52565   0.80512   0.54684   0.00000  Uiso   1.00
C1126  C     0.46469   0.81121   0.95128   0.00000  Uiso   1.00
C1127  C     0.52925   0.85394   0.95394   0.00000  Uiso   1.00
C1128  C     0.46676   0.85731   0.54725   0.00000  Uiso   1.00
C1129  C     0.52675   0.80573   0.59311   0.00000  Uiso   1.00
C1130  C     0.46574   0.81157   0.90495   0.00000  Uiso   1.00
C1131  C     0.53056   0.85479   0.90785   0.00000  Uiso   1.00
C1132  C     0.57927   0.83336   0.75006   0.00000  Uiso   1.00
C1133  C     0.46759   0.85849   0.59344   0.00000  Uiso   1.00
C1134  C     0.49800   0.83286   0.61660   0.00000  Uiso   1.00
C1135  C     0.49870   0.83343   0.88319   0.00000  Uiso   1.00
C1136  C     0.49595   0.83111   0.52401   0.00000  Uiso   1.00
C1137  C     0.49648   0.83220   0.97564   0.00000  Uiso   1.00
C1138  C     0.62396   0.83342   0.74999   0.00000  Uiso   1.00
C1139  C     0.37621   0.83334   0.74994   0.00000  Uiso   1.00
C1140  C     0.49930   0.83327   0.66499   0.00000  Uiso   1.00
C1141  C     0.49987   0.83339   0.83494   0.00000  Uiso   1.00
C1142  C     0.47331   0.69138   0.72370   0.00000  Uiso   1.00
C1143  C     0.52668   0.97529   0.77632   0.00000  Uiso   1.00
C1144  C     0.52668   0.69157   0.77633   0.00000  Uiso   1.00
C1145  C     0.47322   0.97512   0.72381   0.00000  Uiso   1.00
C1146  C     0.35481   0.79940   0.72510   0.00000  Uiso   1.00
Cu1147 Cu    0.50000   0.88022   0.75000   0.00000  Uiso   1.00
Cu1148 Cu    0.50000   0.78645   0.75000   0.00000  Uiso   1.00
F1149  F     0.55366   0.77935   0.52411   0.00000  Uiso   1.00
F1150  F     0.43306   0.78993   0.97250   0.00000  Uiso   1.00
F1151  F     0.55997   0.87446   0.97770   0.00000  Uiso   1.00
F1152  F     0.43798   0.88251   0.52493   0.00000  Uiso   1.00
H1153  H     0.45199   0.70999   0.70255   0.00000  Uiso   1.00
H1154  H     0.55488   0.90413   0.86769   0.00000  Uiso   1.00
H1155  H     0.45097   0.91248   0.63308   0.00000  Uiso   1.00
H1156  H     0.42198   0.86331   0.63881   0.00000  Uiso   1.00
H1157  H     0.36886   0.77075   0.66530   0.00000  Uiso   1.00
H1158  H     0.36921   0.73237   0.70837   0.00000  Uiso   1.00
H1159  H     0.63099   0.93562   0.78711   0.00000  Uiso   1.00
H1160  H     0.63240   0.90060   0.83245   0.00000  Uiso   1.00
H1161  H     0.63125   0.76746   0.66692   0.00000  Uiso   1.00
H1162  H     0.63037   0.73154   0.71168   0.00000  Uiso   1.00
H1163  H     0.36989   0.93449   0.79121   0.00000  Uiso   1.00
H1164  H     0.54800   0.95670   0.79746   0.00000  Uiso   1.00
H1165  H     0.36984   0.89624   0.83441   0.00000  Uiso   1.00
H1166  H     0.54803   0.71033   0.79744   0.00000  Uiso   1.00
H1167  H     0.45165   0.95639   0.70297   0.00000  Uiso   1.00
H1168  H     0.58643   0.79143   0.60530   0.00000  Uiso   1.00
H1169  H     0.55477   0.74452   0.60765   0.00000  Uiso   1.00
H1170  H     0.43116   0.75515   0.88887   0.00000  Uiso   1.00
H1171  H     0.40556   0.80671   0.88869   0.00000  Uiso   1.00
H1172  H     0.57869   0.85122   0.86595   0.00000  Uiso   1.00
N1173  N     0.50000   0.95069   0.75000   0.00000  Uiso   1.00
N1174  N     0.37772   0.90061   0.80116   0.00000  Uiso   1.00
N1175  N     0.50000   0.71598   0.75000   0.00000  Uiso   1.00
N1176  N     0.55777   0.77984   0.61629   0.00000  Uiso   1.00
N1177  N     0.43310   0.79041   0.87987   0.00000  Uiso   1.00
N1178  N     0.56521   0.87605   0.88684   0.00000  Uiso   1.00
N1179  N     0.43670   0.88505   0.61600   0.00000  Uiso   1.00
N1180  N     0.37705   0.76626   0.69853   0.00000  Uiso   1.00
N1181  N     0.62342   0.90249   0.79924   0.00000  Uiso   1.00
N1182  N     0.62270   0.76490   0.70013   0.00000  Uiso   1.00
O1183  O     0.43988   0.87291   0.75000   0.00000  Uiso   1.00
O1184  O     0.56012   0.79375   0.75000   0.00000  Uiso   1.00
O1185  O     0.56012   0.87291   0.75000   0.00000  Uiso   1.00
O1186  O     0.43988   0.79375   0.74999   0.00000  Uiso   1.00
O1187  O     0.50000   0.87293   0.68573   0.00000  Uiso   1.00
O1188  O     0.50000   0.79374   0.81427   0.00000  Uiso   1.00
O1189  O     0.50000   0.87293   0.81427   0.00000  Uiso   1.00
O1190  O     0.50000   0.79374   0.68573   0.00000  Uiso   1.00
C1191  C     0.75413   0.83333   0.74995   0.00000  Uiso   1.00
C1192  C     0.97880   0.86782   0.77433   0.00000  Uiso   1.00
C1193  C     0.97847   0.79912   0.72547   0.00000  Uiso   1.00
C1194  C     0.68847   0.86742   0.77470   0.00000  Uiso   1.00
C1195  C     0.85898   0.80512   0.54684   0.00000  Uiso   1.00
C1196  C     0.79802   0.81121   0.95128   0.00000  Uiso   1.00
C1197  C     0.86259   0.85394   0.95394   0.00000  Uiso   1.00
C1198  C     0.80010   0.85731   0.54725   0.00000  Uiso   1.00
C1199  C     0.86008   0.80573   0.59311   0.00000  Uiso   1.00
C1200  C     0.79907   0.81157   0.90495   0.00000  Uiso   1.00
C1201  C     0.86389   0.85479   0.90785   0.00000  Uiso   1.00
C1202  C     0.91260   0.83336   0.75006   0.00000  Uiso   1.00
C1203  C     0.80092   0.85849   0.59344   0.00000  Uiso   1.00
C1204  C     0.83133   0.83286   0.61660   0.00000  Uiso   1.00
C1205  C     0.83204   0.83343   0.88319   0.00000  Uiso   1.00
C1206  C     0.82928   0.83111   0.52401   0.00000  Uiso   1.00
C1207  C     0.82981   0.83220   0.97564   0.00000  Uiso   1.00
C1208  C     0.95730   0.83342   0.74999   0.00000  Uiso   1.00
C1209  C     0.70954   0.83334   0.74994   0.00000  Uiso   1.00
C1210  C     0.83263   0.83327   0.66499   0.00000  Uiso   1.00
C1211  C     0.83321   0.83339   0.83494   0.00000  Uiso   1.00
C1212  C     0.80664   0.69138   0.72370   0.00000  Uiso   1.00
C1213  C     0.86001   0.97529   0.77632   0.00000  Uiso   1.00
C1214  C     0.86001   0.69157   0.77633   0.00000  Uiso   1.00
C1215  C     0.80656   0.97512   0.72381   0.00000  Uiso   1.00
C1216  C     0.68815   0.79940   0.72510   0.00000  Uiso   1.00
Cu1217 Cu    0.83333   0.88022   0.75000   0.00000  Uiso   1.00
Cu1218 Cu    0.83333   0.78645   0.75000   0.00000  Uiso   1.00
F1219  F     0.88699   0.77935   0.52411   0.00000  Uiso   1.00
F1220  F     0.76640   0.78993   0.97250   0.00000  Uiso   1.00
F1221  F     0.89330   0.87446   0.97770   0.00000  Uiso   1.00
F1222  F     0.77132   0.88251   0.52493   0.00000  Uiso   1.00
H1223  H     0.78533   0.70999   0.70255   0.00000  Uiso   1.00
H1224  H     0.88821   0.90413   0.86769   0.00000  Uiso   1.00
H1225  H     0.78430   0.91248   0.63308   0.00000  Uiso   1.00
H1226  H     0.75532   0.86331   0.63881   0.00000  Uiso   1.00
H1227  H     0.70220   0.77075   0.66530   0.00000  Uiso   1.00
H1228  H     0.70254   0.73237   0.70837   0.00000  Uiso   1.00
H1229  H     0.96432   0.93562   0.78711   0.00000  Uiso   1.00
H1230  H     0.96574   0.90060   0.83245   0.00000  Uiso   1.00
H1231  H     0.96459   0.76746   0.66692   0.00000  Uiso   1.00
H1232  H     0.96370   0.73154   0.71168   0.00000  Uiso   1.00
H1233  H     0.70322   0.93449   0.79121   0.00000  Uiso   1.00
H1234  H     0.88133   0.95670   0.79746   0.00000  Uiso   1.00
H1235  H     0.70317   0.89624   0.83441   0.00000  Uiso   1.00
H1236  H     0.88137   0.71033   0.79744   0.00000  Uiso   1.00
H1237  H     0.78498   0.95639   0.70297   0.00000  Uiso   1.00
H1238  H     0.91977   0.79143   0.60530   0.00000  Uiso   1.00
H1239  H     0.88810   0.74452   0.60765   0.00000  Uiso   1.00
H1240  H     0.76450   0.75515   0.88887   0.00000  Uiso   1.00
H1241  H     0.73890   0.80671   0.88869   0.00000  Uiso   1.00
H1242  H     0.91202   0.85122   0.86595   0.00000  Uiso   1.00
N1243  N     0.83333   0.95069   0.75000   0.00000  Uiso   1.00
N1244  N     0.71105   0.90061   0.80116   0.00000  Uiso   1.00
N1245  N     0.83333   0.71598   0.75000   0.00000  Uiso   1.00
N1246  N     0.89110   0.77984   0.61629   0.00000  Uiso   1.00
N1247  N     0.76643   0.79041   0.87987   0.00000  Uiso   1.00
N1248  N     0.89854   0.87605   0.88684   0.00000  Uiso   1.00
N1249  N     0.77003   0.88505   0.61600   0.00000  Uiso   1.00
N1250  N     0.71039   0.76626   0.69853   0.00000  Uiso   1.00
N1251  N     0.95675   0.90249   0.79924   0.00000  Uiso   1.00
N1252  N     0.95604   0.76490   0.70013   0.00000  Uiso   1.00
O1253  O     0.77321   0.87291   0.75000   0.00000  Uiso   1.00
O1254  O     0.89345   0.79375   0.75000   0.00000  Uiso   1.00
O1255  O     0.89345   0.87291   0.75000   0.00000  Uiso   1.00
O1256  O     0.77321   0.79375   0.74999   0.00000  Uiso   1.00
O1257  O     0.83333   0.87293   0.68573   0.00000  Uiso   1.00
O1258  O     0.83334   0.79374   0.81427   0.00000  Uiso   1.00
O1259  O     0.83334   0.87293   0.81427   0.00000  Uiso   1.00
O1260  O     0.83333   0.79374   0.68573   0.00000  Uiso   1.00
loop_
_geom_bond_atom_site_label_1
_geom_bond_atom_site_label_2
_geom_bond_distance
_geom_bond_site_symmetry_2
_ccdc_geom_bond_type
C1     O66     1.290   .     A
C1     O63     1.290   .     A
C1     C19     1.451   .     S
C2     C18     1.409   .     A
C2     N61     1.436   .     S
C2     C74     1.400   .     S
C3     C18     1.408   .     A
C3     N62     1.436   .     S
C3     C96     1.400   .     S
C4     C19     1.406   .     A
C4     N54     1.437   .     S
C4     C142    1.400   1_455 S
C5     C9      1.397   .     A
C5     F29     1.359   .     S
C5     C16     1.399   .     A
C6     C10     1.399   .     A
C6     F30     1.359   .     S
C6     C17     1.400   .     A
C7     C17     1.400   .     A
C7     C11     1.392   .     A
C7     F31     1.359   .     S
C8     C13     1.395   .     A
C8     C16     1.399   .     A
C8     F32     1.359   .     S
C9     C14     1.408   .     A
C9     N56     1.433   .     S
C10    N57     1.434   .     S
C10    C15     1.408   .     A
C11    C15     1.411   .     A
C11    N58     1.432   .     S
C12    O65     1.290   .     A
C12    O64     1.291   .     A
C12    C18     1.455   .     S
C13    C14     1.415   .     A
C13    N59     1.434   .     S
C14    C20     1.461   .     S
C15    C21     1.457   .     S
C16    C647    1.461   1_554 S
C17    C646    1.461   .     S
C19    C26     1.406   .     A
C20    O67     1.293   .     A
C20    O70     1.292   .     A
C21    O68     1.291   .     A
C21    O69     1.291   .     A
C22    N55     1.367   .     A
C22    H33     1.081   .     S
C22    C445    1.416   1_545 S
C23    N53     1.367   .     A
C23    H44     1.081   .     S
C23    C234    1.417   .     S
C24    H46     1.082   .     S
C24    N55     1.367   .     A
C24    C443    1.417   1_545 S
C25    N53     1.367   .     A
C25    H47     1.081   .     S
C25    C232    1.416   .     S
C26    N60     1.437   .     S
C26    C143    1.400   1_455 S
Cu27   N53     2.012   .     S
Cu27   O65     1.968   .     S
Cu27   O69     1.952   .     S
Cu27   O67     1.950   .     S
Cu27   Cu28    2.678   .     S
Cu27   O63     1.968   .     S
Cu28   O66     1.968   .     S
Cu28   N55     2.012   .     S
Cu28   O64     1.968   .     S
Cu28   O70     1.952   .     S
Cu28   O68     1.950   .     S
H34    N58     1.045   .     S
H35    N59     1.044   .     S
H36    N59     1.046   .     S
H37    N60     1.045   .     S
H38    N60     1.045   .     S
H39    N61     1.045   .     S
H40    N61     1.044   .     S
H41    N62     1.044   .     S
H42    N62     1.045   .     S
H43    N54     1.045   .     S
H45    N54     1.045   .     S
H48    N56     1.045   .     S
H49    N56     1.046   .     S
H50    N57     1.046   .     S
H51    N57     1.046   .     S
H52    N58     1.046   .     S
C71    O136    1.290   .     A
C71    O133    1.290   .     A
C71    C89     1.451   .     S
C72    C88     1.409   .     A
C72    N131    1.436   .     S
C72    C144    1.400   .     S
C73    C88     1.408   .     A
C73    N132    1.436   .     S
C73    C166    1.400   .     S
C74    C89     1.406   .     A
C74    N124    1.437   .     S
C75    C79     1.397   .     A
C75    F99     1.359   .     S
C75    C86     1.399   .     A
C76    C80     1.399   .     A
C76    F100    1.359   .     S
C76    C87     1.400   .     A
C77    C87     1.400   .     A
C77    C81     1.392   .     A
C77    F101    1.359   .     S
C78    C83     1.395   .     A
C78    C86     1.399   .     A
C78    F102    1.359   .     S
C79    C84     1.408   .     A
C79    N126    1.433   .     S
C80    N127    1.434   .     S
C80    C85     1.408   .     A
C81    C85     1.411   .     A
C81    N128    1.432   .     S
C82    O135    1.290   .     A
C82    O134    1.291   .     A
C82    C88     1.455   .     S
C83    C84     1.415   .     A
C83    N129    1.434   .     S
C84    C90     1.461   .     S
C85    C91     1.457   .     S
C86    C717    1.461   1_554 S
C87    C716    1.461   .     S
C89    C96     1.406   .     A
C90    O137    1.293   .     A
C90    O140    1.292   .     A
C91    O138    1.291   .     A
C91    O139    1.291   .     A
C92    N125    1.367   .     A
C92    H103    1.081   .     S
C92    C515    1.416   1_545 S
C93    N123    1.367   .     A
C93    H114    1.081   .     S
C93    C304    1.417   .     S
C94    H116    1.082   .     S
C94    N125    1.367   .     A
C94    C513    1.417   1_545 S
C95    N123    1.367   .     A
C95    H117    1.081   .     S
C95    C302    1.416   .     S
C96    N130    1.437   .     S
Cu97   N123    2.012   .     S
Cu97   O135    1.968   .     S
Cu97   O139    1.952   .     S
Cu97   O137    1.950   .     S
Cu97   Cu98    2.678   .     S
Cu97   O133    1.968   .     S
Cu98   O136    1.968   .     S
Cu98   N125    2.012   .     S
Cu98   O134    1.968   .     S
Cu98   O140    1.952   .     S
Cu98   O138    1.950   .     S
H104   N128    1.045   .     S
H105   N129    1.044   .     S
H106   N129    1.046   .     S
H107   N130    1.045   .     S
H108   N130    1.045   .     S
H109   N131    1.045   .     S
H110   N131    1.044   .     S
H111   N132    1.044   .     S
H112   N132    1.045   .     S
H113   N124    1.045   .     S
H115   N124    1.045   .     S
H118   N126    1.045   .     S
H119   N126    1.046   .     S
H120   N127    1.046   .     S
H121   N127    1.046   .     S
H122   N128    1.046   .     S
C141   O206    1.290   .     A
C141   O203    1.290   .     A
C141   C159    1.451   .     S
C142   C158    1.409   .     A
C142   N201    1.436   .     S
C142   C4      1.400   1_655 S
C143   C158    1.408   .     A
C143   N202    1.436   .     S
C143   C26     1.400   1_655 S
C144   C159    1.406   .     A
C144   N194    1.437   .     S
C145   C149    1.397   .     A
C145   F169    1.359   .     S
C145   C156    1.399   .     A
C146   C150    1.399   .     A
C146   F170    1.359   .     S
C146   C157    1.400   .     A
C147   C157    1.400   .     A
C147   C151    1.392   .     A
C147   F171    1.359   .     S
C148   C153    1.395   .     A
C148   C156    1.399   .     A
C148   F172    1.359   .     S
C149   C154    1.408   .     A
C149   N196    1.433   .     S
C150   N197    1.434   .     S
C150   C155    1.408   .     A
C151   C155    1.411   .     A
C151   N198    1.432   .     S
C152   O205    1.290   .     A
C152   O204    1.291   .     A
C152   C158    1.455   .     S
C153   C154    1.415   .     A
C153   N199    1.434   .     S
C154   C160    1.461   .     S
C155   C161    1.457   .     S
C156   C787    1.461   1_554 S
C157   C786    1.461   .     S
C159   C166    1.406   .     A
C160   O207    1.293   .     A
C160   O210    1.292   .     A
C161   O208    1.291   .     A
C161   O209    1.291   .     A
C162   N195    1.367   .     A
C162   H173    1.081   .     S
C162   C585    1.416   1_545 S
C163   N193    1.367   .     A
C163   H184    1.081   .     S
C163   C374    1.417   .     S
C164   H186    1.082   .     S
C164   N195    1.367   .     A
C164   C583    1.417   1_545 S
C165   N193    1.367   .     A
C165   H187    1.081   .     S
C165   C372    1.416   .     S
C166   N200    1.437   .     S
Cu167  N193    2.012   .     S
Cu167  O205    1.968   .     S
Cu167  O209    1.952   .     S
Cu167  O207    1.950   .     S
Cu167  Cu168   2.678   .     S
Cu167  O203    1.968   .     S
Cu168  O206    1.968   .     S
Cu168  N195    2.012   .     S
Cu168  O204    1.968   .     S
Cu168  O210    1.952   .     S
Cu168  O208    1.950   .     S
H174   N198    1.045   .     S
H175   N199    1.044   .     S
H176   N199    1.046   .     S
H177   N200    1.045   .     S
H178   N200    1.045   .     S
H179   N201    1.045   .     S
H180   N201    1.044   .     S
H181   N202    1.044   .     S
H182   N202    1.045   .     S
H183   N194    1.045   .     S
H185   N194    1.045   .     S
H188   N196    1.045   .     S
H189   N196    1.046   .     S
H190   N197    1.046   .     S
H191   N197    1.046   .     S
H192   N198    1.046   .     S
C211   O276    1.290   .     A
C211   O273    1.290   .     A
C211   C229    1.451   .     S
C212   C228    1.409   .     A
C212   N271    1.436   .     S
C212   C284    1.400   .     S
C213   C228    1.408   .     A
C213   N272    1.436   .     S
C213   C306    1.400   .     S
C214   C229    1.406   .     A
C214   N264    1.437   .     S
C214   C352    1.400   1_455 S
C215   C219    1.397   .     A
C215   F239    1.359   .     S
C215   C226    1.399   .     A
C216   C220    1.399   .     A
C216   F240    1.359   .     S
C216   C227    1.400   .     A
C217   C227    1.400   .     A
C217   C221    1.392   .     A
C217   F241    1.359   .     S
C218   C223    1.395   .     A
C218   C226    1.399   .     A
C218   F242    1.359   .     S
C219   C224    1.408   .     A
C219   N266    1.433   .     S
C220   N267    1.434   .     S
C220   C225    1.408   .     A
C221   C225    1.411   .     A
C221   N268    1.432   .     S
C222   O275    1.290   .     A
C222   O274    1.291   .     A
C222   C228    1.455   .     S
C223   C224    1.415   .     A
C223   N269    1.434   .     S
C224   C230    1.461   .     S
C225   C231    1.457   .     S
C226   C857    1.461   1_554 S
C227   C856    1.461   .     S
C229   C236    1.406   .     A
C230   O277    1.293   .     A
C230   O280    1.292   .     A
C231   O278    1.291   .     A
C231   O279    1.291   .     A
C232   N265    1.367   .     A
C232   H243    1.081   .     S
C233   N263    1.367   .     A
C233   H254    1.081   .     S
C233   C444    1.417   .     S
C234   H256    1.082   .     S
C234   N265    1.367   .     A
C235   N263    1.367   .     A
C235   H257    1.081   .     S
C235   C442    1.416   .     S
C236   N270    1.437   .     S
C236   C353    1.400   1_455 S
Cu237  N263    2.012   .     S
Cu237  O275    1.968   .     S
Cu237  O279    1.952   .     S
Cu237  O277    1.950   .     S
Cu237  Cu238   2.678   .     S
Cu237  O273    1.968   .     S
Cu238  O276    1.968   .     S
Cu238  N265    2.012   .     S
Cu238  O274    1.968   .     S
Cu238  O280    1.952   .     S
Cu238  O278    1.950   .     S
H244   N268    1.045   .     S
H245   N269    1.044   .     S
H246   N269    1.046   .     S
H247   N270    1.045   .     S
H248   N270    1.045   .     S
H249   N271    1.045   .     S
H250   N271    1.044   .     S
H251   N272    1.044   .     S
H252   N272    1.045   .     S
H253   N264    1.045   .     S
H255   N264    1.045   .     S
H258   N266    1.045   .     S
H259   N266    1.046   .     S
H260   N267    1.046   .     S
H261   N267    1.046   .     S
H262   N268    1.046   .     S
C281   O346    1.290   .     A
C281   O343    1.290   .     A
C281   C299    1.451   .     S
C282   C298    1.409   .     A
C282   N341    1.436   .     S
C282   C354    1.400   .     S
C283   C298    1.408   .     A
C283   N342    1.436   .     S
C283   C376    1.400   .     S
C284   C299    1.406   .     A
C284   N334    1.437   .     S
C285   C289    1.397   .     A
C285   F309    1.359   .     S
C285   C296    1.399   .     A
C286   C290    1.399   .     A
C286   F310    1.359   .     S
C286   C297    1.400   .     A
C287   C297    1.400   .     A
C287   C291    1.392   .     A
C287   F311    1.359   .     S
C288   C293    1.395   .     A
C288   C296    1.399   .     A
C288   F312    1.359   .     S
C289   C294    1.408   .     A
C289   N336    1.433   .     S
C290   N337    1.434   .     S
C290   C295    1.408   .     A
C291   C295    1.411   .     A
C291   N338    1.432   .     S
C292   O345    1.290   .     A
C292   O344    1.291   .     A
C292   C298    1.455   .     S
C293   C294    1.415   .     A
C293   N339    1.434   .     S
C294   C300    1.461   .     S
C295   C301    1.457   .     S
C296   C927    1.461   1_554 S
C297   C926    1.461   .     S
C299   C306    1.406   .     A
C300   O347    1.293   .     A
C300   O350    1.292   .     A
C301   O348    1.291   .     A
C301   O349    1.291   .     A
C302   N335    1.367   .     A
C302   H313    1.081   .     S
C303   N333    1.367   .     A
C303   H324    1.081   .     S
C303   C514    1.417   .     S
C304   H326    1.082   .     S
C304   N335    1.367   .     A
C305   N333    1.367   .     A
C305   H327    1.081   .     S
C305   C512    1.416   .     S
C306   N340    1.437   .     S
Cu307  N333    2.012   .     S
Cu307  O345    1.968   .     S
Cu307  O349    1.952   .     S
Cu307  O347    1.950   .     S
Cu307  Cu308   2.678   .     S
Cu307  O343    1.968   .     S
Cu308  O346    1.968   .     S
Cu308  N335    2.012   .     S
Cu308  O344    1.968   .     S
Cu308  O350    1.952   .     S
Cu308  O348    1.950   .     S
H314   N338    1.045   .     S
H315   N339    1.044   .     S
H316   N339    1.046   .     S
H317   N340    1.045   .     S
H318   N340    1.045   .     S
H319   N341    1.045   .     S
H320   N341    1.044   .     S
H321   N342    1.044   .     S
H322   N342    1.045   .     S
H323   N334    1.045   .     S
H325   N334    1.045   .     S
H328   N336    1.045   .     S
H329   N336    1.046   .     S
H330   N337    1.046   .     S
H331   N337    1.046   .     S
H332   N338    1.046   .     S
C351   O416    1.290   .     A
C351   O413    1.290   .     A
C351   C369    1.451   .     S
C352   C368    1.409   .     A
C352   N411    1.436   .     S
C352   C214    1.400   1_655 S
C353   C368    1.408   .     A
C353   N412    1.436   .     S
C353   C236    1.400   1_655 S
C354   C369    1.406   .     A
C354   N404    1.437   .     S
C355   C359    1.397   .     A
C355   F379    1.359   .     S
C355   C366    1.399   .     A
C356   C360    1.399   .     A
C356   F380    1.359   .     S
C356   C367    1.400   .     A
C357   C367    1.400   .     A
C357   C361    1.392   .     A
C357   F381    1.359   .     S
C358   C363    1.395   .     A
C358   C366    1.399   .     A
C358   F382    1.359   .     S
C359   C364    1.408   .     A
C359   N406    1.433   .     S
C360   N407    1.434   .     S
C360   C365    1.408   .     A
C361   C365    1.411   .     A
C361   N408    1.432   .     S
C362   O415    1.290   .     A
C362   O414    1.291   .     A
C362   C368    1.455   .     S
C363   C364    1.415   .     A
C363   N409    1.434   .     S
C364   C370    1.461   .     S
C365   C371    1.457   .     S
C366   C997    1.461   1_554 S
C367   C996    1.461   .     S
C369   C376    1.406   .     A
C370   O417    1.293   .     A
C370   O420    1.292   .     A
C371   O418    1.291   .     A
C371   O419    1.291   .     A
C372   N405    1.367   .     A
C372   H383    1.081   .     S
C373   N403    1.367   .     A
C373   H394    1.081   .     S
C373   C584    1.417   .     S
C374   H396    1.082   .     S
C374   N405    1.367   .     A
C375   N403    1.367   .     A
C375   H397    1.081   .     S
C375   C582    1.416   .     S
C376   N410    1.437   .     S
Cu377  N403    2.012   .     S
Cu377  O415    1.968   .     S
Cu377  O419    1.952   .     S
Cu377  O417    1.950   .     S
Cu377  Cu378   2.678   .     S
Cu377  O413    1.968   .     S
Cu378  O416    1.968   .     S
Cu378  N405    2.012   .     S
Cu378  O414    1.968   .     S
Cu378  O420    1.952   .     S
Cu378  O418    1.950   .     S
H384   N408    1.045   .     S
H385   N409    1.044   .     S
H386   N409    1.046   .     S
H387   N410    1.045   .     S
H388   N410    1.045   .     S
H389   N411    1.045   .     S
H390   N411    1.044   .     S
H391   N412    1.044   .     S
H392   N412    1.045   .     S
H393   N404    1.045   .     S
H395   N404    1.045   .     S
H398   N406    1.045   .     S
H399   N406    1.046   .     S
H400   N407    1.046   .     S
H401   N407    1.046   .     S
H402   N408    1.046   .     S
C421   O486    1.290   .     A
C421   O483    1.290   .     A
C421   C439    1.451   .     S
C422   C438    1.409   .     A
C422   N481    1.436   .     S
C422   C494    1.400   .     S
C423   C438    1.408   .     A
C423   N482    1.436   .     S
C423   C516    1.400   .     S
C424   C439    1.406   .     A
C424   N474    1.437   .     S
C424   C562    1.400   1_455 S
C425   C429    1.397   .     A
C425   F449    1.359   .     S
C425   C436    1.399   .     A
C426   C430    1.399   .     A
C426   F450    1.359   .     S
C426   C437    1.400   .     A
C427   C437    1.400   .     A
C427   C431    1.392   .     A
C427   F451    1.359   .     S
C428   C433    1.395   .     A
C428   C436    1.399   .     A
C428   F452    1.359   .     S
C429   C434    1.408   .     A
C429   N476    1.433   .     S
C430   N477    1.434   .     S
C430   C435    1.408   .     A
C431   C435    1.411   .     A
C431   N478    1.432   .     S
C432   O485    1.290   .     A
C432   O484    1.291   .     A
C432   C438    1.455   .     S
C433   C434    1.415   .     A
C433   N479    1.434   .     S
C434   C440    1.461   .     S
C435   C441    1.457   .     S
C436   C1067   1.461   1_554 S
C437   C1066   1.461   .     S
C439   C446    1.406   .     A
C440   O487    1.293   .     A
C440   O490    1.292   .     A
C441   O488    1.291   .     A
C441   O489    1.291   .     A
C442   N475    1.367   .     A
C442   H453    1.081   .     S
C443   N473    1.367   .     A
C443   H464    1.081   .     S
C443   C24     1.417   1_565 S
C444   H466    1.082   .     S
C444   N475    1.367   .     A
C445   N473    1.367   .     A
C445   H467    1.081   .     S
C445   C22     1.416   1_565 S
C446   N480    1.437   .     S
C446   C563    1.400   1_455 S
Cu447  N473    2.012   .     S
Cu447  O485    1.968   .     S
Cu447  O489    1.952   .     S
Cu447  O487    1.950   .     S
Cu447  Cu448   2.678   .     S
Cu447  O483    1.968   .     S
Cu448  O486    1.968   .     S
Cu448  N475    2.012   .     S
Cu448  O484    1.968   .     S
Cu448  O490    1.952   .     S
Cu448  O488    1.950   .     S
H454   N478    1.045   .     S
H455   N479    1.044   .     S
H456   N479    1.046   .     S
H457   N480    1.045   .     S
H458   N480    1.045   .     S
H459   N481    1.045   .     S
H460   N481    1.044   .     S
H461   N482    1.044   .     S
H462   N482    1.045   .     S
H463   N474    1.045   .     S
H465   N474    1.045   .     S
H468   N476    1.045   .     S
H469   N476    1.046   .     S
H470   N477    1.046   .     S
H471   N477    1.046   .     S
H472   N478    1.046   .     S
C491   O556    1.290   .     A
C491   O553    1.290   .     A
C491   C509    1.451   .     S
C492   C508    1.409   .     A
C492   N551    1.436   .     S
C492   C564    1.400   .     S
C493   C508    1.408   .     A
C493   N552    1.436   .     S
C493   C586    1.400   .     S
C494   C509    1.406   .     A
C494   N544    1.437   .     S
C495   C499    1.397   .     A
C495   F519    1.359   .     S
C495   C506    1.399   .     A
C496   C500    1.399   .     A
C496   F520    1.359   .     S
C496   C507    1.400   .     A
C497   C507    1.400   .     A
C497   C501    1.392   .     A
C497   F521    1.359   .     S
C498   C503    1.395   .     A
C498   C506    1.399   .     A
C498   F522    1.359   .     S
C499   C504    1.408   .     A
C499   N546    1.433   .     S
C500   N547    1.434   .     S
C500   C505    1.408   .     A
C501   C505    1.411   .     A
C501   N548    1.432   .     S
C502   O555    1.290   .     A
C502   O554    1.291   .     A
C502   C508    1.455   .     S
C503   C504    1.415   .     A
C503   N549    1.434   .     S
C504   C510    1.461   .     S
C505   C511    1.457   .     S
C506   C1137   1.461   1_554 S
C507   C1136   1.461   .     S
C509   C516    1.406   .     A
C510   O557    1.293   .     A
C510   O560    1.292   .     A
C511   O558    1.291   .     A
C511   O559    1.291   .     A
C512   N545    1.367   .     A
C512   H523    1.081   .     S
C513   N543    1.367   .     A
C513   H534    1.081   .     S
C513   C94     1.417   1_565 S
C514   H536    1.082   .     S
C514   N545    1.367   .     A
C515   N543    1.367   .     A
C515   H537    1.081   .     S
C515   C92     1.416   1_565 S
C516   N550    1.437   .     S
Cu517  N543    2.012   .     S
Cu517  O555    1.968   .     S
Cu517  O559    1.952   .     S
Cu517  O557    1.950   .     S
Cu517  Cu518   2.678   .     S
Cu517  O553    1.968   .     S
Cu518  O556    1.968   .     S
Cu518  N545    2.012   .     S
Cu518  O554    1.968   .     S
Cu518  O560    1.952   .     S
Cu518  O558    1.950   .     S
H524   N548    1.045   .     S
H525   N549    1.044   .     S
H526   N549    1.046   .     S
H527   N550    1.045   .     S
H528   N550    1.045   .     S
H529   N551    1.045   .     S
H530   N551    1.044   .     S
H531   N552    1.044   .     S
H532   N552    1.045   .     S
H533   N544    1.045   .     S
H535   N544    1.045   .     S
H538   N546    1.045   .     S
H539   N546    1.046   .     S
H540   N547    1.046   .     S
H541   N547    1.046   .     S
H542   N548    1.046   .     S
C561   O626    1.290   .     A
C561   O623    1.290   .     A
C561   C579    1.451   .     S
C562   C578    1.409   .     A
C562   N621    1.436   .     S
C562   C424    1.400   1_655 S
C563   C578    1.408   .     A
C563   N622    1.436   .     S
C563   C446    1.400   1_655 S
C564   C579    1.406   .     A
C564   N614    1.437   .     S
C565   C569    1.397   .     A
C565   F589    1.359   .     S
C565   C576    1.399   .     A
C566   C570    1.399   .     A
C566   F590    1.359   .     S
C566   C577    1.400   .     A
C567   C577    1.400   .     A
C567   C571    1.392   .     A
C567   F591    1.359   .     S
C568   C573    1.395   .     A
C568   C576    1.399   .     A
C568   F592    1.359   .     S
C569   C574    1.408   .     A
C569   N616    1.433   .     S
C570   N617    1.434   .     S
C570   C575    1.408   .     A
C571   C575    1.411   .     A
C571   N618    1.432   .     S
C572   O625    1.290   .     A
C572   O624    1.291   .     A
C572   C578    1.455   .     S
C573   C574    1.415   .     A
C573   N619    1.434   .     S
C574   C580    1.461   .     S
C575   C581    1.457   .     S
C576   C1207   1.461   1_554 S
C577   C1206   1.461   .     S
C579   C586    1.406   .     A
C580   O627    1.293   .     A
C580   O630    1.292   .     A
C581   O628    1.291   .     A
C581   O629    1.291   .     A
C582   N615    1.367   .     A
C582   H593    1.081   .     S
C583   N613    1.367   .     A
C583   H604    1.081   .     S
C583   C164    1.417   1_565 S
C584   H606    1.082   .     S
C584   N615    1.367   .     A
C585   N613    1.367   .     A
C585   H607    1.081   .     S
C585   C162    1.416   1_565 S
C586   N620    1.437   .     S
Cu587  N613    2.012   .     S
Cu587  O625    1.968   .     S
Cu587  O629    1.952   .     S
Cu587  O627    1.950   .     S
Cu587  Cu588   2.678   .     S
Cu587  O623    1.968   .     S
Cu588  O626    1.968   .     S
Cu588  N615    2.012   .     S
Cu588  O624    1.968   .     S
Cu588  O630    1.952   .     S
Cu588  O628    1.950   .     S
H594   N618    1.045   .     S
H595   N619    1.044   .     S
H596   N619    1.046   .     S
H597   N620    1.045   .     S
H598   N620    1.045   .     S
H599   N621    1.045   .     S
H600   N621    1.044   .     S
H601   N622    1.044   .     S
H602   N622    1.045   .     S
H603   N614    1.045   .     S
H605   N614    1.045   .     S
H608   N616    1.045   .     S
H609   N616    1.046   .     S
H610   N617    1.046   .     S
H611   N617    1.046   .     S
H612   N618    1.046   .     S
C631   O696    1.290   .     A
C631   O693    1.290   .     A
C631   C649    1.451   .     S
C632   C648    1.409   .     A
C632   N691    1.436   .     S
C632   C704    1.400   .     S
C633   C648    1.408   .     A
C633   N692    1.436   .     S
C633   C726    1.400   .     S
C634   C649    1.406   .     A
C634   N684    1.437   .     S
C634   C772    1.400   1_455 S
C635   C639    1.397   .     A
C635   F659    1.359   .     S
C635   C646    1.399   .     A
C636   C640    1.399   .     A
C636   F660    1.359   .     S
C636   C647    1.400   .     A
C637   C647    1.400   .     A
C637   C641    1.392   .     A
C637   F661    1.359   .     S
C638   C643    1.395   .     A
C638   C646    1.399   .     A
C638   F662    1.359   .     S
C639   C644    1.408   .     A
C639   N686    1.433   .     S
C640   N687    1.434   .     S
C640   C645    1.408   .     A
C641   C645    1.411   .     A
C641   N688    1.432   .     S
C642   O695    1.290   .     A
C642   O694    1.291   .     A
C642   C648    1.455   .     S
C643   C644    1.415   .     A
C643   N689    1.434   .     S
C644   C650    1.461   .     S
C645   C651    1.457   .     S
C647   C16     1.461   1_556 S
C649   C656    1.406   .     A
C650   O697    1.293   .     A
C650   O700    1.292   .     A
C651   O698    1.291   .     A
C651   O699    1.291   .     A
C652   N685    1.367   .     A
C652   H663    1.081   .     S
C652   C1075   1.416   1_545 S
C653   N683    1.367   .     A
C653   H674    1.081   .     S
C653   C864    1.417   .     S
C654   H676    1.082   .     S
C654   N685    1.367   .     A
C654   C1073   1.417   1_545 S
C655   N683    1.367   .     A
C655   H677    1.081   .     S
C655   C862    1.416   .     S
C656   N690    1.437   .     S
C656   C773    1.400   1_455 S
Cu657  N683    2.012   .     S
Cu657  O695    1.968   .     S
Cu657  O699    1.952   .     S
Cu657  O697    1.950   .     S
Cu657  Cu658   2.678   .     S
Cu657  O693    1.968   .     S
Cu658  O696    1.968   .     S
Cu658  N685    2.012   .     S
Cu658  O694    1.968   .     S
Cu658  O700    1.952   .     S
Cu658  O698    1.950   .     S
H664   N688    1.045   .     S
H665   N689    1.044   .     S
H666   N689    1.046   .     S
H667   N690    1.045   .     S
H668   N690    1.045   .     S
H669   N691    1.045   .     S
H670   N691    1.044   .     S
H671   N692    1.044   .     S
H672   N692    1.045   .     S
H673   N684    1.045   .     S
H675   N684    1.045   .     S
H678   N686    1.045   .     S
H679   N686    1.046   .     S
H680   N687    1.046   .     S
H681   N687    1.046   .     S
H682   N688    1.046   .     S
C701   O766    1.290   .     A
C701   O763    1.290   .     A
C701   C719    1.451   .     S
C702   C718    1.409   .     A
C702   N761    1.436   .     S
C702   C774    1.400   .     S
C703   C718    1.408   .     A
C703   N762    1.436   .     S
C703   C796    1.400   .     S
C704   C719    1.406   .     A
C704   N754    1.437   .     S
C705   C709    1.397   .     A
C705   F729    1.359   .     S
C705   C716    1.399   .     A
C706   C710    1.399   .     A
C706   F730    1.359   .     S
C706   C717    1.400   .     A
C707   C717    1.400   .     A
C707   C711    1.392   .     A
C707   F731    1.359   .     S
C708   C713    1.395   .     A
C708   C716    1.399   .     A
C708   F732    1.359   .     S
C709   C714    1.408   .     A
C709   N756    1.433   .     S
C710   N757    1.434   .     S
C710   C715    1.408   .     A
C711   C715    1.411   .     A
C711   N758    1.432   .     S
C712   O765    1.290   .     A
C712   O764    1.291   .     A
C712   C718    1.455   .     S
C713   C714    1.415   .     A
C713   N759    1.434   .     S
C714   C720    1.461   .     S
C715   C721    1.457   .     S
C717   C86     1.461   1_556 S
C719   C726    1.406   .     A
C720   O767    1.293   .     A
C720   O770    1.292   .     A
C721   O768    1.291   .     A
C721   O769    1.291   .     A
C722   N755    1.367   .     A
C722   H733    1.081   .     S
C722   C1145   1.416   1_545 S
C723   N753    1.367   .     A
C723   H744    1.081   .     S
C723   C934    1.417   .     S
C724   H746    1.082   .     S
C724   N755    1.367   .     A
C724   C1143   1.417   1_545 S
C725   N753    1.367   .     A
C725   H747    1.081   .     S
C725   C932    1.416   .     S
C726   N760    1.437   .     S
Cu727  N753    2.012   .     S
Cu727  O765    1.968   .     S
Cu727  O769    1.952   .     S
Cu727  O767    1.950   .     S
Cu727  Cu728   2.678   .     S
Cu727  O763    1.968   .     S
Cu728  O766    1.968   .     S
Cu728  N755    2.012   .     S
Cu728  O764    1.968   .     S
Cu728  O770    1.952   .     S
Cu728  O768    1.950   .     S
H734   N758    1.045   .     S
H735   N759    1.044   .     S
H736   N759    1.046   .     S
H737   N760    1.045   .     S
H738   N760    1.045   .     S
H739   N761    1.045   .     S
H740   N761    1.044   .     S
H741   N762    1.044   .     S
H742   N762    1.045   .     S
H743   N754    1.045   .     S
H745   N754    1.045   .     S
H748   N756    1.045   .     S
H749   N756    1.046   .     S
H750   N757    1.046   .     S
H751   N757    1.046   .     S
H752   N758    1.046   .     S
C771   O836    1.290   .     A
C771   O833    1.290   .     A
C771   C789    1.451   .     S
C772   C788    1.409   .     A
C772   N831    1.436   .     S
C772   C634    1.400   1_655 S
C773   C788    1.408   .     A
C773   N832    1.436   .     S
C773   C656    1.400   1_655 S
C774   C789    1.406   .     A
C774   N824    1.437   .     S
C775   C779    1.397   .     A
C775   F799    1.359   .     S
C775   C786    1.399   .     A
C776   C780    1.399   .     A
C776   F800    1.359   .     S
C776   C787    1.400   .     A
C777   C787    1.400   .     A
C777   C781    1.392   .     A
C777   F801    1.359   .     S
C778   C783    1.395   .     A
C778   C786    1.399   .     A
C778   F802    1.359   .     S
C779   C784    1.408   .     A
C779   N826    1.433   .     S
C780   N827    1.434   .     S
C780   C785    1.408   .     A
C781   C785    1.411   .     A
C781   N828    1.432   .     S
C782   O835    1.290   .     A
C782   O834    1.291   .     A
C782   C788    1.455   .     S
C783   C784    1.415   .     A
C783   N829    1.434   .     S
C784   C790    1.461   .     S
C785   C791    1.457   .     S
C787   C156    1.461   1_556 S
C789   C796    1.406   .     A
C790   O837    1.293   .     A
C790   O840    1.292   .     A
C791   O838    1.291   .     A
C791   O839    1.291   .     A
C792   N825    1.367   .     A
C792   H803    1.081   .     S
C792   C1215   1.416   1_545 S
C793   N823    1.367   .     A
C793   H814    1.081   .     S
C793   C1004   1.417   .     S
C794   H816    1.082   .     S
C794   N825    1.367   .     A
C794   C1213   1.417   1_545 S
C795   N823    1.367   .     A
C795   H817    1.081   .     S
C795   C1002   1.416   .     S
C796   N830    1.437   .     S
Cu797  N823    2.012   .     S
Cu797  O835    1.968   .     S
Cu797  O839    1.952   .     S
Cu797  O837    1.950   .     S
Cu797  Cu798   2.678   .     S
Cu797  O833    1.968   .     S
Cu798  O836    1.968   .     S
Cu798  N825    2.012   .     S
Cu798  O834    1.968   .     S
Cu798  O840    1.952   .     S
Cu798  O838    1.950   .     S
H804   N828    1.045   .     S
H805   N829    1.044   .     S
H806   N829    1.046   .     S
H807   N830    1.045   .     S
H808   N830    1.045   .     S
H809   N831    1.045   .     S
H810   N831    1.044   .     S
H811   N832    1.044   .     S
H812   N832    1.045   .     S
H813   N824    1.045   .     S
H815   N824    1.045   .     S
H818   N826    1.045   .     S
H819   N826    1.046   .     S
H820   N827    1.046   .     S
H821   N827    1.046   .     S
H822   N828    1.046   .     S
C841   O906    1.290   .     A
C841   O903    1.290   .     A
C841   C859    1.451   .     S
C842   C858    1.409   .     A
C842   N901    1.436   .     S
C842   C914    1.400   .     S
C843   C858    1.408   .     A
C843   N902    1.436   .     S
C843   C936    1.400   .     S
C844   C859    1.406   .     A
C844   N894    1.437   .     S
C844   C982    1.400   1_455 S
C845   C849    1.397   .     A
C845   F869    1.359   .     S
C845   C856    1.399   .     A
C846   C850    1.399   .     A
C846   F870    1.359   .     S
C846   C857    1.400   .     A
C847   C857    1.400   .     A
C847   C851    1.392   .     A
C847   F871    1.359   .     S
C848   C853    1.395   .     A
C848   C856    1.399   .     A
C848   F872    1.359   .     S
C849   C854    1.408   .     A
C849   N896    1.433   .     S
C850   N897    1.434   .     S
C850   C855    1.408   .     A
C851   C855    1.411   .     A
C851   N898    1.432   .     S
C852   O905    1.290   .     A
C852   O904    1.291   .     A
C852   C858    1.455   .     S
C853   C854    1.415   .     A
C853   N899    1.434   .     S
C854   C860    1.461   .     S
C855   C861    1.457   .     S
C857   C226    1.461   1_556 S
C859   C866    1.406   .     A
C860   O907    1.293   .     A
C860   O910    1.292   .     A
C861   O908    1.291   .     A
C861   O909    1.291   .     A
C862   N895    1.367   .     A
C862   H873    1.081   .     S
C863   N893    1.367   .     A
C863   H884    1.081   .     S
C863   C1074   1.417   .     S
C864   H886    1.082   .     S
C864   N895    1.367   .     A
C865   N893    1.367   .     A
C865   H887    1.081   .     S
C865   C1072   1.416   .     S
C866   N900    1.437   .     S
C866   C983    1.400   1_455 S
Cu867  N893    2.012   .     S
Cu867  O905    1.968   .     S
Cu867  O909    1.952   .     S
Cu867  O907    1.950   .     S
Cu867  Cu868   2.678   .     S
Cu867  O903    1.968   .     S
Cu868  O906    1.968   .     S
Cu868  N895    2.012   .     S
Cu868  O904    1.968   .     S
Cu868  O910    1.952   .     S
Cu868  O908    1.950   .     S
H874   N898    1.045   .     S
H875   N899    1.044   .     S
H876   N899    1.046   .     S
H877   N900    1.045   .     S
H878   N900    1.045   .     S
H879   N901    1.045   .     S
H880   N901    1.044   .     S
H881   N902    1.044   .     S
H882   N902    1.045   .     S
H883   N894    1.045   .     S
H885   N894    1.045   .     S
H888   N896    1.045   .     S
H889   N896    1.046   .     S
H890   N897    1.046   .     S
H891   N897    1.046   .     S
H892   N898    1.046   .     S
C911   O976    1.290   .     A
C911   O973    1.290   .     A
C911   C929    1.451   .     S
C912   C928    1.409   .     A
C912   N971    1.436   .     S
C912   C984    1.400   .     S
C913   C928    1.408   .     A
C913   N972    1.436   .     S
C913   C1006   1.400   .     S
C914   C929    1.406   .     A
C914   N964    1.437   .     S
C915   C919    1.397   .     A
C915   F939    1.359   .     S
C915   C926    1.399   .     A
C916   C920    1.399   .     A
C916   F940    1.359   .     S
C916   C927    1.400   .     A
C917   C927    1.400   .     A
C917   C921    1.392   .     A
C917   F941    1.359   .     S
C918   C923    1.395   .     A
C918   C926    1.399   .     A
C918   F942    1.359   .     S
C919   C924    1.408   .     A
C919   N966    1.433   .     S
C920   N967    1.434   .     S
C920   C925    1.408   .     A
C921   C925    1.411   .     A
C921   N968    1.432   .     S
C922   O975    1.290   .     A
C922   O974    1.291   .     A
C922   C928    1.455   .     S
C923   C924    1.415   .     A
C923   N969    1.434   .     S
C924   C930    1.461   .     S
C925   C931    1.457   .     S
C927   C296    1.461   1_556 S
C929   C936    1.406   .     A
C930   O977    1.293   .     A
C930   O980    1.292   .     A
C931   O978    1.291   .     A
C931   O979    1.291   .     A
C932   N965    1.367   .     A
C932   H943    1.081   .     S
C933   N963    1.367   .     A
C933   H954    1.081   .     S
C933   C1144   1.417   .     S
C934   H956    1.082   .     S
C934   N965    1.367   .     A
C935   N963    1.367   .     A
C935   H957    1.081   .     S
C935   C1142   1.416   .     S
C936   N970    1.437   .     S
Cu937  N963    2.012   .     S
Cu937  O975    1.968   .     S
Cu937  O979    1.952   .     S
Cu937  O977    1.950   .     S
Cu937  Cu938   2.678   .     S
Cu937  O973    1.968   .     S
Cu938  O976    1.968   .     S
Cu938  N965    2.012   .     S
Cu938  O974    1.968   .     S
Cu938  O980    1.952   .     S
Cu938  O978    1.950   .     S
H944   N968    1.045   .     S
H945   N969    1.044   .     S
H946   N969    1.046   .     S
H947   N970    1.045   .     S
H948   N970    1.045   .     S
H949   N971    1.045   .     S
H950   N971    1.044   .     S
H951   N972    1.044   .     S
H952   N972    1.045   .     S
H953   N964    1.045   .     S
H955   N964    1.045   .     S
H958   N966    1.045   .     S
H959   N966    1.046   .     S
H960   N967    1.046   .     S
H961   N967    1.046   .     S
H962   N968    1.046   .     S
C981   O1046   1.290   .     A
C981   O1043   1.290   .     A
C981   C999    1.451   .     S
C982   C998    1.409   .     A
C982   N1041   1.436   .     S
C982   C844    1.400   1_655 S
C983   C998    1.408   .     A
C983   N1042   1.436   .     S
C983   C866    1.400   1_655 S
C984   C999    1.406   .     A
C984   N1034   1.437   .     S
C985   C989    1.397   .     A
C985   F1009   1.359   .     S
C985   C996    1.399   .     A
C986   C990    1.399   .     A
C986   F1010   1.359   .     S
C986   C997    1.400   .     A
C987   C997    1.400   .     A
C987   C991    1.392   .     A
C987   F1011   1.359   .     S
C988   C993    1.395   .     A
C988   C996    1.399   .     A
C988   F1012   1.359   .     S
C989   C994    1.408   .     A
C989   N1036   1.433   .     S
C990   N1037   1.434   .     S
C990   C995    1.408   .     A
C991   C995    1.411   .     A
C991   N1038   1.432   .     S
C992   O1045   1.290   .     A
C992   O1044   1.291   .     A
C992   C998    1.455   .     S
C993   C994    1.415   .     A
C993   N1039   1.434   .     S
C994   C1000   1.461   .     S
C995   C1001   1.457   .     S
C997   C366    1.461   1_556 S
C999   C1006   1.406   .     A
C1000  O1047   1.293   .     A
C1000  O1050   1.292   .     A
C1001  O1048   1.291   .     A
C1001  O1049   1.291   .     A
C1002  N1035   1.367   .     A
C1002  H1013   1.081   .     S
C1003  N1033   1.367   .     A
C1003  H1024   1.081   .     S
C1003  C1214   1.417   .     S
C1004  H1026   1.082   .     S
C1004  N1035   1.367   .     A
C1005  N1033   1.367   .     A
C1005  H1027   1.081   .     S
C1005  C1212   1.416   .     S
C1006  N1040   1.437   .     S
Cu1007 N1033   2.012   .     S
Cu1007 O1045   1.968   .     S
Cu1007 O1049   1.952   .     S
Cu1007 O1047   1.950   .     S
Cu1007 Cu1008  2.678   .     S
Cu1007 O1043   1.968   .     S
Cu1008 O1046   1.968   .     S
Cu1008 N1035   2.012   .     S
Cu1008 O1044   1.968   .     S
Cu1008 O1050   1.952   .     S
Cu1008 O1048   1.950   .     S
H1014  N1038   1.045   .     S
H1015  N1039   1.044   .     S
H1016  N1039   1.046   .     S
H1017  N1040   1.045   .     S
H1018  N1040   1.045   .     S
H1019  N1041   1.045   .     S
H1020  N1041   1.044   .     S
H1021  N1042   1.044   .     S
H1022  N1042   1.045   .     S
H1023  N1034   1.045   .     S
H1025  N1034   1.045   .     S
H1028  N1036   1.045   .     S
H1029  N1036   1.046   .     S
H1030  N1037   1.046   .     S
H1031  N1037   1.046   .     S
H1032  N1038   1.046   .     S
C1051  O1116   1.290   .     A
C1051  O1113   1.290   .     A
C1051  C1069   1.451   .     S
C1052  C1068   1.409   .     A
C1052  N1111   1.436   .     S
C1052  C1124   1.400   .     S
C1053  C1068   1.408   .     A
C1053  N1112   1.436   .     S
C1053  C1146   1.400   .     S
C1054  C1069   1.406   .     A
C1054  N1104   1.437   .     S
C1054  C1192   1.400   1_455 S
C1055  C1059   1.397   .     A
C1055  F1079   1.359   .     S
C1055  C1066   1.399   .     A
C1056  C1060   1.399   .     A
C1056  F1080   1.359   .     S
C1056  C1067   1.400   .     A
C1057  C1067   1.400   .     A
C1057  C1061   1.392   .     A
C1057  F1081   1.359   .     S
C1058  C1063   1.395   .     A
C1058  C1066   1.399   .     A
C1058  F1082   1.359   .     S
C1059  C1064   1.408   .     A
C1059  N1106   1.433   .     S
C1060  N1107   1.434   .     S
C1060  C1065   1.408   .     A
C1061  C1065   1.411   .     A
C1061  N1108   1.432   .     S
C1062  O1115   1.290   .     A
C1062  O1114   1.291   .     A
C1062  C1068   1.455   .     S
C1063  C1064   1.415   .     A
C1063  N1109   1.434   .     S
C1064  C1070   1.461   .     S
C1065  C1071   1.457   .     S
C1067  C436    1.461   1_556 S
C1069  C1076   1.406   .     A
C1070  O1117   1.293   .     A
C1070  O1120   1.292   .     A
C1071  O1118   1.291   .     A
C1071  O1119   1.291   .     A
C1072  N1105   1.367   .     A
C1072  H1083   1.081   .     S
C1073  N1103   1.367   .     A
C1073  H1094   1.081   .     S
C1073  C654    1.417   1_565 S
C1074  H1096   1.082   .     S
C1074  N1105   1.367   .     A
C1075  N1103   1.367   .     A
C1075  H1097   1.081   .     S
C1075  C652    1.416   1_565 S
C1076  N1110   1.437   .     S
C1076  C1193   1.400   1_455 S
Cu1077 N1103   2.012   .     S
Cu1077 O1115   1.968   .     S
Cu1077 O1119   1.952   .     S
Cu1077 O1117   1.950   .     S
Cu1077 Cu1078  2.678   .     S
Cu1077 O1113   1.968   .     S
Cu1078 O1116   1.968   .     S
Cu1078 N1105   2.012   .     S
Cu1078 O1114   1.968   .     S
Cu1078 O1120   1.952   .     S
Cu1078 O1118   1.950   .     S
H1084  N1108   1.045   .     S
H1085  N1109   1.044   .     S
H1086  N1109   1.046   .     S
H1087  N1110   1.045   .     S
H1088  N1110   1.045   .     S
H1089  N1111   1.045   .     S
H1090  N1111   1.044   .     S
H1091  N1112   1.044   .     S
H1092  N1112   1.045   .     S
H1093  N1104   1.045   .     S
H1095  N1104   1.045   .     S
H1098  N1106   1.045   .     S
H1099  N1106   1.046   .     S
H1100  N1107   1.046   .     S
H1101  N1107   1.046   .     S
H1102  N1108   1.046   .     S
C1121  O1186   1.290   .     A
C1121  O1183   1.290   .     A
C1121  C1139   1.451   .     S
C1122  C1138   1.409   .     A
C1122  N1181   1.436   .     S
C1122  C1194   1.400   .     S
C1123  C1138   1.408   .     A
C1123  N1182   1.436   .     S
C1123  C1216   1.400   .     S
C1124  C1139   1.406   .     A
C1124  N1174   1.437   .     S
C1125  C1129   1.397   .     A
C1125  F1149   1.359   .     S
C1125  C1136   1.399   .     A
C1126  C1130   1.399   .     A
C1126  F1150   1.359   .     S
C1126  C1137   1.400   .     A
C1127  C1137   1.400   .     A
C1127  C1131   1.392   .     A
C1127  F1151   1.359   .     S
C1128  C1133   1.395   .     A
C1128  C1136   1.399   .     A
C1128  F1152   1.359   .     S
C1129  C1134   1.408   .     A
C1129  N1176   1.433   .     S
C1130  N1177   1.434   .     S
C1130  C1135   1.408   .     A
C1131  C1135   1.411   .     A
C1131  N1178   1.432   .     S
C1132  O1185   1.290   .     A
C1132  O1184   1.291   .     A
C1132  C1138   1.455   .     S
C1133  C1134   1.415   .     A
C1133  N1179   1.434   .     S
C1134  C1140   1.461   .     S
C1135  C1141   1.457   .     S
C1137  C506    1.461   1_556 S
C1139  C1146   1.406   .     A
C1140  O1187   1.293   .     A
C1140  O1190   1.292   .     A
C1141  O1188   1.291   .     A
C1141  O1189   1.291   .     A
C1142  N1175   1.367   .     A
C1142  H1153   1.081   .     S
C1143  N1173   1.367   .     A
C1143  H1164   1.081   .     S
C1143  C724    1.417   1_565 S
C1144  H1166   1.082   .     S
C1144  N1175   1.367   .     A
C1145  N1173   1.367   .     A
C1145  H1167   1.081   .     S
C1145  C722    1.416   1_565 S
C1146  N1180   1.437   .     S
Cu1147 N1173   2.012   .     S
Cu1147 O1185   1.968   .     S
Cu1147 O1189   1.952   .     S
Cu1147 O1187   1.950   .     S
Cu1147 Cu1148  2.678   .     S
Cu1147 O1183   1.968   .     S
Cu1148 O1186   1.968   .     S
Cu1148 N1175   2.012   .     S
Cu1148 O1184   1.968   .     S
Cu1148 O1190   1.952   .     S
Cu1148 O1188   1.950   .     S
H1154  N1178   1.045   .     S
H1155  N1179   1.044   .     S
H1156  N1179   1.046   .     S
H1157  N1180   1.045   .     S
H1158  N1180   1.045   .     S
H1159  N1181   1.045   .     S
H1160  N1181   1.044   .     S
H1161  N1182   1.044   .     S
H1162  N1182   1.045   .     S
H1163  N1174   1.045   .     S
H1165  N1174   1.045   .     S
H1168  N1176   1.045   .     S
H1169  N1176   1.046   .     S
H1170  N1177   1.046   .     S
H1171  N1177   1.046   .     S
H1172  N1178   1.046   .     S
C1191  O1256   1.290   .     A
C1191  O1253   1.290   .     A
C1191  C1209   1.451   .     S
C1192  C1208   1.409   .     A
C1192  N1251   1.436   .     S
C1192  C1054   1.400   1_655 S
C1193  C1208   1.408   .     A
C1193  N1252   1.436   .     S
C1193  C1076   1.400   1_655 S
C1194  C1209   1.406   .     A
C1194  N1244   1.437   .     S
C1195  C1199   1.397   .     A
C1195  F1219   1.359   .     S
C1195  C1206   1.399   .     A
C1196  C1200   1.399   .     A
C1196  F1220   1.359   .     S
C1196  C1207   1.400   .     A
C1197  C1207   1.400   .     A
C1197  C1201   1.392   .     A
C1197  F1221   1.359   .     S
C1198  C1203   1.395   .     A
C1198  C1206   1.399   .     A
C1198  F1222   1.359   .     S
C1199  C1204   1.408   .     A
C1199  N1246   1.433   .     S
C1200  N1247   1.434   .     S
C1200  C1205   1.408   .     A
C1201  C1205   1.411   .     A
C1201  N1248   1.432   .     S
C1202  O1255   1.290   .     A
C1202  O1254   1.291   .     A
C1202  C1208   1.455   .     S
C1203  C1204   1.415   .     A
C1203  N1249   1.434   .     S
C1204  C1210   1.461   .     S
C1205  C1211   1.457   .     S
C1207  C576    1.461   1_556 S
C1209  C1216   1.406   .     A
C1210  O1257   1.293   .     A
C1210  O1260   1.292   .     A
C1211  O1258   1.291   .     A
C1211  O1259   1.291   .     A
C1212  N1245   1.367   .     A
C1212  H1223   1.081   .     S
C1213  N1243   1.367   .     A
C1213  H1234   1.081   .     S
C1213  C794    1.417   1_565 S
C1214  H1236   1.082   .     S
C1214  N1245   1.367   .     A
C1215  N1243   1.367   .     A
C1215  H1237   1.081   .     S
C1215  C792    1.416   1_565 S
C1216  N1250   1.437   .     S
Cu1217 N1243   2.012   .     S
Cu1217 O1255   1.968   .     S
Cu1217 O1259   1.952   .     S
Cu1217 O1257   1.950   .     S
Cu1217 Cu1218  2.678   .     S
Cu1217 O1253   1.968   .     S
Cu1218 O1256   1.968   .     S
Cu1218 N1245   2.012   .     S
Cu1218 O1254   1.968   .     S
Cu1218 O1260   1.952   .     S
Cu1218 O1258   1.950   .     S
H1224  N1248   1.045   .     S
H1225  N1249   1.044   .     S
H1226  N1249   1.046   .     S
H1227  N1250   1.045   .     S
H1228  N1250   1.045   .     S
H1229  N1251   1.045   .     S
H1230  N1251   1.044   .     S
H1231  N1252   1.044   .     S
H1232  N1252   1.045   .     S
H1233  N1244   1.045   .     S
H1235  N1244   1.045   .     S
H1238  N1246   1.045   .     S
H1239  N1246   1.046   .     S
H1240  N1247   1.046   .     S
H1241  N1247   1.046   .     S
H1242  N1248   1.046   .     S
