data_str_m2_o10_o16_pcu_sym.134
_audit_creation_date              2020-01-03
_audit_creation_method            'Materials Studio'
_symmetry_space_group_name_H-M    'P1'
_symmetry_Int_Tables_number       1
_symmetry_cell_setting            triclinic
loop_
_symmetry_equiv_pos_as_xyz
  x,y,z
_cell_length_a                    22.3713
_cell_length_b                    26.1355
_cell_length_c                    26.7239
_cell_angle_alpha                 94.8349
_cell_angle_beta                  77.1634
_cell_angle_gamma                 103.3988
loop_
_atom_site_label
_atom_site_type_symbol
_atom_site_fract_x
_atom_site_fract_y
_atom_site_fract_z
_atom_site_U_iso_or_equiv
_atom_site_adp_type
_atom_site_occupancy
C1     C     0.18179   0.26668   0.25109   0.00000  Uiso   1.00
C2     C     0.13862   0.16762   0.48852   0.00000  Uiso   1.00
C3     C     0.15320   0.18287   0.43685   0.00000  Uiso   1.00
C4     C     0.18597   0.18119   0.01813   0.00000  Uiso   1.00
C5     C     0.24443   0.21494   0.49804   0.00000  Uiso   1.00
C6     C     0.25494   0.23515   0.44951   0.00000  Uiso   1.00
C7     C     0.20981   0.22000   0.41967   0.00000  Uiso   1.00
C8     C     0.17699   0.16182   0.06721   0.00000  Uiso   1.00
C9     C     0.27917   0.21207   0.07744   0.00000  Uiso   1.00
C10    C     0.11046   0.16143   0.40409   0.00000  Uiso   1.00
C11    C     0.18920   0.32259   0.25181   0.00000  Uiso   1.00
C12    C     0.13253   0.16425   0.34748   0.00000  Uiso   1.00
C13    C     0.14486   0.01090   0.24105   0.00000  Uiso   1.00
C14    C     0.15207   0.06676   0.24687   0.00000  Uiso   1.00
C15    C     0.20064   0.17055   0.15294   0.00000  Uiso   1.00
C16    C     0.29102   0.22925   0.02742   0.00000  Uiso   1.00
C17    C     0.22120   0.17947   0.09785   0.00000  Uiso   1.00
C18    C     0.04910   0.13265   0.42599   0.00000  Uiso   1.00
C19    C     0.03269   0.12319   0.47858   0.00000  Uiso   1.00
C20    C     0.07681   0.14072   0.00927   0.00000  Uiso   1.00
Cu21   Cu    0.10710   0.16105   0.24436   0.00000  Uiso   1.00
Cu22   Cu    0.22623   0.17228   0.25565   0.00000  Uiso   1.00
H23    H     0.31394   0.22611   0.10077   0.00000  Uiso   1.00
H24    H     0.00284   0.20507   0.29093   0.00000  Uiso   1.00
H25    H     0.29828   0.26280   0.43446   0.00000  Uiso   1.00
H26    H     0.00240   0.25516   0.01232   0.00000  Uiso   1.00
H27    H     0.13512   0.13352   0.08325   0.00000  Uiso   1.00
H28    H     0.06031   0.13443   0.04980   0.00000  Uiso   1.00
H29    H     0.21944   0.23907   0.38352   0.00000  Uiso   1.00
H30    H     0.23162   0.01317   0.26224   0.00000  Uiso   1.00
N31    N     0.31574   0.18074   0.26416   0.00000  Uiso   1.00
N32    N     0.01759   0.15259   0.23584   0.00000  Uiso   1.00
O33    O     0.12797   0.23807   0.24633   0.00000  Uiso   1.00
O34    O     0.22858   0.24755   0.25587   0.00000  Uiso   1.00
O35    O     0.09181   0.15960   0.31840   0.00000  Uiso   1.00
O36    O     0.19242   0.16908   0.32793   0.00000  Uiso   1.00
O37    O     0.10476   0.08578   0.24414   0.00000  Uiso   1.00
O38    O     0.20536   0.09526   0.25367   0.00000  Uiso   1.00
O39    O     0.14092   0.16425   0.17207   0.00000  Uiso   1.00
O40    O     0.24152   0.17373   0.18161   0.00000  Uiso   1.00
O41    O     0.09034   0.31455   0.22756   0.00000  Uiso   1.00
C42    C     0.09868   0.31328   0.17360   0.00000  Uiso   1.00
H43    H     0.13869   0.29502   0.15471   0.00000  Uiso   1.00
H44    H     0.10562   0.01997   0.15894   0.00000  Uiso   1.00
H45    H     0.05559   0.28871   0.16277   0.00000  Uiso   1.00
I46    I     0.32647   0.10022   0.17672   0.00000  Uiso   1.00
I47    I     0.31076   0.09894   0.38373   0.00000  Uiso   1.00
O48    O     0.30504   0.09864   0.00050   0.00000  Uiso   1.00
C49    C     0.30435   0.04769   0.01476   0.00000  Uiso   1.00
H50    H     0.32714   0.04929   0.04799   0.00000  Uiso   1.00
H51    H     0.32694   0.02465   0.48197   0.00000  Uiso   1.00
H52    H     0.25475   0.02634   0.02680   0.00000  Uiso   1.00
C53    C     0.51512   0.26668   0.25109   0.00000  Uiso   1.00
C54    C     0.47196   0.16762   0.48852   0.00000  Uiso   1.00
C55    C     0.48653   0.18287   0.43685   0.00000  Uiso   1.00
C56    C     0.51931   0.18119   0.01813   0.00000  Uiso   1.00
C57    C     0.57777   0.21494   0.49804   0.00000  Uiso   1.00
C58    C     0.58827   0.23515   0.44951   0.00000  Uiso   1.00
C59    C     0.54315   0.22000   0.41967   0.00000  Uiso   1.00
C60    C     0.51032   0.16182   0.06721   0.00000  Uiso   1.00
C61    C     0.61250   0.21207   0.07744   0.00000  Uiso   1.00
C62    C     0.44379   0.16143   0.40409   0.00000  Uiso   1.00
C63    C     0.52253   0.32259   0.25181   0.00000  Uiso   1.00
C64    C     0.46586   0.16425   0.34748   0.00000  Uiso   1.00
C65    C     0.47820   0.01090   0.24105   0.00000  Uiso   1.00
C66    C     0.48540   0.06676   0.24687   0.00000  Uiso   1.00
C67    C     0.53397   0.17055   0.15294   0.00000  Uiso   1.00
C68    C     0.62436   0.22925   0.02742   0.00000  Uiso   1.00
C69    C     0.55453   0.17947   0.09785   0.00000  Uiso   1.00
C70    C     0.38244   0.13265   0.42599   0.00000  Uiso   1.00
C71    C     0.36602   0.12319   0.47858   0.00000  Uiso   1.00
C72    C     0.41014   0.14072   0.00927   0.00000  Uiso   1.00
Cu73   Cu    0.44043   0.16105   0.24436   0.00000  Uiso   1.00
Cu74   Cu    0.55957   0.17228   0.25565   0.00000  Uiso   1.00
H75    H     0.64727   0.22611   0.10077   0.00000  Uiso   1.00
H76    H     0.33618   0.20507   0.29093   0.00000  Uiso   1.00
H77    H     0.63162   0.26280   0.43446   0.00000  Uiso   1.00
H78    H     0.33574   0.25516   0.01232   0.00000  Uiso   1.00
H79    H     0.46846   0.13352   0.08325   0.00000  Uiso   1.00
H80    H     0.39365   0.13443   0.04980   0.00000  Uiso   1.00
H81    H     0.55277   0.23907   0.38352   0.00000  Uiso   1.00
H82    H     0.56495   0.01317   0.26224   0.00000  Uiso   1.00
N83    N     0.64908   0.18074   0.26416   0.00000  Uiso   1.00
N84    N     0.35092   0.15259   0.23584   0.00000  Uiso   1.00
O85    O     0.46131   0.23807   0.24633   0.00000  Uiso   1.00
O86    O     0.56191   0.24755   0.25587   0.00000  Uiso   1.00
O87    O     0.42515   0.15960   0.31840   0.00000  Uiso   1.00
O88    O     0.52575   0.16908   0.32793   0.00000  Uiso   1.00
O89    O     0.43809   0.08578   0.24414   0.00000  Uiso   1.00
O90    O     0.53869   0.09526   0.25367   0.00000  Uiso   1.00
O91    O     0.47425   0.16425   0.17207   0.00000  Uiso   1.00
O92    O     0.57485   0.17373   0.18161   0.00000  Uiso   1.00
O93    O     0.42367   0.31455   0.22756   0.00000  Uiso   1.00
C94    C     0.43201   0.31328   0.17360   0.00000  Uiso   1.00
H95    H     0.47203   0.29502   0.15471   0.00000  Uiso   1.00
H96    H     0.43896   0.01997   0.15894   0.00000  Uiso   1.00
H97    H     0.38892   0.28871   0.16277   0.00000  Uiso   1.00
I98    I     0.65980   0.10022   0.17672   0.00000  Uiso   1.00
I99    I     0.64409   0.09894   0.38373   0.00000  Uiso   1.00
O100   O     0.63838   0.09864   0.00050   0.00000  Uiso   1.00
C101   C     0.63768   0.04769   0.01476   0.00000  Uiso   1.00
H102   H     0.66047   0.04929   0.04799   0.00000  Uiso   1.00
H103   H     0.66028   0.02465   0.48197   0.00000  Uiso   1.00
H104   H     0.58808   0.02634   0.02680   0.00000  Uiso   1.00
C105   C     0.84845   0.26668   0.25109   0.00000  Uiso   1.00
C106   C     0.80529   0.16762   0.48852   0.00000  Uiso   1.00
C107   C     0.81986   0.18287   0.43685   0.00000  Uiso   1.00
C108   C     0.85264   0.18119   0.01813   0.00000  Uiso   1.00
C109   C     0.91110   0.21494   0.49804   0.00000  Uiso   1.00
C110   C     0.92161   0.23515   0.44951   0.00000  Uiso   1.00
C111   C     0.87648   0.22000   0.41967   0.00000  Uiso   1.00
C112   C     0.84365   0.16182   0.06721   0.00000  Uiso   1.00
C113   C     0.94584   0.21207   0.07744   0.00000  Uiso   1.00
C114   C     0.77712   0.16143   0.40409   0.00000  Uiso   1.00
C115   C     0.85586   0.32259   0.25181   0.00000  Uiso   1.00
C116   C     0.79920   0.16425   0.34748   0.00000  Uiso   1.00
C117   C     0.81153   0.01090   0.24105   0.00000  Uiso   1.00
C118   C     0.81874   0.06676   0.24687   0.00000  Uiso   1.00
C119   C     0.86731   0.17055   0.15294   0.00000  Uiso   1.00
C120   C     0.95769   0.22925   0.02742   0.00000  Uiso   1.00
C121   C     0.88786   0.17947   0.09785   0.00000  Uiso   1.00
C122   C     0.71577   0.13265   0.42599   0.00000  Uiso   1.00
C123   C     0.69935   0.12319   0.47858   0.00000  Uiso   1.00
C124   C     0.74347   0.14072   0.00927   0.00000  Uiso   1.00
Cu125  Cu    0.77377   0.16105   0.24436   0.00000  Uiso   1.00
Cu126  Cu    0.89290   0.17228   0.25565   0.00000  Uiso   1.00
H127   H     0.98060   0.22611   0.10077   0.00000  Uiso   1.00
H128   H     0.66951   0.20507   0.29093   0.00000  Uiso   1.00
H129   H     0.96495   0.26280   0.43446   0.00000  Uiso   1.00
H130   H     0.66907   0.25516   0.01232   0.00000  Uiso   1.00
H131   H     0.80179   0.13352   0.08325   0.00000  Uiso   1.00
H132   H     0.72698   0.13443   0.04980   0.00000  Uiso   1.00
H133   H     0.88611   0.23907   0.38352   0.00000  Uiso   1.00
H134   H     0.89828   0.01317   0.26224   0.00000  Uiso   1.00
N135   N     0.98241   0.18074   0.26416   0.00000  Uiso   1.00
N136   N     0.68426   0.15259   0.23584   0.00000  Uiso   1.00
O137   O     0.79464   0.23807   0.24633   0.00000  Uiso   1.00
O138   O     0.89524   0.24755   0.25587   0.00000  Uiso   1.00
O139   O     0.75848   0.15960   0.31840   0.00000  Uiso   1.00
O140   O     0.85908   0.16908   0.32793   0.00000  Uiso   1.00
O141   O     0.77142   0.08578   0.24414   0.00000  Uiso   1.00
O142   O     0.87203   0.09526   0.25367   0.00000  Uiso   1.00
O143   O     0.80758   0.16425   0.17207   0.00000  Uiso   1.00
O144   O     0.90819   0.17373   0.18161   0.00000  Uiso   1.00
O145   O     0.75701   0.31455   0.22756   0.00000  Uiso   1.00
C146   C     0.76534   0.31328   0.17360   0.00000  Uiso   1.00
H147   H     0.80536   0.29502   0.15471   0.00000  Uiso   1.00
H148   H     0.77229   0.01997   0.15894   0.00000  Uiso   1.00
H149   H     0.72226   0.28871   0.16277   0.00000  Uiso   1.00
I150   I     0.99314   0.10022   0.17672   0.00000  Uiso   1.00
I151   I     0.97742   0.09894   0.38373   0.00000  Uiso   1.00
O152   O     0.97171   0.09864   0.00050   0.00000  Uiso   1.00
C153   C     0.97101   0.04769   0.01476   0.00000  Uiso   1.00
H154   H     0.99380   0.04929   0.04799   0.00000  Uiso   1.00
H155   H     0.99361   0.02465   0.48197   0.00000  Uiso   1.00
H156   H     0.92141   0.02634   0.02680   0.00000  Uiso   1.00
C157   C     0.18179   0.60001   0.25109   0.00000  Uiso   1.00
C158   C     0.13862   0.50096   0.48852   0.00000  Uiso   1.00
C159   C     0.15320   0.51620   0.43685   0.00000  Uiso   1.00
C160   C     0.18597   0.51452   0.01813   0.00000  Uiso   1.00
C161   C     0.24443   0.54828   0.49804   0.00000  Uiso   1.00
C162   C     0.25494   0.56849   0.44951   0.00000  Uiso   1.00
C163   C     0.20981   0.55334   0.41967   0.00000  Uiso   1.00
C164   C     0.17699   0.49515   0.06721   0.00000  Uiso   1.00
C165   C     0.27917   0.54540   0.07744   0.00000  Uiso   1.00
C166   C     0.11046   0.49476   0.40409   0.00000  Uiso   1.00
C167   C     0.18920   0.65593   0.25181   0.00000  Uiso   1.00
C168   C     0.13253   0.49758   0.34748   0.00000  Uiso   1.00
C169   C     0.14486   0.34423   0.24105   0.00000  Uiso   1.00
C170   C     0.15207   0.40010   0.24687   0.00000  Uiso   1.00
C171   C     0.20064   0.50388   0.15294   0.00000  Uiso   1.00
C172   C     0.29102   0.56259   0.02742   0.00000  Uiso   1.00
C173   C     0.22120   0.51280   0.09785   0.00000  Uiso   1.00
C174   C     0.04910   0.46598   0.42599   0.00000  Uiso   1.00
C175   C     0.03269   0.45652   0.47858   0.00000  Uiso   1.00
C176   C     0.07681   0.47405   0.00927   0.00000  Uiso   1.00
Cu177  Cu    0.10710   0.49439   0.24436   0.00000  Uiso   1.00
Cu178  Cu    0.22623   0.50561   0.25565   0.00000  Uiso   1.00
H179   H     0.31394   0.55944   0.10077   0.00000  Uiso   1.00
H180   H     0.00284   0.53840   0.29093   0.00000  Uiso   1.00
H181   H     0.29828   0.59614   0.43446   0.00000  Uiso   1.00
H182   H     0.00240   0.58849   0.01232   0.00000  Uiso   1.00
H183   H     0.13512   0.46686   0.08325   0.00000  Uiso   1.00
H184   H     0.06031   0.46777   0.04980   0.00000  Uiso   1.00
H185   H     0.21944   0.57241   0.38352   0.00000  Uiso   1.00
H186   H     0.23162   0.34651   0.26224   0.00000  Uiso   1.00
N187   N     0.31574   0.51407   0.26416   0.00000  Uiso   1.00
N188   N     0.01759   0.48593   0.23584   0.00000  Uiso   1.00
O189   O     0.12797   0.57141   0.24633   0.00000  Uiso   1.00
O190   O     0.22858   0.58089   0.25587   0.00000  Uiso   1.00
O191   O     0.09181   0.49293   0.31840   0.00000  Uiso   1.00
O192   O     0.19242   0.50241   0.32793   0.00000  Uiso   1.00
O193   O     0.10476   0.41911   0.24414   0.00000  Uiso   1.00
O194   O     0.20536   0.42859   0.25367   0.00000  Uiso   1.00
O195   O     0.14092   0.49759   0.17207   0.00000  Uiso   1.00
O196   O     0.24152   0.50707   0.18161   0.00000  Uiso   1.00
O197   O     0.09034   0.64788   0.22756   0.00000  Uiso   1.00
C198   C     0.09868   0.64661   0.17360   0.00000  Uiso   1.00
H199   H     0.13869   0.62835   0.15471   0.00000  Uiso   1.00
H200   H     0.10562   0.35331   0.15894   0.00000  Uiso   1.00
H201   H     0.05559   0.62205   0.16277   0.00000  Uiso   1.00
I202   I     0.32647   0.43356   0.17672   0.00000  Uiso   1.00
I203   I     0.31076   0.43227   0.38373   0.00000  Uiso   1.00
O204   O     0.30504   0.43198   0.00050   0.00000  Uiso   1.00
C205   C     0.30435   0.38102   0.01476   0.00000  Uiso   1.00
H206   H     0.32714   0.38263   0.04799   0.00000  Uiso   1.00
H207   H     0.32694   0.35799   0.48197   0.00000  Uiso   1.00
H208   H     0.25475   0.35967   0.02680   0.00000  Uiso   1.00
C209   C     0.51512   0.60001   0.25109   0.00000  Uiso   1.00
C210   C     0.47196   0.50096   0.48852   0.00000  Uiso   1.00
C211   C     0.48653   0.51620   0.43685   0.00000  Uiso   1.00
C212   C     0.51931   0.51452   0.01813   0.00000  Uiso   1.00
C213   C     0.57777   0.54828   0.49804   0.00000  Uiso   1.00
C214   C     0.58827   0.56849   0.44951   0.00000  Uiso   1.00
C215   C     0.54315   0.55334   0.41967   0.00000  Uiso   1.00
C216   C     0.51032   0.49515   0.06721   0.00000  Uiso   1.00
C217   C     0.61250   0.54540   0.07744   0.00000  Uiso   1.00
C218   C     0.44379   0.49476   0.40409   0.00000  Uiso   1.00
C219   C     0.52253   0.65593   0.25181   0.00000  Uiso   1.00
C220   C     0.46586   0.49758   0.34748   0.00000  Uiso   1.00
C221   C     0.47820   0.34423   0.24105   0.00000  Uiso   1.00
C222   C     0.48540   0.40010   0.24687   0.00000  Uiso   1.00
C223   C     0.53397   0.50388   0.15294   0.00000  Uiso   1.00
C224   C     0.62436   0.56259   0.02742   0.00000  Uiso   1.00
C225   C     0.55453   0.51280   0.09785   0.00000  Uiso   1.00
C226   C     0.38244   0.46598   0.42599   0.00000  Uiso   1.00
C227   C     0.36602   0.45652   0.47858   0.00000  Uiso   1.00
C228   C     0.41014   0.47405   0.00927   0.00000  Uiso   1.00
Cu229  Cu    0.44043   0.49439   0.24436   0.00000  Uiso   1.00
Cu230  Cu    0.55957   0.50561   0.25565   0.00000  Uiso   1.00
H231   H     0.64727   0.55944   0.10077   0.00000  Uiso   1.00
H232   H     0.33618   0.53840   0.29093   0.00000  Uiso   1.00
H233   H     0.63162   0.59614   0.43446   0.00000  Uiso   1.00
H234   H     0.33574   0.58849   0.01232   0.00000  Uiso   1.00
H235   H     0.46846   0.46686   0.08325   0.00000  Uiso   1.00
H236   H     0.39365   0.46777   0.04980   0.00000  Uiso   1.00
H237   H     0.55277   0.57241   0.38352   0.00000  Uiso   1.00
H238   H     0.56495   0.34651   0.26224   0.00000  Uiso   1.00
N239   N     0.64908   0.51407   0.26416   0.00000  Uiso   1.00
N240   N     0.35092   0.48593   0.23584   0.00000  Uiso   1.00
O241   O     0.46131   0.57141   0.24633   0.00000  Uiso   1.00
O242   O     0.56191   0.58089   0.25587   0.00000  Uiso   1.00
O243   O     0.42515   0.49293   0.31840   0.00000  Uiso   1.00
O244   O     0.52575   0.50241   0.32793   0.00000  Uiso   1.00
O245   O     0.43809   0.41911   0.24414   0.00000  Uiso   1.00
O246   O     0.53869   0.42859   0.25367   0.00000  Uiso   1.00
O247   O     0.47425   0.49759   0.17207   0.00000  Uiso   1.00
O248   O     0.57485   0.50707   0.18161   0.00000  Uiso   1.00
O249   O     0.42367   0.64788   0.22756   0.00000  Uiso   1.00
C250   C     0.43201   0.64661   0.17360   0.00000  Uiso   1.00
H251   H     0.47203   0.62835   0.15471   0.00000  Uiso   1.00
H252   H     0.43896   0.35331   0.15894   0.00000  Uiso   1.00
H253   H     0.38892   0.62205   0.16277   0.00000  Uiso   1.00
I254   I     0.65980   0.43356   0.17672   0.00000  Uiso   1.00
I255   I     0.64409   0.43227   0.38373   0.00000  Uiso   1.00
O256   O     0.63838   0.43198   0.00050   0.00000  Uiso   1.00
C257   C     0.63768   0.38102   0.01476   0.00000  Uiso   1.00
H258   H     0.66047   0.38263   0.04799   0.00000  Uiso   1.00
H259   H     0.66028   0.35799   0.48197   0.00000  Uiso   1.00
H260   H     0.58808   0.35967   0.02680   0.00000  Uiso   1.00
C261   C     0.84845   0.60001   0.25109   0.00000  Uiso   1.00
C262   C     0.80529   0.50096   0.48852   0.00000  Uiso   1.00
C263   C     0.81986   0.51620   0.43685   0.00000  Uiso   1.00
C264   C     0.85264   0.51452   0.01813   0.00000  Uiso   1.00
C265   C     0.91110   0.54828   0.49804   0.00000  Uiso   1.00
C266   C     0.92161   0.56849   0.44951   0.00000  Uiso   1.00
C267   C     0.87648   0.55334   0.41967   0.00000  Uiso   1.00
C268   C     0.84365   0.49515   0.06721   0.00000  Uiso   1.00
C269   C     0.94584   0.54540   0.07744   0.00000  Uiso   1.00
C270   C     0.77712   0.49476   0.40409   0.00000  Uiso   1.00
C271   C     0.85586   0.65593   0.25181   0.00000  Uiso   1.00
C272   C     0.79920   0.49758   0.34748   0.00000  Uiso   1.00
C273   C     0.81153   0.34423   0.24105   0.00000  Uiso   1.00
C274   C     0.81874   0.40010   0.24687   0.00000  Uiso   1.00
C275   C     0.86731   0.50388   0.15294   0.00000  Uiso   1.00
C276   C     0.95769   0.56259   0.02742   0.00000  Uiso   1.00
C277   C     0.88786   0.51280   0.09785   0.00000  Uiso   1.00
C278   C     0.71577   0.46598   0.42599   0.00000  Uiso   1.00
C279   C     0.69935   0.45652   0.47858   0.00000  Uiso   1.00
C280   C     0.74347   0.47405   0.00927   0.00000  Uiso   1.00
Cu281  Cu    0.77377   0.49439   0.24436   0.00000  Uiso   1.00
Cu282  Cu    0.89290   0.50561   0.25565   0.00000  Uiso   1.00
H283   H     0.98060   0.55944   0.10077   0.00000  Uiso   1.00
H284   H     0.66951   0.53840   0.29093   0.00000  Uiso   1.00
H285   H     0.96495   0.59614   0.43446   0.00000  Uiso   1.00
H286   H     0.66907   0.58849   0.01232   0.00000  Uiso   1.00
H287   H     0.80179   0.46686   0.08325   0.00000  Uiso   1.00
H288   H     0.72698   0.46777   0.04980   0.00000  Uiso   1.00
H289   H     0.88611   0.57241   0.38352   0.00000  Uiso   1.00
H290   H     0.89828   0.34651   0.26224   0.00000  Uiso   1.00
N291   N     0.98241   0.51407   0.26416   0.00000  Uiso   1.00
N292   N     0.68426   0.48593   0.23584   0.00000  Uiso   1.00
O293   O     0.79464   0.57141   0.24633   0.00000  Uiso   1.00
O294   O     0.89524   0.58089   0.25587   0.00000  Uiso   1.00
O295   O     0.75848   0.49293   0.31840   0.00000  Uiso   1.00
O296   O     0.85908   0.50241   0.32793   0.00000  Uiso   1.00
O297   O     0.77142   0.41911   0.24414   0.00000  Uiso   1.00
O298   O     0.87203   0.42859   0.25367   0.00000  Uiso   1.00
O299   O     0.80758   0.49759   0.17207   0.00000  Uiso   1.00
O300   O     0.90819   0.50707   0.18161   0.00000  Uiso   1.00
O301   O     0.75701   0.64788   0.22756   0.00000  Uiso   1.00
C302   C     0.76534   0.64661   0.17360   0.00000  Uiso   1.00
H303   H     0.80536   0.62835   0.15471   0.00000  Uiso   1.00
H304   H     0.77229   0.35331   0.15894   0.00000  Uiso   1.00
H305   H     0.72226   0.62205   0.16277   0.00000  Uiso   1.00
I306   I     0.99314   0.43356   0.17672   0.00000  Uiso   1.00
I307   I     0.97742   0.43227   0.38373   0.00000  Uiso   1.00
O308   O     0.97171   0.43198   0.00050   0.00000  Uiso   1.00
C309   C     0.97101   0.38102   0.01476   0.00000  Uiso   1.00
H310   H     0.99380   0.38263   0.04799   0.00000  Uiso   1.00
H311   H     0.99361   0.35799   0.48197   0.00000  Uiso   1.00
H312   H     0.92141   0.35967   0.02680   0.00000  Uiso   1.00
C313   C     0.18179   0.93335   0.25109   0.00000  Uiso   1.00
C314   C     0.13862   0.83429   0.48852   0.00000  Uiso   1.00
C315   C     0.15320   0.84953   0.43685   0.00000  Uiso   1.00
C316   C     0.18597   0.84785   0.01813   0.00000  Uiso   1.00
C317   C     0.24443   0.88161   0.49804   0.00000  Uiso   1.00
C318   C     0.25494   0.90182   0.44951   0.00000  Uiso   1.00
C319   C     0.20981   0.88667   0.41967   0.00000  Uiso   1.00
C320   C     0.17699   0.82848   0.06721   0.00000  Uiso   1.00
C321   C     0.27917   0.87873   0.07744   0.00000  Uiso   1.00
C322   C     0.11046   0.82810   0.40409   0.00000  Uiso   1.00
C323   C     0.18920   0.98926   0.25181   0.00000  Uiso   1.00
C324   C     0.13253   0.83092   0.34748   0.00000  Uiso   1.00
C325   C     0.14486   0.67757   0.24105   0.00000  Uiso   1.00
C326   C     0.15207   0.73343   0.24687   0.00000  Uiso   1.00
C327   C     0.20064   0.83722   0.15294   0.00000  Uiso   1.00
C328   C     0.29102   0.89592   0.02742   0.00000  Uiso   1.00
C329   C     0.22120   0.84613   0.09785   0.00000  Uiso   1.00
C330   C     0.04910   0.79931   0.42599   0.00000  Uiso   1.00
C331   C     0.03269   0.78985   0.47858   0.00000  Uiso   1.00
C332   C     0.07681   0.80739   0.00927   0.00000  Uiso   1.00
Cu333  Cu    0.10710   0.82772   0.24436   0.00000  Uiso   1.00
Cu334  Cu    0.22623   0.83895   0.25565   0.00000  Uiso   1.00
H335   H     0.31394   0.89278   0.10077   0.00000  Uiso   1.00
H336   H     0.00284   0.87174   0.29093   0.00000  Uiso   1.00
H337   H     0.29828   0.92947   0.43446   0.00000  Uiso   1.00
H338   H     0.00240   0.92183   0.01232   0.00000  Uiso   1.00
H339   H     0.13512   0.80019   0.08325   0.00000  Uiso   1.00
H340   H     0.06031   0.80110   0.04980   0.00000  Uiso   1.00
H341   H     0.21944   0.90574   0.38352   0.00000  Uiso   1.00
H342   H     0.23162   0.67984   0.26224   0.00000  Uiso   1.00
N343   N     0.31574   0.84741   0.26416   0.00000  Uiso   1.00
N344   N     0.01759   0.81926   0.23584   0.00000  Uiso   1.00
O345   O     0.12797   0.90474   0.24633   0.00000  Uiso   1.00
O346   O     0.22858   0.91422   0.25587   0.00000  Uiso   1.00
O347   O     0.09181   0.82627   0.31840   0.00000  Uiso   1.00
O348   O     0.19242   0.83575   0.32793   0.00000  Uiso   1.00
O349   O     0.10476   0.75245   0.24414   0.00000  Uiso   1.00
O350   O     0.20536   0.76193   0.25367   0.00000  Uiso   1.00
O351   O     0.14092   0.83092   0.17207   0.00000  Uiso   1.00
O352   O     0.24152   0.84040   0.18161   0.00000  Uiso   1.00
O353   O     0.09034   0.98122   0.22756   0.00000  Uiso   1.00
C354   C     0.09868   0.97994   0.17360   0.00000  Uiso   1.00
H355   H     0.13869   0.96168   0.15471   0.00000  Uiso   1.00
H356   H     0.10562   0.68664   0.15894   0.00000  Uiso   1.00
H357   H     0.05559   0.95538   0.16277   0.00000  Uiso   1.00
I358   I     0.32647   0.76689   0.17672   0.00000  Uiso   1.00
I359   I     0.31076   0.76561   0.38373   0.00000  Uiso   1.00
O360   O     0.30504   0.76531   0.00050   0.00000  Uiso   1.00
C361   C     0.30435   0.71435   0.01476   0.00000  Uiso   1.00
H362   H     0.32714   0.71596   0.04799   0.00000  Uiso   1.00
H363   H     0.32694   0.69132   0.48197   0.00000  Uiso   1.00
H364   H     0.25475   0.69301   0.02680   0.00000  Uiso   1.00
C365   C     0.51512   0.93335   0.25109   0.00000  Uiso   1.00
C366   C     0.47196   0.83429   0.48852   0.00000  Uiso   1.00
C367   C     0.48653   0.84953   0.43685   0.00000  Uiso   1.00
C368   C     0.51931   0.84785   0.01813   0.00000  Uiso   1.00
C369   C     0.57777   0.88161   0.49804   0.00000  Uiso   1.00
C370   C     0.58827   0.90182   0.44951   0.00000  Uiso   1.00
C371   C     0.54315   0.88667   0.41967   0.00000  Uiso   1.00
C372   C     0.51032   0.82848   0.06721   0.00000  Uiso   1.00
C373   C     0.61250   0.87873   0.07744   0.00000  Uiso   1.00
C374   C     0.44379   0.82810   0.40409   0.00000  Uiso   1.00
C375   C     0.52253   0.98926   0.25181   0.00000  Uiso   1.00
C376   C     0.46586   0.83092   0.34748   0.00000  Uiso   1.00
C377   C     0.47820   0.67757   0.24105   0.00000  Uiso   1.00
C378   C     0.48540   0.73343   0.24687   0.00000  Uiso   1.00
C379   C     0.53397   0.83722   0.15294   0.00000  Uiso   1.00
C380   C     0.62436   0.89592   0.02742   0.00000  Uiso   1.00
C381   C     0.55453   0.84613   0.09785   0.00000  Uiso   1.00
C382   C     0.38244   0.79931   0.42599   0.00000  Uiso   1.00
C383   C     0.36602   0.78985   0.47858   0.00000  Uiso   1.00
C384   C     0.41014   0.80739   0.00927   0.00000  Uiso   1.00
Cu385  Cu    0.44043   0.82772   0.24436   0.00000  Uiso   1.00
Cu386  Cu    0.55957   0.83895   0.25565   0.00000  Uiso   1.00
H387   H     0.64727   0.89278   0.10077   0.00000  Uiso   1.00
H388   H     0.33618   0.87174   0.29093   0.00000  Uiso   1.00
H389   H     0.63162   0.92947   0.43446   0.00000  Uiso   1.00
H390   H     0.33574   0.92183   0.01232   0.00000  Uiso   1.00
H391   H     0.46846   0.80019   0.08325   0.00000  Uiso   1.00
H392   H     0.39365   0.80110   0.04980   0.00000  Uiso   1.00
H393   H     0.55277   0.90574   0.38352   0.00000  Uiso   1.00
H394   H     0.56495   0.67984   0.26224   0.00000  Uiso   1.00
N395   N     0.64908   0.84741   0.26416   0.00000  Uiso   1.00
N396   N     0.35092   0.81926   0.23584   0.00000  Uiso   1.00
O397   O     0.46131   0.90474   0.24633   0.00000  Uiso   1.00
O398   O     0.56191   0.91422   0.25587   0.00000  Uiso   1.00
O399   O     0.42515   0.82627   0.31840   0.00000  Uiso   1.00
O400   O     0.52575   0.83575   0.32793   0.00000  Uiso   1.00
O401   O     0.43809   0.75245   0.24414   0.00000  Uiso   1.00
O402   O     0.53869   0.76193   0.25367   0.00000  Uiso   1.00
O403   O     0.47425   0.83092   0.17207   0.00000  Uiso   1.00
O404   O     0.57485   0.84040   0.18161   0.00000  Uiso   1.00
O405   O     0.42367   0.98122   0.22756   0.00000  Uiso   1.00
C406   C     0.43201   0.97994   0.17360   0.00000  Uiso   1.00
H407   H     0.47203   0.96168   0.15471   0.00000  Uiso   1.00
H408   H     0.43896   0.68664   0.15894   0.00000  Uiso   1.00
H409   H     0.38892   0.95538   0.16277   0.00000  Uiso   1.00
I410   I     0.65980   0.76689   0.17672   0.00000  Uiso   1.00
I411   I     0.64409   0.76561   0.38373   0.00000  Uiso   1.00
O412   O     0.63838   0.76531   0.00050   0.00000  Uiso   1.00
C413   C     0.63768   0.71435   0.01476   0.00000  Uiso   1.00
H414   H     0.66047   0.71596   0.04799   0.00000  Uiso   1.00
H415   H     0.66028   0.69132   0.48197   0.00000  Uiso   1.00
H416   H     0.58808   0.69301   0.02680   0.00000  Uiso   1.00
C417   C     0.84845   0.93335   0.25109   0.00000  Uiso   1.00
C418   C     0.80529   0.83429   0.48852   0.00000  Uiso   1.00
C419   C     0.81986   0.84953   0.43685   0.00000  Uiso   1.00
C420   C     0.85264   0.84785   0.01813   0.00000  Uiso   1.00
C421   C     0.91110   0.88161   0.49804   0.00000  Uiso   1.00
C422   C     0.92161   0.90182   0.44951   0.00000  Uiso   1.00
C423   C     0.87648   0.88667   0.41967   0.00000  Uiso   1.00
C424   C     0.84365   0.82848   0.06721   0.00000  Uiso   1.00
C425   C     0.94584   0.87873   0.07744   0.00000  Uiso   1.00
C426   C     0.77712   0.82810   0.40409   0.00000  Uiso   1.00
C427   C     0.85586   0.98926   0.25181   0.00000  Uiso   1.00
C428   C     0.79920   0.83092   0.34748   0.00000  Uiso   1.00
C429   C     0.81153   0.67757   0.24105   0.00000  Uiso   1.00
C430   C     0.81874   0.73343   0.24687   0.00000  Uiso   1.00
C431   C     0.86731   0.83722   0.15294   0.00000  Uiso   1.00
C432   C     0.95769   0.89592   0.02742   0.00000  Uiso   1.00
C433   C     0.88786   0.84613   0.09785   0.00000  Uiso   1.00
C434   C     0.71577   0.79931   0.42599   0.00000  Uiso   1.00
C435   C     0.69935   0.78985   0.47858   0.00000  Uiso   1.00
C436   C     0.74347   0.80739   0.00927   0.00000  Uiso   1.00
Cu437  Cu    0.77377   0.82772   0.24436   0.00000  Uiso   1.00
Cu438  Cu    0.89290   0.83895   0.25565   0.00000  Uiso   1.00
H439   H     0.98060   0.89278   0.10077   0.00000  Uiso   1.00
H440   H     0.66951   0.87174   0.29093   0.00000  Uiso   1.00
H441   H     0.96495   0.92947   0.43446   0.00000  Uiso   1.00
H442   H     0.66907   0.92183   0.01232   0.00000  Uiso   1.00
H443   H     0.80179   0.80019   0.08325   0.00000  Uiso   1.00
H444   H     0.72698   0.80110   0.04980   0.00000  Uiso   1.00
H445   H     0.88611   0.90574   0.38352   0.00000  Uiso   1.00
H446   H     0.89828   0.67984   0.26224   0.00000  Uiso   1.00
N447   N     0.98241   0.84741   0.26416   0.00000  Uiso   1.00
N448   N     0.68426   0.81926   0.23584   0.00000  Uiso   1.00
O449   O     0.79464   0.90474   0.24633   0.00000  Uiso   1.00
O450   O     0.89524   0.91422   0.25587   0.00000  Uiso   1.00
O451   O     0.75848   0.82627   0.31840   0.00000  Uiso   1.00
O452   O     0.85908   0.83575   0.32793   0.00000  Uiso   1.00
O453   O     0.77142   0.75245   0.24414   0.00000  Uiso   1.00
O454   O     0.87203   0.76193   0.25367   0.00000  Uiso   1.00
O455   O     0.80758   0.83092   0.17207   0.00000  Uiso   1.00
O456   O     0.90819   0.84040   0.18161   0.00000  Uiso   1.00
O457   O     0.75701   0.98122   0.22756   0.00000  Uiso   1.00
C458   C     0.76534   0.97994   0.17360   0.00000  Uiso   1.00
H459   H     0.80536   0.96168   0.15471   0.00000  Uiso   1.00
H460   H     0.77229   0.68664   0.15894   0.00000  Uiso   1.00
H461   H     0.72226   0.95538   0.16277   0.00000  Uiso   1.00
I462   I     0.99314   0.76689   0.17672   0.00000  Uiso   1.00
I463   I     0.97742   0.76561   0.38373   0.00000  Uiso   1.00
O464   O     0.97171   0.76531   0.00050   0.00000  Uiso   1.00
C465   C     0.97101   0.71435   0.01476   0.00000  Uiso   1.00
H466   H     0.99380   0.71596   0.04799   0.00000  Uiso   1.00
H467   H     0.99361   0.69132   0.48197   0.00000  Uiso   1.00
H468   H     0.92141   0.69301   0.02680   0.00000  Uiso   1.00
C469   C     0.18179   0.26668   0.75109   0.00000  Uiso   1.00
C470   C     0.13862   0.16762   0.98852   0.00000  Uiso   1.00
C471   C     0.15320   0.18287   0.93685   0.00000  Uiso   1.00
C472   C     0.18597   0.18119   0.51813   0.00000  Uiso   1.00
C473   C     0.24443   0.21494   0.99804   0.00000  Uiso   1.00
C474   C     0.25494   0.23515   0.94951   0.00000  Uiso   1.00
C475   C     0.20981   0.22000   0.91967   0.00000  Uiso   1.00
C476   C     0.17699   0.16182   0.56721   0.00000  Uiso   1.00
C477   C     0.27917   0.21207   0.57744   0.00000  Uiso   1.00
C478   C     0.11046   0.16143   0.90409   0.00000  Uiso   1.00
C479   C     0.18920   0.32259   0.75181   0.00000  Uiso   1.00
C480   C     0.13253   0.16425   0.84748   0.00000  Uiso   1.00
C481   C     0.14486   0.01090   0.74105   0.00000  Uiso   1.00
C482   C     0.15207   0.06676   0.74687   0.00000  Uiso   1.00
C483   C     0.20064   0.17055   0.65294   0.00000  Uiso   1.00
C484   C     0.29102   0.22925   0.52742   0.00000  Uiso   1.00
C485   C     0.22120   0.17947   0.59785   0.00000  Uiso   1.00
C486   C     0.04910   0.13265   0.92599   0.00000  Uiso   1.00
C487   C     0.03269   0.12319   0.97858   0.00000  Uiso   1.00
C488   C     0.07681   0.14072   0.50927   0.00000  Uiso   1.00
Cu489  Cu    0.10710   0.16105   0.74436   0.00000  Uiso   1.00
Cu490  Cu    0.22623   0.17228   0.75565   0.00000  Uiso   1.00
H491   H     0.31394   0.22611   0.60077   0.00000  Uiso   1.00
H492   H     0.00284   0.20507   0.79093   0.00000  Uiso   1.00
H493   H     0.29828   0.26280   0.93446   0.00000  Uiso   1.00
H494   H     0.00240   0.25516   0.51232   0.00000  Uiso   1.00
H495   H     0.13512   0.13352   0.58325   0.00000  Uiso   1.00
H496   H     0.06031   0.13443   0.54980   0.00000  Uiso   1.00
H497   H     0.21944   0.23907   0.88352   0.00000  Uiso   1.00
H498   H     0.23162   0.01317   0.76224   0.00000  Uiso   1.00
N499   N     0.31574   0.18074   0.76416   0.00000  Uiso   1.00
N500   N     0.01759   0.15259   0.73584   0.00000  Uiso   1.00
O501   O     0.12797   0.23807   0.74633   0.00000  Uiso   1.00
O502   O     0.22858   0.24755   0.75587   0.00000  Uiso   1.00
O503   O     0.09181   0.15960   0.81840   0.00000  Uiso   1.00
O504   O     0.19242   0.16908   0.82793   0.00000  Uiso   1.00
O505   O     0.10476   0.08578   0.74414   0.00000  Uiso   1.00
O506   O     0.20536   0.09526   0.75367   0.00000  Uiso   1.00
O507   O     0.14092   0.16425   0.67207   0.00000  Uiso   1.00
O508   O     0.24152   0.17373   0.68161   0.00000  Uiso   1.00
O509   O     0.09034   0.31455   0.72756   0.00000  Uiso   1.00
C510   C     0.09868   0.31328   0.67360   0.00000  Uiso   1.00
H511   H     0.13869   0.29502   0.65471   0.00000  Uiso   1.00
H512   H     0.10562   0.01997   0.65894   0.00000  Uiso   1.00
H513   H     0.05559   0.28871   0.66277   0.00000  Uiso   1.00
I514   I     0.32647   0.10022   0.67672   0.00000  Uiso   1.00
I515   I     0.31076   0.09894   0.88373   0.00000  Uiso   1.00
O516   O     0.30504   0.09864   0.50050   0.00000  Uiso   1.00
C517   C     0.30435   0.04769   0.51476   0.00000  Uiso   1.00
H518   H     0.32714   0.04929   0.54799   0.00000  Uiso   1.00
H519   H     0.32694   0.02465   0.98197   0.00000  Uiso   1.00
H520   H     0.25475   0.02634   0.52680   0.00000  Uiso   1.00
C521   C     0.51512   0.26668   0.75109   0.00000  Uiso   1.00
C522   C     0.47196   0.16762   0.98852   0.00000  Uiso   1.00
C523   C     0.48653   0.18287   0.93685   0.00000  Uiso   1.00
C524   C     0.51931   0.18119   0.51813   0.00000  Uiso   1.00
C525   C     0.57777   0.21494   0.99804   0.00000  Uiso   1.00
C526   C     0.58827   0.23515   0.94951   0.00000  Uiso   1.00
C527   C     0.54315   0.22000   0.91967   0.00000  Uiso   1.00
C528   C     0.51032   0.16182   0.56721   0.00000  Uiso   1.00
C529   C     0.61250   0.21207   0.57744   0.00000  Uiso   1.00
C530   C     0.44379   0.16143   0.90409   0.00000  Uiso   1.00
C531   C     0.52253   0.32259   0.75181   0.00000  Uiso   1.00
C532   C     0.46586   0.16425   0.84748   0.00000  Uiso   1.00
C533   C     0.47820   0.01090   0.74105   0.00000  Uiso   1.00
C534   C     0.48540   0.06676   0.74687   0.00000  Uiso   1.00
C535   C     0.53397   0.17055   0.65294   0.00000  Uiso   1.00
C536   C     0.62436   0.22925   0.52742   0.00000  Uiso   1.00
C537   C     0.55453   0.17947   0.59785   0.00000  Uiso   1.00
C538   C     0.38244   0.13265   0.92599   0.00000  Uiso   1.00
C539   C     0.36602   0.12319   0.97858   0.00000  Uiso   1.00
C540   C     0.41014   0.14072   0.50927   0.00000  Uiso   1.00
Cu541  Cu    0.44043   0.16105   0.74436   0.00000  Uiso   1.00
Cu542  Cu    0.55957   0.17228   0.75565   0.00000  Uiso   1.00
H543   H     0.64727   0.22611   0.60077   0.00000  Uiso   1.00
H544   H     0.33618   0.20507   0.79093   0.00000  Uiso   1.00
H545   H     0.63162   0.26280   0.93446   0.00000  Uiso   1.00
H546   H     0.33574   0.25516   0.51232   0.00000  Uiso   1.00
H547   H     0.46846   0.13352   0.58325   0.00000  Uiso   1.00
H548   H     0.39365   0.13443   0.54980   0.00000  Uiso   1.00
H549   H     0.55277   0.23907   0.88352   0.00000  Uiso   1.00
H550   H     0.56495   0.01317   0.76224   0.00000  Uiso   1.00
N551   N     0.64908   0.18074   0.76416   0.00000  Uiso   1.00
N552   N     0.35092   0.15259   0.73584   0.00000  Uiso   1.00
O553   O     0.46131   0.23807   0.74633   0.00000  Uiso   1.00
O554   O     0.56191   0.24755   0.75587   0.00000  Uiso   1.00
O555   O     0.42515   0.15960   0.81840   0.00000  Uiso   1.00
O556   O     0.52575   0.16908   0.82793   0.00000  Uiso   1.00
O557   O     0.43809   0.08578   0.74414   0.00000  Uiso   1.00
O558   O     0.53869   0.09526   0.75367   0.00000  Uiso   1.00
O559   O     0.47425   0.16425   0.67207   0.00000  Uiso   1.00
O560   O     0.57485   0.17373   0.68161   0.00000  Uiso   1.00
O561   O     0.42367   0.31455   0.72756   0.00000  Uiso   1.00
C562   C     0.43201   0.31328   0.67360   0.00000  Uiso   1.00
H563   H     0.47203   0.29502   0.65471   0.00000  Uiso   1.00
H564   H     0.43896   0.01997   0.65894   0.00000  Uiso   1.00
H565   H     0.38892   0.28871   0.66277   0.00000  Uiso   1.00
I566   I     0.65980   0.10022   0.67672   0.00000  Uiso   1.00
I567   I     0.64409   0.09894   0.88373   0.00000  Uiso   1.00
O568   O     0.63838   0.09864   0.50050   0.00000  Uiso   1.00
C569   C     0.63768   0.04769   0.51476   0.00000  Uiso   1.00
H570   H     0.66047   0.04929   0.54799   0.00000  Uiso   1.00
H571   H     0.66028   0.02465   0.98197   0.00000  Uiso   1.00
H572   H     0.58808   0.02634   0.52680   0.00000  Uiso   1.00
C573   C     0.84845   0.26668   0.75109   0.00000  Uiso   1.00
C574   C     0.80529   0.16762   0.98852   0.00000  Uiso   1.00
C575   C     0.81986   0.18287   0.93685   0.00000  Uiso   1.00
C576   C     0.85264   0.18119   0.51813   0.00000  Uiso   1.00
C577   C     0.91110   0.21494   0.99804   0.00000  Uiso   1.00
C578   C     0.92161   0.23515   0.94951   0.00000  Uiso   1.00
C579   C     0.87648   0.22000   0.91967   0.00000  Uiso   1.00
C580   C     0.84365   0.16182   0.56721   0.00000  Uiso   1.00
C581   C     0.94584   0.21207   0.57744   0.00000  Uiso   1.00
C582   C     0.77712   0.16143   0.90409   0.00000  Uiso   1.00
C583   C     0.85586   0.32259   0.75181   0.00000  Uiso   1.00
C584   C     0.79920   0.16425   0.84748   0.00000  Uiso   1.00
C585   C     0.81153   0.01090   0.74105   0.00000  Uiso   1.00
C586   C     0.81874   0.06676   0.74687   0.00000  Uiso   1.00
C587   C     0.86731   0.17055   0.65294   0.00000  Uiso   1.00
C588   C     0.95769   0.22925   0.52742   0.00000  Uiso   1.00
C589   C     0.88786   0.17947   0.59785   0.00000  Uiso   1.00
C590   C     0.71577   0.13265   0.92599   0.00000  Uiso   1.00
C591   C     0.69935   0.12319   0.97858   0.00000  Uiso   1.00
C592   C     0.74347   0.14072   0.50927   0.00000  Uiso   1.00
Cu593  Cu    0.77377   0.16105   0.74436   0.00000  Uiso   1.00
Cu594  Cu    0.89290   0.17228   0.75565   0.00000  Uiso   1.00
H595   H     0.98060   0.22611   0.60077   0.00000  Uiso   1.00
H596   H     0.66951   0.20507   0.79093   0.00000  Uiso   1.00
H597   H     0.96495   0.26280   0.93446   0.00000  Uiso   1.00
H598   H     0.66907   0.25516   0.51232   0.00000  Uiso   1.00
H599   H     0.80179   0.13352   0.58325   0.00000  Uiso   1.00
H600   H     0.72698   0.13443   0.54980   0.00000  Uiso   1.00
H601   H     0.88611   0.23907   0.88352   0.00000  Uiso   1.00
H602   H     0.89828   0.01317   0.76224   0.00000  Uiso   1.00
N603   N     0.98241   0.18074   0.76416   0.00000  Uiso   1.00
N604   N     0.68426   0.15259   0.73584   0.00000  Uiso   1.00
O605   O     0.79464   0.23807   0.74633   0.00000  Uiso   1.00
O606   O     0.89524   0.24755   0.75587   0.00000  Uiso   1.00
O607   O     0.75848   0.15960   0.81840   0.00000  Uiso   1.00
O608   O     0.85908   0.16908   0.82793   0.00000  Uiso   1.00
O609   O     0.77142   0.08578   0.74414   0.00000  Uiso   1.00
O610   O     0.87203   0.09526   0.75367   0.00000  Uiso   1.00
O611   O     0.80758   0.16425   0.67207   0.00000  Uiso   1.00
O612   O     0.90819   0.17373   0.68161   0.00000  Uiso   1.00
O613   O     0.75701   0.31455   0.72756   0.00000  Uiso   1.00
C614   C     0.76534   0.31328   0.67360   0.00000  Uiso   1.00
H615   H     0.80536   0.29502   0.65471   0.00000  Uiso   1.00
H616   H     0.77229   0.01997   0.65894   0.00000  Uiso   1.00
H617   H     0.72226   0.28871   0.66277   0.00000  Uiso   1.00
I618   I     0.99314   0.10022   0.67672   0.00000  Uiso   1.00
I619   I     0.97742   0.09894   0.88373   0.00000  Uiso   1.00
O620   O     0.97171   0.09864   0.50050   0.00000  Uiso   1.00
C621   C     0.97101   0.04769   0.51476   0.00000  Uiso   1.00
H622   H     0.99380   0.04929   0.54799   0.00000  Uiso   1.00
H623   H     0.99361   0.02465   0.98197   0.00000  Uiso   1.00
H624   H     0.92141   0.02634   0.52680   0.00000  Uiso   1.00
C625   C     0.18179   0.60001   0.75109   0.00000  Uiso   1.00
C626   C     0.13862   0.50096   0.98852   0.00000  Uiso   1.00
C627   C     0.15320   0.51620   0.93685   0.00000  Uiso   1.00
C628   C     0.18597   0.51452   0.51813   0.00000  Uiso   1.00
C629   C     0.24443   0.54828   0.99804   0.00000  Uiso   1.00
C630   C     0.25494   0.56849   0.94951   0.00000  Uiso   1.00
C631   C     0.20981   0.55334   0.91967   0.00000  Uiso   1.00
C632   C     0.17699   0.49515   0.56721   0.00000  Uiso   1.00
C633   C     0.27917   0.54540   0.57744   0.00000  Uiso   1.00
C634   C     0.11046   0.49476   0.90409   0.00000  Uiso   1.00
C635   C     0.18920   0.65593   0.75181   0.00000  Uiso   1.00
C636   C     0.13253   0.49758   0.84748   0.00000  Uiso   1.00
C637   C     0.14486   0.34423   0.74105   0.00000  Uiso   1.00
C638   C     0.15207   0.40010   0.74687   0.00000  Uiso   1.00
C639   C     0.20064   0.50388   0.65294   0.00000  Uiso   1.00
C640   C     0.29102   0.56259   0.52742   0.00000  Uiso   1.00
C641   C     0.22120   0.51280   0.59785   0.00000  Uiso   1.00
C642   C     0.04910   0.46598   0.92599   0.00000  Uiso   1.00
C643   C     0.03269   0.45652   0.97858   0.00000  Uiso   1.00
C644   C     0.07681   0.47405   0.50927   0.00000  Uiso   1.00
Cu645  Cu    0.10710   0.49439   0.74436   0.00000  Uiso   1.00
Cu646  Cu    0.22623   0.50561   0.75565   0.00000  Uiso   1.00
H647   H     0.31394   0.55944   0.60077   0.00000  Uiso   1.00
H648   H     0.00284   0.53840   0.79093   0.00000  Uiso   1.00
H649   H     0.29828   0.59614   0.93446   0.00000  Uiso   1.00
H650   H     0.00240   0.58849   0.51232   0.00000  Uiso   1.00
H651   H     0.13512   0.46686   0.58325   0.00000  Uiso   1.00
H652   H     0.06031   0.46777   0.54980   0.00000  Uiso   1.00
H653   H     0.21944   0.57241   0.88352   0.00000  Uiso   1.00
H654   H     0.23162   0.34651   0.76224   0.00000  Uiso   1.00
N655   N     0.31574   0.51407   0.76416   0.00000  Uiso   1.00
N656   N     0.01759   0.48593   0.73584   0.00000  Uiso   1.00
O657   O     0.12797   0.57141   0.74633   0.00000  Uiso   1.00
O658   O     0.22858   0.58089   0.75587   0.00000  Uiso   1.00
O659   O     0.09181   0.49293   0.81840   0.00000  Uiso   1.00
O660   O     0.19242   0.50241   0.82793   0.00000  Uiso   1.00
O661   O     0.10476   0.41911   0.74414   0.00000  Uiso   1.00
O662   O     0.20536   0.42859   0.75367   0.00000  Uiso   1.00
O663   O     0.14092   0.49759   0.67207   0.00000  Uiso   1.00
O664   O     0.24152   0.50707   0.68161   0.00000  Uiso   1.00
O665   O     0.09034   0.64788   0.72756   0.00000  Uiso   1.00
C666   C     0.09868   0.64661   0.67360   0.00000  Uiso   1.00
H667   H     0.13869   0.62835   0.65471   0.00000  Uiso   1.00
H668   H     0.10562   0.35331   0.65894   0.00000  Uiso   1.00
H669   H     0.05559   0.62205   0.66277   0.00000  Uiso   1.00
I670   I     0.32647   0.43356   0.67672   0.00000  Uiso   1.00
I671   I     0.31076   0.43227   0.88373   0.00000  Uiso   1.00
O672   O     0.30504   0.43198   0.50050   0.00000  Uiso   1.00
C673   C     0.30435   0.38102   0.51476   0.00000  Uiso   1.00
H674   H     0.32714   0.38263   0.54799   0.00000  Uiso   1.00
H675   H     0.32694   0.35799   0.98197   0.00000  Uiso   1.00
H676   H     0.25475   0.35967   0.52680   0.00000  Uiso   1.00
C677   C     0.51512   0.60001   0.75109   0.00000  Uiso   1.00
C678   C     0.47196   0.50096   0.98852   0.00000  Uiso   1.00
C679   C     0.48653   0.51620   0.93685   0.00000  Uiso   1.00
C680   C     0.51931   0.51452   0.51813   0.00000  Uiso   1.00
C681   C     0.57777   0.54828   0.99804   0.00000  Uiso   1.00
C682   C     0.58827   0.56849   0.94951   0.00000  Uiso   1.00
C683   C     0.54315   0.55334   0.91967   0.00000  Uiso   1.00
C684   C     0.51032   0.49515   0.56721   0.00000  Uiso   1.00
C685   C     0.61250   0.54540   0.57744   0.00000  Uiso   1.00
C686   C     0.44379   0.49476   0.90409   0.00000  Uiso   1.00
C687   C     0.52253   0.65593   0.75181   0.00000  Uiso   1.00
C688   C     0.46586   0.49758   0.84748   0.00000  Uiso   1.00
C689   C     0.47820   0.34423   0.74105   0.00000  Uiso   1.00
C690   C     0.48540   0.40010   0.74687   0.00000  Uiso   1.00
C691   C     0.53397   0.50388   0.65294   0.00000  Uiso   1.00
C692   C     0.62436   0.56259   0.52742   0.00000  Uiso   1.00
C693   C     0.55453   0.51280   0.59785   0.00000  Uiso   1.00
C694   C     0.38244   0.46598   0.92599   0.00000  Uiso   1.00
C695   C     0.36602   0.45652   0.97858   0.00000  Uiso   1.00
C696   C     0.41014   0.47405   0.50927   0.00000  Uiso   1.00
Cu697  Cu    0.44043   0.49439   0.74436   0.00000  Uiso   1.00
Cu698  Cu    0.55957   0.50561   0.75565   0.00000  Uiso   1.00
H699   H     0.64727   0.55944   0.60077   0.00000  Uiso   1.00
H700   H     0.33618   0.53840   0.79093   0.00000  Uiso   1.00
H701   H     0.63162   0.59614   0.93446   0.00000  Uiso   1.00
H702   H     0.33574   0.58849   0.51232   0.00000  Uiso   1.00
H703   H     0.46846   0.46686   0.58325   0.00000  Uiso   1.00
H704   H     0.39365   0.46777   0.54980   0.00000  Uiso   1.00
H705   H     0.55277   0.57241   0.88352   0.00000  Uiso   1.00
H706   H     0.56495   0.34651   0.76224   0.00000  Uiso   1.00
N707   N     0.64908   0.51407   0.76416   0.00000  Uiso   1.00
N708   N     0.35092   0.48593   0.73584   0.00000  Uiso   1.00
O709   O     0.46131   0.57141   0.74633   0.00000  Uiso   1.00
O710   O     0.56191   0.58089   0.75587   0.00000  Uiso   1.00
O711   O     0.42515   0.49293   0.81840   0.00000  Uiso   1.00
O712   O     0.52575   0.50241   0.82793   0.00000  Uiso   1.00
O713   O     0.43809   0.41911   0.74414   0.00000  Uiso   1.00
O714   O     0.53869   0.42859   0.75367   0.00000  Uiso   1.00
O715   O     0.47425   0.49759   0.67207   0.00000  Uiso   1.00
O716   O     0.57485   0.50707   0.68161   0.00000  Uiso   1.00
O717   O     0.42367   0.64788   0.72756   0.00000  Uiso   1.00
C718   C     0.43201   0.64661   0.67360   0.00000  Uiso   1.00
H719   H     0.47203   0.62835   0.65471   0.00000  Uiso   1.00
H720   H     0.43896   0.35331   0.65894   0.00000  Uiso   1.00
H721   H     0.38892   0.62205   0.66277   0.00000  Uiso   1.00
I722   I     0.65980   0.43356   0.67672   0.00000  Uiso   1.00
I723   I     0.64409   0.43227   0.88373   0.00000  Uiso   1.00
O724   O     0.63838   0.43198   0.50050   0.00000  Uiso   1.00
C725   C     0.63768   0.38102   0.51476   0.00000  Uiso   1.00
H726   H     0.66047   0.38263   0.54799   0.00000  Uiso   1.00
H727   H     0.66028   0.35799   0.98197   0.00000  Uiso   1.00
H728   H     0.58808   0.35967   0.52680   0.00000  Uiso   1.00
C729   C     0.84845   0.60001   0.75109   0.00000  Uiso   1.00
C730   C     0.80529   0.50096   0.98852   0.00000  Uiso   1.00
C731   C     0.81986   0.51620   0.93685   0.00000  Uiso   1.00
C732   C     0.85264   0.51452   0.51813   0.00000  Uiso   1.00
C733   C     0.91110   0.54828   0.99804   0.00000  Uiso   1.00
C734   C     0.92161   0.56849   0.94951   0.00000  Uiso   1.00
C735   C     0.87648   0.55334   0.91967   0.00000  Uiso   1.00
C736   C     0.84365   0.49515   0.56721   0.00000  Uiso   1.00
C737   C     0.94584   0.54540   0.57744   0.00000  Uiso   1.00
C738   C     0.77712   0.49476   0.90409   0.00000  Uiso   1.00
C739   C     0.85586   0.65593   0.75181   0.00000  Uiso   1.00
C740   C     0.79920   0.49758   0.84748   0.00000  Uiso   1.00
C741   C     0.81153   0.34423   0.74105   0.00000  Uiso   1.00
C742   C     0.81874   0.40010   0.74687   0.00000  Uiso   1.00
C743   C     0.86731   0.50388   0.65294   0.00000  Uiso   1.00
C744   C     0.95769   0.56259   0.52742   0.00000  Uiso   1.00
C745   C     0.88786   0.51280   0.59785   0.00000  Uiso   1.00
C746   C     0.71577   0.46598   0.92599   0.00000  Uiso   1.00
C747   C     0.69935   0.45652   0.97858   0.00000  Uiso   1.00
C748   C     0.74347   0.47405   0.50927   0.00000  Uiso   1.00
Cu749  Cu    0.77377   0.49439   0.74436   0.00000  Uiso   1.00
Cu750  Cu    0.89290   0.50561   0.75565   0.00000  Uiso   1.00
H751   H     0.98060   0.55944   0.60077   0.00000  Uiso   1.00
H752   H     0.66951   0.53840   0.79093   0.00000  Uiso   1.00
H753   H     0.96495   0.59614   0.93446   0.00000  Uiso   1.00
H754   H     0.66907   0.58849   0.51232   0.00000  Uiso   1.00
H755   H     0.80179   0.46686   0.58325   0.00000  Uiso   1.00
H756   H     0.72698   0.46777   0.54980   0.00000  Uiso   1.00
H757   H     0.88611   0.57241   0.88352   0.00000  Uiso   1.00
H758   H     0.89828   0.34651   0.76224   0.00000  Uiso   1.00
N759   N     0.98241   0.51407   0.76416   0.00000  Uiso   1.00
N760   N     0.68426   0.48593   0.73584   0.00000  Uiso   1.00
O761   O     0.79464   0.57141   0.74633   0.00000  Uiso   1.00
O762   O     0.89524   0.58089   0.75587   0.00000  Uiso   1.00
O763   O     0.75848   0.49293   0.81840   0.00000  Uiso   1.00
O764   O     0.85908   0.50241   0.82793   0.00000  Uiso   1.00
O765   O     0.77142   0.41911   0.74414   0.00000  Uiso   1.00
O766   O     0.87203   0.42859   0.75367   0.00000  Uiso   1.00
O767   O     0.80758   0.49759   0.67207   0.00000  Uiso   1.00
O768   O     0.90819   0.50707   0.68161   0.00000  Uiso   1.00
O769   O     0.75701   0.64788   0.72756   0.00000  Uiso   1.00
C770   C     0.76534   0.64661   0.67360   0.00000  Uiso   1.00
H771   H     0.80536   0.62835   0.65471   0.00000  Uiso   1.00
H772   H     0.77229   0.35331   0.65894   0.00000  Uiso   1.00
H773   H     0.72226   0.62205   0.66277   0.00000  Uiso   1.00
I774   I     0.99314   0.43356   0.67672   0.00000  Uiso   1.00
I775   I     0.97742   0.43227   0.88373   0.00000  Uiso   1.00
O776   O     0.97171   0.43198   0.50050   0.00000  Uiso   1.00
C777   C     0.97101   0.38102   0.51476   0.00000  Uiso   1.00
H778   H     0.99380   0.38263   0.54799   0.00000  Uiso   1.00
H779   H     0.99361   0.35799   0.98197   0.00000  Uiso   1.00
H780   H     0.92141   0.35967   0.52680   0.00000  Uiso   1.00
C781   C     0.18179   0.93335   0.75109   0.00000  Uiso   1.00
C782   C     0.13862   0.83429   0.98852   0.00000  Uiso   1.00
C783   C     0.15320   0.84953   0.93685   0.00000  Uiso   1.00
C784   C     0.18597   0.84785   0.51813   0.00000  Uiso   1.00
C785   C     0.24443   0.88161   0.99804   0.00000  Uiso   1.00
C786   C     0.25494   0.90182   0.94951   0.00000  Uiso   1.00
C787   C     0.20981   0.88667   0.91967   0.00000  Uiso   1.00
C788   C     0.17699   0.82848   0.56721   0.00000  Uiso   1.00
C789   C     0.27917   0.87873   0.57744   0.00000  Uiso   1.00
C790   C     0.11046   0.82810   0.90409   0.00000  Uiso   1.00
C791   C     0.18920   0.98926   0.75181   0.00000  Uiso   1.00
C792   C     0.13253   0.83092   0.84748   0.00000  Uiso   1.00
C793   C     0.14486   0.67757   0.74105   0.00000  Uiso   1.00
C794   C     0.15207   0.73343   0.74687   0.00000  Uiso   1.00
C795   C     0.20064   0.83722   0.65294   0.00000  Uiso   1.00
C796   C     0.29102   0.89592   0.52742   0.00000  Uiso   1.00
C797   C     0.22120   0.84613   0.59785   0.00000  Uiso   1.00
C798   C     0.04910   0.79931   0.92599   0.00000  Uiso   1.00
C799   C     0.03269   0.78985   0.97858   0.00000  Uiso   1.00
C800   C     0.07681   0.80739   0.50927   0.00000  Uiso   1.00
Cu801  Cu    0.10710   0.82772   0.74436   0.00000  Uiso   1.00
Cu802  Cu    0.22623   0.83895   0.75565   0.00000  Uiso   1.00
H803   H     0.31394   0.89278   0.60077   0.00000  Uiso   1.00
H804   H     0.00284   0.87174   0.79093   0.00000  Uiso   1.00
H805   H     0.29828   0.92947   0.93446   0.00000  Uiso   1.00
H806   H     0.00240   0.92183   0.51232   0.00000  Uiso   1.00
H807   H     0.13512   0.80019   0.58325   0.00000  Uiso   1.00
H808   H     0.06031   0.80110   0.54980   0.00000  Uiso   1.00
H809   H     0.21944   0.90574   0.88352   0.00000  Uiso   1.00
H810   H     0.23162   0.67984   0.76224   0.00000  Uiso   1.00
N811   N     0.31574   0.84741   0.76416   0.00000  Uiso   1.00
N812   N     0.01759   0.81926   0.73584   0.00000  Uiso   1.00
O813   O     0.12797   0.90474   0.74633   0.00000  Uiso   1.00
O814   O     0.22858   0.91422   0.75587   0.00000  Uiso   1.00
O815   O     0.09181   0.82627   0.81840   0.00000  Uiso   1.00
O816   O     0.19242   0.83575   0.82793   0.00000  Uiso   1.00
O817   O     0.10476   0.75245   0.74414   0.00000  Uiso   1.00
O818   O     0.20536   0.76193   0.75367   0.00000  Uiso   1.00
O819   O     0.14092   0.83092   0.67207   0.00000  Uiso   1.00
O820   O     0.24152   0.84040   0.68161   0.00000  Uiso   1.00
O821   O     0.09034   0.98122   0.72756   0.00000  Uiso   1.00
C822   C     0.09868   0.97994   0.67360   0.00000  Uiso   1.00
H823   H     0.13869   0.96168   0.65471   0.00000  Uiso   1.00
H824   H     0.10562   0.68664   0.65894   0.00000  Uiso   1.00
H825   H     0.05559   0.95538   0.66277   0.00000  Uiso   1.00
I826   I     0.32647   0.76689   0.67672   0.00000  Uiso   1.00
I827   I     0.31076   0.76561   0.88373   0.00000  Uiso   1.00
O828   O     0.30504   0.76531   0.50050   0.00000  Uiso   1.00
C829   C     0.30435   0.71435   0.51476   0.00000  Uiso   1.00
H830   H     0.32714   0.71596   0.54799   0.00000  Uiso   1.00
H831   H     0.32694   0.69132   0.98197   0.00000  Uiso   1.00
H832   H     0.25475   0.69301   0.52680   0.00000  Uiso   1.00
C833   C     0.51512   0.93335   0.75109   0.00000  Uiso   1.00
C834   C     0.47196   0.83429   0.98852   0.00000  Uiso   1.00
C835   C     0.48653   0.84953   0.93685   0.00000  Uiso   1.00
C836   C     0.51931   0.84785   0.51813   0.00000  Uiso   1.00
C837   C     0.57777   0.88161   0.99804   0.00000  Uiso   1.00
C838   C     0.58827   0.90182   0.94951   0.00000  Uiso   1.00
C839   C     0.54315   0.88667   0.91967   0.00000  Uiso   1.00
C840   C     0.51032   0.82848   0.56721   0.00000  Uiso   1.00
C841   C     0.61250   0.87873   0.57744   0.00000  Uiso   1.00
C842   C     0.44379   0.82810   0.90409   0.00000  Uiso   1.00
C843   C     0.52253   0.98926   0.75181   0.00000  Uiso   1.00
C844   C     0.46586   0.83092   0.84748   0.00000  Uiso   1.00
C845   C     0.47820   0.67757   0.74105   0.00000  Uiso   1.00
C846   C     0.48540   0.73343   0.74687   0.00000  Uiso   1.00
C847   C     0.53397   0.83722   0.65294   0.00000  Uiso   1.00
C848   C     0.62436   0.89592   0.52742   0.00000  Uiso   1.00
C849   C     0.55453   0.84613   0.59785   0.00000  Uiso   1.00
C850   C     0.38244   0.79931   0.92599   0.00000  Uiso   1.00
C851   C     0.36602   0.78985   0.97858   0.00000  Uiso   1.00
C852   C     0.41014   0.80739   0.50927   0.00000  Uiso   1.00
Cu853  Cu    0.44043   0.82772   0.74436   0.00000  Uiso   1.00
Cu854  Cu    0.55957   0.83895   0.75565   0.00000  Uiso   1.00
H855   H     0.64727   0.89278   0.60077   0.00000  Uiso   1.00
H856   H     0.33618   0.87174   0.79093   0.00000  Uiso   1.00
H857   H     0.63162   0.92947   0.93446   0.00000  Uiso   1.00
H858   H     0.33574   0.92183   0.51232   0.00000  Uiso   1.00
H859   H     0.46846   0.80019   0.58325   0.00000  Uiso   1.00
H860   H     0.39365   0.80110   0.54980   0.00000  Uiso   1.00
H861   H     0.55277   0.90574   0.88352   0.00000  Uiso   1.00
H862   H     0.56495   0.67984   0.76224   0.00000  Uiso   1.00
N863   N     0.64908   0.84741   0.76416   0.00000  Uiso   1.00
N864   N     0.35092   0.81926   0.73584   0.00000  Uiso   1.00
O865   O     0.46131   0.90474   0.74633   0.00000  Uiso   1.00
O866   O     0.56191   0.91422   0.75587   0.00000  Uiso   1.00
O867   O     0.42515   0.82627   0.81840   0.00000  Uiso   1.00
O868   O     0.52575   0.83575   0.82793   0.00000  Uiso   1.00
O869   O     0.43809   0.75245   0.74414   0.00000  Uiso   1.00
O870   O     0.53869   0.76193   0.75367   0.00000  Uiso   1.00
O871   O     0.47425   0.83092   0.67207   0.00000  Uiso   1.00
O872   O     0.57485   0.84040   0.68161   0.00000  Uiso   1.00
O873   O     0.42367   0.98122   0.72756   0.00000  Uiso   1.00
C874   C     0.43201   0.97994   0.67360   0.00000  Uiso   1.00
H875   H     0.47203   0.96168   0.65471   0.00000  Uiso   1.00
H876   H     0.43896   0.68664   0.65894   0.00000  Uiso   1.00
H877   H     0.38892   0.95538   0.66277   0.00000  Uiso   1.00
I878   I     0.65980   0.76689   0.67672   0.00000  Uiso   1.00
I879   I     0.64409   0.76561   0.88373   0.00000  Uiso   1.00
O880   O     0.63838   0.76531   0.50050   0.00000  Uiso   1.00
C881   C     0.63768   0.71435   0.51476   0.00000  Uiso   1.00
H882   H     0.66047   0.71596   0.54799   0.00000  Uiso   1.00
H883   H     0.66028   0.69132   0.98197   0.00000  Uiso   1.00
H884   H     0.58808   0.69301   0.52680   0.00000  Uiso   1.00
C885   C     0.84845   0.93335   0.75109   0.00000  Uiso   1.00
C886   C     0.80529   0.83429   0.98852   0.00000  Uiso   1.00
C887   C     0.81986   0.84953   0.93685   0.00000  Uiso   1.00
C888   C     0.85264   0.84785   0.51813   0.00000  Uiso   1.00
C889   C     0.91110   0.88161   0.99804   0.00000  Uiso   1.00
C890   C     0.92161   0.90182   0.94951   0.00000  Uiso   1.00
C891   C     0.87648   0.88667   0.91967   0.00000  Uiso   1.00
C892   C     0.84365   0.82848   0.56721   0.00000  Uiso   1.00
C893   C     0.94584   0.87873   0.57744   0.00000  Uiso   1.00
C894   C     0.77712   0.82810   0.90409   0.00000  Uiso   1.00
C895   C     0.85586   0.98926   0.75181   0.00000  Uiso   1.00
C896   C     0.79920   0.83092   0.84748   0.00000  Uiso   1.00
C897   C     0.81153   0.67757   0.74105   0.00000  Uiso   1.00
C898   C     0.81874   0.73343   0.74687   0.00000  Uiso   1.00
C899   C     0.86731   0.83722   0.65294   0.00000  Uiso   1.00
C900   C     0.95769   0.89592   0.52742   0.00000  Uiso   1.00
C901   C     0.88786   0.84613   0.59785   0.00000  Uiso   1.00
C902   C     0.71577   0.79931   0.92599   0.00000  Uiso   1.00
C903   C     0.69935   0.78985   0.97858   0.00000  Uiso   1.00
C904   C     0.74347   0.80739   0.50927   0.00000  Uiso   1.00
Cu905  Cu    0.77377   0.82772   0.74436   0.00000  Uiso   1.00
Cu906  Cu    0.89290   0.83895   0.75565   0.00000  Uiso   1.00
H907   H     0.98060   0.89278   0.60077   0.00000  Uiso   1.00
H908   H     0.66951   0.87174   0.79093   0.00000  Uiso   1.00
H909   H     0.96495   0.92947   0.93446   0.00000  Uiso   1.00
H910   H     0.66907   0.92183   0.51232   0.00000  Uiso   1.00
H911   H     0.80179   0.80019   0.58325   0.00000  Uiso   1.00
H912   H     0.72698   0.80110   0.54980   0.00000  Uiso   1.00
H913   H     0.88611   0.90574   0.88352   0.00000  Uiso   1.00
H914   H     0.89828   0.67984   0.76224   0.00000  Uiso   1.00
N915   N     0.98241   0.84741   0.76416   0.00000  Uiso   1.00
N916   N     0.68426   0.81926   0.73584   0.00000  Uiso   1.00
O917   O     0.79464   0.90474   0.74633   0.00000  Uiso   1.00
O918   O     0.89524   0.91422   0.75587   0.00000  Uiso   1.00
O919   O     0.75848   0.82627   0.81840   0.00000  Uiso   1.00
O920   O     0.85908   0.83575   0.82793   0.00000  Uiso   1.00
O921   O     0.77142   0.75245   0.74414   0.00000  Uiso   1.00
O922   O     0.87203   0.76193   0.75367   0.00000  Uiso   1.00
O923   O     0.80758   0.83092   0.67207   0.00000  Uiso   1.00
O924   O     0.90819   0.84040   0.68161   0.00000  Uiso   1.00
O925   O     0.75701   0.98122   0.72756   0.00000  Uiso   1.00
C926   C     0.76534   0.97994   0.67360   0.00000  Uiso   1.00
H927   H     0.80536   0.96168   0.65471   0.00000  Uiso   1.00
H928   H     0.77229   0.68664   0.65894   0.00000  Uiso   1.00
H929   H     0.72226   0.95538   0.66277   0.00000  Uiso   1.00
I930   I     0.99314   0.76689   0.67672   0.00000  Uiso   1.00
I931   I     0.97742   0.76561   0.88373   0.00000  Uiso   1.00
O932   O     0.97171   0.76531   0.50050   0.00000  Uiso   1.00
C933   C     0.97101   0.71435   0.51476   0.00000  Uiso   1.00
H934   H     0.99380   0.71596   0.54799   0.00000  Uiso   1.00
H935   H     0.99361   0.69132   0.98197   0.00000  Uiso   1.00
H936   H     0.92141   0.69301   0.52680   0.00000  Uiso   1.00
loop_
_geom_bond_atom_site_label_1
_geom_bond_atom_site_label_2
_geom_bond_distance
_geom_bond_site_symmetry_2
_ccdc_geom_bond_type
C1     O33     1.288   .     A
C1     O34     1.294   .     A
C1     C11     1.431   .     S
C2     C3      1.416   .     A
C2     C472    1.423   .     S
C2     C488    1.410   .     S
C3     C10     1.427   .     A
C3     C7      1.416   .     A
C4     C8      1.402   .     A
C4     C470    1.423   1_554 S
C4     C473    1.418   1_554 S
C5     C6      1.392   .     A
C5     C472    1.418   .     S
C5     C484    1.406   .     S
C6     C7      1.390   .     A
C6     H25     1.084   .     S
C7     H29     1.080   .     S
C8     C17     1.395   .     A
C8     H27     1.078   .     S
C9     C17     1.399   .     A
C9     C16     1.396   .     A
C9     H23     1.083   .     S
C10    C18     1.425   .     A
C10    C12     1.486   .     S
C11    C169    1.342   .     S
C11    H186    1.087   .     S
C12    O36     1.306   .     A
C12    O35     1.302   .     A
C13    C14     1.430   .     S
C13    C323    1.342   1_545 S
C13    O353    1.389   1_545 S
C14    O37     1.287   .     A
C14    O38     1.293   .     A
C15    O39     1.297   .     A
C15    O40     1.302   .     A
C15    C17     1.463   .     S
C16    C473    1.406   1_554 S
C16    H78     1.084   .     S
C18    C19     1.399   .     A
C18    I151    2.146   1_455 S
C19    C488    1.394   .     S
C19    O620    1.385   1_455 S
C20    H28     1.077   .     S
C20    C470    1.410   1_554 S
C20    C487    1.394   1_554 S
Cu21   O39     1.913   .     S
Cu21   O35     1.934   .     S
Cu21   N32     2.025   .     S
Cu21   O33     1.957   .     S
Cu21   O37     1.955   .     S
Cu21   Cu22    2.694   .     S
Cu22   O36     1.913   .     S
Cu22   O40     1.934   .     S
Cu22   O34     1.955   .     S
Cu22   O38     1.957   .     S
Cu22   N31     2.025   .     S
H24    N135    1.029   1_455 S
H26    C120    1.084   1_455 S
H30    C323    1.087   1_545 S
N31    H76     1.029   .     S
N31    N84     1.282   .     S
N32    N135    1.282   1_455 S
N32    I150    2.084   1_455 S
O41    C42     1.411   .     S
O41    C169    1.389   .     S
C42    H43     1.114   .     S
C42    H45     1.109   .     S
C42    H200    1.113   .     S
H44    C354    1.113   1_545 S
I46    N84     2.084   .     S
I47    C70     2.146   .     S
O48    C49     1.412   .     S
O48    C539    1.385   1_554 S
C49    H52     1.109   .     S
C49    H50     1.112   .     S
C49    H519    1.114   1_554 S
H51    C517    1.114   .     S
C53    O85     1.288   .     A
C53    O86     1.294   .     A
C53    C63     1.431   .     S
C54    C55     1.416   .     A
C54    C524    1.423   .     S
C54    C540    1.410   .     S
C55    C62     1.427   .     A
C55    C59     1.416   .     A
C56    C60     1.402   .     A
C56    C522    1.423   1_554 S
C56    C525    1.418   1_554 S
C57    C58     1.392   .     A
C57    C524    1.418   .     S
C57    C536    1.406   .     S
C58    C59     1.390   .     A
C58    H77     1.084   .     S
C59    H81     1.080   .     S
C60    C69     1.395   .     A
C60    H79     1.078   .     S
C61    C69     1.399   .     A
C61    C68     1.396   .     A
C61    H75     1.083   .     S
C62    C70     1.425   .     A
C62    C64     1.486   .     S
C63    C221    1.342   .     S
C63    H238    1.087   .     S
C64    O88     1.306   .     A
C64    O87     1.302   .     A
C65    C66     1.430   .     S
C65    C375    1.342   1_545 S
C65    O405    1.389   1_545 S
C66    O89     1.287   .     A
C66    O90     1.293   .     A
C67    O91     1.297   .     A
C67    O92     1.302   .     A
C67    C69     1.463   .     S
C68    C525    1.406   1_554 S
C68    H130    1.084   .     S
C70    C71     1.399   .     A
C71    C540    1.394   .     S
C71    O516    1.385   .     S
C72    H80     1.077   .     S
C72    C522    1.410   1_554 S
C72    C539    1.394   1_554 S
Cu73   O91     1.913   .     S
Cu73   O87     1.934   .     S
Cu73   N84     2.025   .     S
Cu73   O85     1.957   .     S
Cu73   O89     1.955   .     S
Cu73   Cu74    2.694   .     S
Cu74   O88     1.913   .     S
Cu74   O92     1.934   .     S
Cu74   O86     1.955   .     S
Cu74   O90     1.957   .     S
Cu74   N83     2.025   .     S
H82    C375    1.087   1_545 S
N83    H128    1.029   .     S
N83    N136    1.282   .     S
O93    C94     1.411   .     S
O93    C221    1.389   .     S
C94    H95     1.114   .     S
C94    H97     1.109   .     S
C94    H252    1.113   .     S
H96    C406    1.113   1_545 S
I98    N136    2.084   .     S
I99    C122    2.146   .     S
O100   C101    1.412   .     S
O100   C591    1.385   1_554 S
C101   H104    1.109   .     S
C101   H102    1.112   .     S
C101   H571    1.114   1_554 S
H103   C569    1.114   .     S
C105   O137    1.288   .     A
C105   O138    1.294   .     A
C105   C115    1.431   .     S
C106   C107    1.416   .     A
C106   C576    1.423   .     S
C106   C592    1.410   .     S
C107   C114    1.427   .     A
C107   C111    1.416   .     A
C108   C112    1.402   .     A
C108   C574    1.423   1_554 S
C108   C577    1.418   1_554 S
C109   C110    1.392   .     A
C109   C576    1.418   .     S
C109   C588    1.406   .     S
C110   C111    1.390   .     A
C110   H129    1.084   .     S
C111   H133    1.080   .     S
C112   C121    1.395   .     A
C112   H131    1.078   .     S
C113   C121    1.399   .     A
C113   C120    1.396   .     A
C113   H127    1.083   .     S
C114   C122    1.425   .     A
C114   C116    1.486   .     S
C115   C273    1.342   .     S
C115   H290    1.087   .     S
C116   O140    1.306   .     A
C116   O139    1.302   .     A
C117   C118    1.430   .     S
C117   C427    1.342   1_545 S
C117   O457    1.389   1_545 S
C118   O141    1.287   .     A
C118   O142    1.293   .     A
C119   O143    1.297   .     A
C119   O144    1.302   .     A
C119   C121    1.463   .     S
C120   C577    1.406   1_554 S
C120   H26     1.084   1_655 S
C122   C123    1.399   .     A
C123   C592    1.394   .     S
C123   O568    1.385   .     S
C124   H132    1.077   .     S
C124   C574    1.410   1_554 S
C124   C591    1.394   1_554 S
Cu125  O143    1.913   .     S
Cu125  O139    1.934   .     S
Cu125  N136    2.025   .     S
Cu125  O137    1.957   .     S
Cu125  O141    1.955   .     S
Cu125  Cu126   2.694   .     S
Cu126  O140    1.913   .     S
Cu126  O144    1.934   .     S
Cu126  O138    1.955   .     S
Cu126  O142    1.957   .     S
Cu126  N135    2.025   .     S
H134   C427    1.087   1_545 S
N135   H24     1.029   1_655 S
N135   N32     1.282   1_655 S
O145   C146    1.411   .     S
O145   C273    1.389   .     S
C146   H147    1.114   .     S
C146   H149    1.109   .     S
C146   H304    1.113   .     S
H148   C458    1.113   1_545 S
I150   N32     2.084   1_655 S
I151   C18     2.146   1_655 S
O152   C153    1.412   .     S
O152   C487    1.385   1_654 S
C153   H156    1.109   .     S
C153   H154    1.112   .     S
C153   H623    1.114   1_554 S
H155   C621    1.114   .     S
C157   O189    1.288   .     A
C157   O190    1.294   .     A
C157   C167    1.431   .     S
C158   C159    1.416   .     A
C158   C628    1.423   .     S
C158   C644    1.410   .     S
C159   C166    1.427   .     A
C159   C163    1.416   .     A
C160   C164    1.402   .     A
C160   C626    1.423   1_554 S
C160   C629    1.418   1_554 S
C161   C162    1.392   .     A
C161   C628    1.418   .     S
C161   C640    1.406   .     S
C162   C163    1.390   .     A
C162   H181    1.084   .     S
C163   H185    1.080   .     S
C164   C173    1.395   .     A
C164   H183    1.078   .     S
C165   C173    1.399   .     A
C165   C172    1.396   .     A
C165   H179    1.083   .     S
C166   C174    1.425   .     A
C166   C168    1.486   .     S
C167   C325    1.342   .     S
C167   H342    1.087   .     S
C168   O192    1.306   .     A
C168   O191    1.302   .     A
C169   C170    1.430   .     S
C170   O193    1.287   .     A
C170   O194    1.293   .     A
C171   O195    1.297   .     A
C171   O196    1.302   .     A
C171   C173    1.463   .     S
C172   C629    1.406   1_554 S
C172   H234    1.084   .     S
C174   C175    1.399   .     A
C174   I307    2.146   1_455 S
C175   C644    1.394   .     S
C175   O776    1.385   1_455 S
C176   H184    1.077   .     S
C176   C626    1.410   1_554 S
C176   C643    1.394   1_554 S
Cu177  O195    1.913   .     S
Cu177  O191    1.934   .     S
Cu177  N188    2.025   .     S
Cu177  O189    1.957   .     S
Cu177  O193    1.955   .     S
Cu177  Cu178   2.694   .     S
Cu178  O192    1.913   .     S
Cu178  O196    1.934   .     S
Cu178  O190    1.955   .     S
Cu178  O194    1.957   .     S
Cu178  N187    2.025   .     S
H180   N291    1.029   1_455 S
H182   C276    1.084   1_455 S
N187   H232    1.029   .     S
N187   N240    1.282   .     S
N188   N291    1.282   1_455 S
N188   I306    2.084   1_455 S
O197   C198    1.411   .     S
O197   C325    1.389   .     S
C198   H199    1.114   .     S
C198   H201    1.109   .     S
C198   H356    1.113   .     S
I202   N240    2.084   .     S
I203   C226    2.146   .     S
O204   C205    1.412   .     S
O204   C695    1.385   1_554 S
C205   H208    1.109   .     S
C205   H206    1.112   .     S
C205   H675    1.114   1_554 S
H207   C673    1.114   .     S
C209   O241    1.288   .     A
C209   O242    1.294   .     A
C209   C219    1.431   .     S
C210   C211    1.416   .     A
C210   C680    1.423   .     S
C210   C696    1.410   .     S
C211   C218    1.427   .     A
C211   C215    1.416   .     A
C212   C216    1.402   .     A
C212   C678    1.423   1_554 S
C212   C681    1.418   1_554 S
C213   C214    1.392   .     A
C213   C680    1.418   .     S
C213   C692    1.406   .     S
C214   C215    1.390   .     A
C214   H233    1.084   .     S
C215   H237    1.080   .     S
C216   C225    1.395   .     A
C216   H235    1.078   .     S
C217   C225    1.399   .     A
C217   C224    1.396   .     A
C217   H231    1.083   .     S
C218   C226    1.425   .     A
C218   C220    1.486   .     S
C219   C377    1.342   .     S
C219   H394    1.087   .     S
C220   O244    1.306   .     A
C220   O243    1.302   .     A
C221   C222    1.430   .     S
C222   O245    1.287   .     A
C222   O246    1.293   .     A
C223   O247    1.297   .     A
C223   O248    1.302   .     A
C223   C225    1.463   .     S
C224   C681    1.406   1_554 S
C224   H286    1.084   .     S
C226   C227    1.399   .     A
C227   C696    1.394   .     S
C227   O672    1.385   .     S
C228   H236    1.077   .     S
C228   C678    1.410   1_554 S
C228   C695    1.394   1_554 S
Cu229  O247    1.913   .     S
Cu229  O243    1.934   .     S
Cu229  N240    2.025   .     S
Cu229  O241    1.957   .     S
Cu229  O245    1.955   .     S
Cu229  Cu230   2.694   .     S
Cu230  O244    1.913   .     S
Cu230  O248    1.934   .     S
Cu230  O242    1.955   .     S
Cu230  O246    1.957   .     S
Cu230  N239    2.025   .     S
N239   H284    1.029   .     S
N239   N292    1.282   .     S
O249   C250    1.411   .     S
O249   C377    1.389   .     S
C250   H251    1.114   .     S
C250   H253    1.109   .     S
C250   H408    1.113   .     S
I254   N292    2.084   .     S
I255   C278    2.146   .     S
O256   C257    1.412   .     S
O256   C747    1.385   1_554 S
C257   H260    1.109   .     S
C257   H258    1.112   .     S
C257   H727    1.114   1_554 S
H259   C725    1.114   .     S
C261   O293    1.288   .     A
C261   O294    1.294   .     A
C261   C271    1.431   .     S
C262   C263    1.416   .     A
C262   C732    1.423   .     S
C262   C748    1.410   .     S
C263   C270    1.427   .     A
C263   C267    1.416   .     A
C264   C268    1.402   .     A
C264   C730    1.423   1_554 S
C264   C733    1.418   1_554 S
C265   C266    1.392   .     A
C265   C732    1.418   .     S
C265   C744    1.406   .     S
C266   C267    1.390   .     A
C266   H285    1.084   .     S
C267   H289    1.080   .     S
C268   C277    1.395   .     A
C268   H287    1.078   .     S
C269   C277    1.399   .     A
C269   C276    1.396   .     A
C269   H283    1.083   .     S
C270   C278    1.425   .     A
C270   C272    1.486   .     S
C271   C429    1.342   .     S
C271   H446    1.087   .     S
C272   O296    1.306   .     A
C272   O295    1.302   .     A
C273   C274    1.430   .     S
C274   O297    1.287   .     A
C274   O298    1.293   .     A
C275   O299    1.297   .     A
C275   O300    1.302   .     A
C275   C277    1.463   .     S
C276   C733    1.406   1_554 S
C276   H182    1.084   1_655 S
C278   C279    1.399   .     A
C279   C748    1.394   .     S
C279   O724    1.385   .     S
C280   H288    1.077   .     S
C280   C730    1.410   1_554 S
C280   C747    1.394   1_554 S
Cu281  O299    1.913   .     S
Cu281  O295    1.934   .     S
Cu281  N292    2.025   .     S
Cu281  O293    1.957   .     S
Cu281  O297    1.955   .     S
Cu281  Cu282   2.694   .     S
Cu282  O296    1.913   .     S
Cu282  O300    1.934   .     S
Cu282  O294    1.955   .     S
Cu282  O298    1.957   .     S
Cu282  N291    2.025   .     S
N291   H180    1.029   1_655 S
N291   N188    1.282   1_655 S
O301   C302    1.411   .     S
O301   C429    1.389   .     S
C302   H303    1.114   .     S
C302   H305    1.109   .     S
C302   H460    1.113   .     S
I306   N188    2.084   1_655 S
I307   C174    2.146   1_655 S
O308   C309    1.412   .     S
O308   C643    1.385   1_654 S
C309   H312    1.109   .     S
C309   H310    1.112   .     S
C309   H779    1.114   1_554 S
H311   C777    1.114   .     S
C313   O345    1.288   .     A
C313   O346    1.294   .     A
C313   C323    1.431   .     S
C314   C315    1.416   .     A
C314   C784    1.423   .     S
C314   C800    1.410   .     S
C315   C322    1.427   .     A
C315   C319    1.416   .     A
C316   C320    1.402   .     A
C316   C782    1.423   1_554 S
C316   C785    1.418   1_554 S
C317   C318    1.392   .     A
C317   C784    1.418   .     S
C317   C796    1.406   .     S
C318   C319    1.390   .     A
C318   H337    1.084   .     S
C319   H341    1.080   .     S
C320   C329    1.395   .     A
C320   H339    1.078   .     S
C321   C329    1.399   .     A
C321   C328    1.396   .     A
C321   H335    1.083   .     S
C322   C330    1.425   .     A
C322   C324    1.486   .     S
C323   C13     1.342   1_565 S
C323   H30     1.087   1_565 S
C324   O348    1.306   .     A
C324   O347    1.302   .     A
C325   C326    1.430   .     S
C326   O349    1.287   .     A
C326   O350    1.293   .     A
C327   O351    1.297   .     A
C327   O352    1.302   .     A
C327   C329    1.463   .     S
C328   C785    1.406   1_554 S
C328   H390    1.084   .     S
C330   C331    1.399   .     A
C330   I463    2.146   1_455 S
C331   C800    1.394   .     S
C331   O932    1.385   1_455 S
C332   H340    1.077   .     S
C332   C782    1.410   1_554 S
C332   C799    1.394   1_554 S
Cu333  O351    1.913   .     S
Cu333  O347    1.934   .     S
Cu333  N344    2.025   .     S
Cu333  O345    1.957   .     S
Cu333  O349    1.955   .     S
Cu333  Cu334   2.694   .     S
Cu334  O348    1.913   .     S
Cu334  O352    1.934   .     S
Cu334  O346    1.955   .     S
Cu334  O350    1.957   .     S
Cu334  N343    2.025   .     S
H336   N447    1.029   1_455 S
H338   C432    1.084   1_455 S
N343   H388    1.029   .     S
N343   N396    1.282   .     S
N344   N447    1.282   1_455 S
N344   I462    2.084   1_455 S
O353   C354    1.411   .     S
O353   C13     1.389   1_565 S
C354   H355    1.114   .     S
C354   H357    1.109   .     S
C354   H44     1.113   1_565 S
I358   N396    2.084   .     S
I359   C382    2.146   .     S
O360   C361    1.412   .     S
O360   C851    1.385   1_554 S
C361   H364    1.109   .     S
C361   H362    1.112   .     S
C361   H831    1.114   1_554 S
H363   C829    1.114   .     S
C365   O397    1.288   .     A
C365   O398    1.294   .     A
C365   C375    1.431   .     S
C366   C367    1.416   .     A
C366   C836    1.423   .     S
C366   C852    1.410   .     S
C367   C374    1.427   .     A
C367   C371    1.416   .     A
C368   C372    1.402   .     A
C368   C834    1.423   1_554 S
C368   C837    1.418   1_554 S
C369   C370    1.392   .     A
C369   C836    1.418   .     S
C369   C848    1.406   .     S
C370   C371    1.390   .     A
C370   H389    1.084   .     S
C371   H393    1.080   .     S
C372   C381    1.395   .     A
C372   H391    1.078   .     S
C373   C381    1.399   .     A
C373   C380    1.396   .     A
C373   H387    1.083   .     S
C374   C382    1.425   .     A
C374   C376    1.486   .     S
C375   C65     1.342   1_565 S
C375   H82     1.087   1_565 S
C376   O400    1.306   .     A
C376   O399    1.302   .     A
C377   C378    1.430   .     S
C378   O401    1.287   .     A
C378   O402    1.293   .     A
C379   O403    1.297   .     A
C379   O404    1.302   .     A
C379   C381    1.463   .     S
C380   C837    1.406   1_554 S
C380   H442    1.084   .     S
C382   C383    1.399   .     A
C383   C852    1.394   .     S
C383   O828    1.385   .     S
C384   H392    1.077   .     S
C384   C834    1.410   1_554 S
C384   C851    1.394   1_554 S
Cu385  O403    1.913   .     S
Cu385  O399    1.934   .     S
Cu385  N396    2.025   .     S
Cu385  O397    1.957   .     S
Cu385  O401    1.955   .     S
Cu385  Cu386   2.694   .     S
Cu386  O400    1.913   .     S
Cu386  O404    1.934   .     S
Cu386  O398    1.955   .     S
Cu386  O402    1.957   .     S
Cu386  N395    2.025   .     S
N395   H440    1.029   .     S
N395   N448    1.282   .     S
O405   C406    1.411   .     S
O405   C65     1.389   1_565 S
C406   H407    1.114   .     S
C406   H409    1.109   .     S
C406   H96     1.113   1_565 S
I410   N448    2.084   .     S
I411   C434    2.146   .     S
O412   C413    1.412   .     S
O412   C903    1.385   1_554 S
C413   H416    1.109   .     S
C413   H414    1.112   .     S
C413   H883    1.114   1_554 S
H415   C881    1.114   .     S
C417   O449    1.288   .     A
C417   O450    1.294   .     A
C417   C427    1.431   .     S
C418   C419    1.416   .     A
C418   C888    1.423   .     S
C418   C904    1.410   .     S
C419   C426    1.427   .     A
C419   C423    1.416   .     A
C420   C424    1.402   .     A
C420   C886    1.423   1_554 S
C420   C889    1.418   1_554 S
C421   C422    1.392   .     A
C421   C888    1.418   .     S
C421   C900    1.406   .     S
C422   C423    1.390   .     A
C422   H441    1.084   .     S
C423   H445    1.080   .     S
C424   C433    1.395   .     A
C424   H443    1.078   .     S
C425   C433    1.399   .     A
C425   C432    1.396   .     A
C425   H439    1.083   .     S
C426   C434    1.425   .     A
C426   C428    1.486   .     S
C427   C117    1.342   1_565 S
C427   H134    1.087   1_565 S
C428   O452    1.306   .     A
C428   O451    1.302   .     A
C429   C430    1.430   .     S
C430   O453    1.287   .     A
C430   O454    1.293   .     A
C431   O455    1.297   .     A
C431   O456    1.302   .     A
C431   C433    1.463   .     S
C432   C889    1.406   1_554 S
C432   H338    1.084   1_655 S
C434   C435    1.399   .     A
C435   C904    1.394   .     S
C435   O880    1.385   .     S
C436   H444    1.077   .     S
C436   C886    1.410   1_554 S
C436   C903    1.394   1_554 S
Cu437  O455    1.913   .     S
Cu437  O451    1.934   .     S
Cu437  N448    2.025   .     S
Cu437  O449    1.957   .     S
Cu437  O453    1.955   .     S
Cu437  Cu438   2.694   .     S
Cu438  O452    1.913   .     S
Cu438  O456    1.934   .     S
Cu438  O450    1.955   .     S
Cu438  O454    1.957   .     S
Cu438  N447    2.025   .     S
N447   H336    1.029   1_655 S
N447   N344    1.282   1_655 S
O457   C458    1.411   .     S
O457   C117    1.389   1_565 S
C458   H459    1.114   .     S
C458   H461    1.109   .     S
C458   H148    1.113   1_565 S
I462   N344    2.084   1_655 S
I463   C330    2.146   1_655 S
O464   C465    1.412   .     S
O464   C799    1.385   1_654 S
C465   H468    1.109   .     S
C465   H466    1.112   .     S
C465   H935    1.114   1_554 S
H467   C933    1.114   .     S
C469   O501    1.288   .     A
C469   O502    1.294   .     A
C469   C479    1.431   .     S
C470   C471    1.416   .     A
C470   C4      1.423   1_556 S
C470   C20     1.410   1_556 S
C471   C478    1.427   .     A
C471   C475    1.416   .     A
C472   C476    1.402   .     A
C473   C474    1.392   .     A
C473   C4      1.418   1_556 S
C473   C16     1.406   1_556 S
C474   C475    1.390   .     A
C474   H493    1.084   .     S
C475   H497    1.080   .     S
C476   C485    1.395   .     A
C476   H495    1.078   .     S
C477   C485    1.399   .     A
C477   C484    1.396   .     A
C477   H491    1.083   .     S
C478   C486    1.425   .     A
C478   C480    1.486   .     S
C479   C637    1.342   .     S
C479   H654    1.087   .     S
C480   O504    1.306   .     A
C480   O503    1.302   .     A
C481   C482    1.430   .     S
C481   C791    1.342   1_545 S
C481   O821    1.389   1_545 S
C482   O505    1.287   .     A
C482   O506    1.293   .     A
C483   O507    1.297   .     A
C483   O508    1.302   .     A
C483   C485    1.463   .     S
C484   H546    1.084   .     S
C486   C487    1.399   .     A
C486   I619    2.146   1_455 S
C487   C20     1.394   1_556 S
C487   O152    1.385   1_456 S
C488   H496    1.077   .     S
Cu489  O507    1.913   .     S
Cu489  O503    1.934   .     S
Cu489  N500    2.025   .     S
Cu489  O501    1.957   .     S
Cu489  O505    1.955   .     S
Cu489  Cu490   2.694   .     S
Cu490  O504    1.913   .     S
Cu490  O508    1.934   .     S
Cu490  O502    1.955   .     S
Cu490  O506    1.957   .     S
Cu490  N499    2.025   .     S
H492   N603    1.029   1_455 S
H494   C588    1.084   1_455 S
H498   C791    1.087   1_545 S
N499   H544    1.029   .     S
N499   N552    1.282   .     S
N500   N603    1.282   1_455 S
N500   I618    2.084   1_455 S
O509   C510    1.411   .     S
O509   C637    1.389   .     S
C510   H511    1.114   .     S
C510   H513    1.109   .     S
C510   H668    1.113   .     S
H512   C822    1.113   1_545 S
I514   N552    2.084   .     S
I515   C538    2.146   .     S
O516   C517    1.412   .     S
C517   H520    1.109   .     S
C517   H518    1.112   .     S
H519   C49     1.114   1_556 S
C521   O553    1.288   .     A
C521   O554    1.294   .     A
C521   C531    1.431   .     S
C522   C523    1.416   .     A
C522   C56     1.423   1_556 S
C522   C72     1.410   1_556 S
C523   C530    1.427   .     A
C523   C527    1.416   .     A
C524   C528    1.402   .     A
C525   C526    1.392   .     A
C525   C56     1.418   1_556 S
C525   C68     1.406   1_556 S
C526   C527    1.390   .     A
C526   H545    1.084   .     S
C527   H549    1.080   .     S
C528   C537    1.395   .     A
C528   H547    1.078   .     S
C529   C537    1.399   .     A
C529   C536    1.396   .     A
C529   H543    1.083   .     S
C530   C538    1.425   .     A
C530   C532    1.486   .     S
C531   C689    1.342   .     S
C531   H706    1.087   .     S
C532   O556    1.306   .     A
C532   O555    1.302   .     A
C533   C534    1.430   .     S
C533   C843    1.342   1_545 S
C533   O873    1.389   1_545 S
C534   O557    1.287   .     A
C534   O558    1.293   .     A
C535   O559    1.297   .     A
C535   O560    1.302   .     A
C535   C537    1.463   .     S
C536   H598    1.084   .     S
C538   C539    1.399   .     A
C539   C72     1.394   1_556 S
C539   O48     1.385   1_556 S
C540   H548    1.077   .     S
Cu541  O559    1.913   .     S
Cu541  O555    1.934   .     S
Cu541  N552    2.025   .     S
Cu541  O553    1.957   .     S
Cu541  O557    1.955   .     S
Cu541  Cu542   2.694   .     S
Cu542  O556    1.913   .     S
Cu542  O560    1.934   .     S
Cu542  O554    1.955   .     S
Cu542  O558    1.957   .     S
Cu542  N551    2.025   .     S
H550   C843    1.087   1_545 S
N551   H596    1.029   .     S
N551   N604    1.282   .     S
O561   C562    1.411   .     S
O561   C689    1.389   .     S
C562   H563    1.114   .     S
C562   H565    1.109   .     S
C562   H720    1.113   .     S
H564   C874    1.113   1_545 S
I566   N604    2.084   .     S
I567   C590    2.146   .     S
O568   C569    1.412   .     S
C569   H572    1.109   .     S
C569   H570    1.112   .     S
H571   C101    1.114   1_556 S
C573   O605    1.288   .     A
C573   O606    1.294   .     A
C573   C583    1.431   .     S
C574   C575    1.416   .     A
C574   C108    1.423   1_556 S
C574   C124    1.410   1_556 S
C575   C582    1.427   .     A
C575   C579    1.416   .     A
C576   C580    1.402   .     A
C577   C578    1.392   .     A
C577   C108    1.418   1_556 S
C577   C120    1.406   1_556 S
C578   C579    1.390   .     A
C578   H597    1.084   .     S
C579   H601    1.080   .     S
C580   C589    1.395   .     A
C580   H599    1.078   .     S
C581   C589    1.399   .     A
C581   C588    1.396   .     A
C581   H595    1.083   .     S
C582   C590    1.425   .     A
C582   C584    1.486   .     S
C583   C741    1.342   .     S
C583   H758    1.087   .     S
C584   O608    1.306   .     A
C584   O607    1.302   .     A
C585   C586    1.430   .     S
C585   C895    1.342   1_545 S
C585   O925    1.389   1_545 S
C586   O609    1.287   .     A
C586   O610    1.293   .     A
C587   O611    1.297   .     A
C587   O612    1.302   .     A
C587   C589    1.463   .     S
C588   H494    1.084   1_655 S
C590   C591    1.399   .     A
C591   C124    1.394   1_556 S
C591   O100    1.385   1_556 S
C592   H600    1.077   .     S
Cu593  O611    1.913   .     S
Cu593  O607    1.934   .     S
Cu593  N604    2.025   .     S
Cu593  O605    1.957   .     S
Cu593  O609    1.955   .     S
Cu593  Cu594   2.694   .     S
Cu594  O608    1.913   .     S
Cu594  O612    1.934   .     S
Cu594  O606    1.955   .     S
Cu594  O610    1.957   .     S
Cu594  N603    2.025   .     S
H602   C895    1.087   1_545 S
N603   H492    1.029   1_655 S
N603   N500    1.282   1_655 S
O613   C614    1.411   .     S
O613   C741    1.389   .     S
C614   H615    1.114   .     S
C614   H617    1.109   .     S
C614   H772    1.113   .     S
H616   C926    1.113   1_545 S
I618   N500    2.084   1_655 S
I619   C486    2.146   1_655 S
O620   C621    1.412   .     S
O620   C19     1.385   1_655 S
C621   H624    1.109   .     S
C621   H622    1.112   .     S
H623   C153    1.114   1_556 S
C625   O657    1.288   .     A
C625   O658    1.294   .     A
C625   C635    1.431   .     S
C626   C627    1.416   .     A
C626   C160    1.423   1_556 S
C626   C176    1.410   1_556 S
C627   C634    1.427   .     A
C627   C631    1.416   .     A
C628   C632    1.402   .     A
C629   C630    1.392   .     A
C629   C160    1.418   1_556 S
C629   C172    1.406   1_556 S
C630   C631    1.390   .     A
C630   H649    1.084   .     S
C631   H653    1.080   .     S
C632   C641    1.395   .     A
C632   H651    1.078   .     S
C633   C641    1.399   .     A
C633   C640    1.396   .     A
C633   H647    1.083   .     S
C634   C642    1.425   .     A
C634   C636    1.486   .     S
C635   C793    1.342   .     S
C635   H810    1.087   .     S
C636   O660    1.306   .     A
C636   O659    1.302   .     A
C637   C638    1.430   .     S
C638   O661    1.287   .     A
C638   O662    1.293   .     A
C639   O663    1.297   .     A
C639   O664    1.302   .     A
C639   C641    1.463   .     S
C640   H702    1.084   .     S
C642   C643    1.399   .     A
C642   I775    2.146   1_455 S
C643   C176    1.394   1_556 S
C643   O308    1.385   1_456 S
C644   H652    1.077   .     S
Cu645  O663    1.913   .     S
Cu645  O659    1.934   .     S
Cu645  N656    2.025   .     S
Cu645  O657    1.957   .     S
Cu645  O661    1.955   .     S
Cu645  Cu646   2.694   .     S
Cu646  O660    1.913   .     S
Cu646  O664    1.934   .     S
Cu646  O658    1.955   .     S
Cu646  O662    1.957   .     S
Cu646  N655    2.025   .     S
H648   N759    1.029   1_455 S
H650   C744    1.084   1_455 S
N655   H700    1.029   .     S
N655   N708    1.282   .     S
N656   N759    1.282   1_455 S
N656   I774    2.084   1_455 S
O665   C666    1.411   .     S
O665   C793    1.389   .     S
C666   H667    1.114   .     S
C666   H669    1.109   .     S
C666   H824    1.113   .     S
I670   N708    2.084   .     S
I671   C694    2.146   .     S
O672   C673    1.412   .     S
C673   H676    1.109   .     S
C673   H674    1.112   .     S
H675   C205    1.114   1_556 S
C677   O709    1.288   .     A
C677   O710    1.294   .     A
C677   C687    1.431   .     S
C678   C679    1.416   .     A
C678   C212    1.423   1_556 S
C678   C228    1.410   1_556 S
C679   C686    1.427   .     A
C679   C683    1.416   .     A
C680   C684    1.402   .     A
C681   C682    1.392   .     A
C681   C212    1.418   1_556 S
C681   C224    1.406   1_556 S
C682   C683    1.390   .     A
C682   H701    1.084   .     S
C683   H705    1.080   .     S
C684   C693    1.395   .     A
C684   H703    1.078   .     S
C685   C693    1.399   .     A
C685   C692    1.396   .     A
C685   H699    1.083   .     S
C686   C694    1.425   .     A
C686   C688    1.486   .     S
C687   C845    1.342   .     S
C687   H862    1.087   .     S
C688   O712    1.306   .     A
C688   O711    1.302   .     A
C689   C690    1.430   .     S
C690   O713    1.287   .     A
C690   O714    1.293   .     A
C691   O715    1.297   .     A
C691   O716    1.302   .     A
C691   C693    1.463   .     S
C692   H754    1.084   .     S
C694   C695    1.399   .     A
C695   C228    1.394   1_556 S
C695   O204    1.385   1_556 S
C696   H704    1.077   .     S
Cu697  O715    1.913   .     S
Cu697  O711    1.934   .     S
Cu697  N708    2.025   .     S
Cu697  O709    1.957   .     S
Cu697  O713    1.955   .     S
Cu697  Cu698   2.694   .     S
Cu698  O712    1.913   .     S
Cu698  O716    1.934   .     S
Cu698  O710    1.955   .     S
Cu698  O714    1.957   .     S
Cu698  N707    2.025   .     S
N707   H752    1.029   .     S
N707   N760    1.282   .     S
O717   C718    1.411   .     S
O717   C845    1.389   .     S
C718   H719    1.114   .     S
C718   H721    1.109   .     S
C718   H876    1.113   .     S
I722   N760    2.084   .     S
I723   C746    2.146   .     S
O724   C725    1.412   .     S
C725   H728    1.109   .     S
C725   H726    1.112   .     S
H727   C257    1.114   1_556 S
C729   O761    1.288   .     A
C729   O762    1.294   .     A
C729   C739    1.431   .     S
C730   C731    1.416   .     A
C730   C264    1.423   1_556 S
C730   C280    1.410   1_556 S
C731   C738    1.427   .     A
C731   C735    1.416   .     A
C732   C736    1.402   .     A
C733   C734    1.392   .     A
C733   C264    1.418   1_556 S
C733   C276    1.406   1_556 S
C734   C735    1.390   .     A
C734   H753    1.084   .     S
C735   H757    1.080   .     S
C736   C745    1.395   .     A
C736   H755    1.078   .     S
C737   C745    1.399   .     A
C737   C744    1.396   .     A
C737   H751    1.083   .     S
C738   C746    1.425   .     A
C738   C740    1.486   .     S
C739   C897    1.342   .     S
C739   H914    1.087   .     S
C740   O764    1.306   .     A
C740   O763    1.302   .     A
C741   C742    1.430   .     S
C742   O765    1.287   .     A
C742   O766    1.293   .     A
C743   O767    1.297   .     A
C743   O768    1.302   .     A
C743   C745    1.463   .     S
C744   H650    1.084   1_655 S
C746   C747    1.399   .     A
C747   C280    1.394   1_556 S
C747   O256    1.385   1_556 S
C748   H756    1.077   .     S
Cu749  O767    1.913   .     S
Cu749  O763    1.934   .     S
Cu749  N760    2.025   .     S
Cu749  O761    1.957   .     S
Cu749  O765    1.955   .     S
Cu749  Cu750   2.694   .     S
Cu750  O764    1.913   .     S
Cu750  O768    1.934   .     S
Cu750  O762    1.955   .     S
Cu750  O766    1.957   .     S
Cu750  N759    2.025   .     S
N759   H648    1.029   1_655 S
N759   N656    1.282   1_655 S
O769   C770    1.411   .     S
O769   C897    1.389   .     S
C770   H771    1.114   .     S
C770   H773    1.109   .     S
C770   H928    1.113   .     S
I774   N656    2.084   1_655 S
I775   C642    2.146   1_655 S
O776   C777    1.412   .     S
O776   C175    1.385   1_655 S
C777   H780    1.109   .     S
C777   H778    1.112   .     S
H779   C309    1.114   1_556 S
C781   O813    1.288   .     A
C781   O814    1.294   .     A
C781   C791    1.431   .     S
C782   C783    1.416   .     A
C782   C316    1.423   1_556 S
C782   C332    1.410   1_556 S
C783   C790    1.427   .     A
C783   C787    1.416   .     A
C784   C788    1.402   .     A
C785   C786    1.392   .     A
C785   C316    1.418   1_556 S
C785   C328    1.406   1_556 S
C786   C787    1.390   .     A
C786   H805    1.084   .     S
C787   H809    1.080   .     S
C788   C797    1.395   .     A
C788   H807    1.078   .     S
C789   C797    1.399   .     A
C789   C796    1.396   .     A
C789   H803    1.083   .     S
C790   C798    1.425   .     A
C790   C792    1.486   .     S
C791   C481    1.342   1_565 S
C791   H498    1.087   1_565 S
C792   O816    1.306   .     A
C792   O815    1.302   .     A
C793   C794    1.430   .     S
C794   O817    1.287   .     A
C794   O818    1.293   .     A
C795   O819    1.297   .     A
C795   O820    1.302   .     A
C795   C797    1.463   .     S
C796   H858    1.084   .     S
C798   C799    1.399   .     A
C798   I931    2.146   1_455 S
C799   C332    1.394   1_556 S
C799   O464    1.385   1_456 S
C800   H808    1.077   .     S
Cu801  O819    1.913   .     S
Cu801  O815    1.934   .     S
Cu801  N812    2.025   .     S
Cu801  O813    1.957   .     S
Cu801  O817    1.955   .     S
Cu801  Cu802   2.694   .     S
Cu802  O816    1.913   .     S
Cu802  O820    1.934   .     S
Cu802  O814    1.955   .     S
Cu802  O818    1.957   .     S
Cu802  N811    2.025   .     S
H804   N915    1.029   1_455 S
H806   C900    1.084   1_455 S
N811   H856    1.029   .     S
N811   N864    1.282   .     S
N812   N915    1.282   1_455 S
N812   I930    2.084   1_455 S
O821   C822    1.411   .     S
O821   C481    1.389   1_565 S
C822   H823    1.114   .     S
C822   H825    1.109   .     S
C822   H512    1.113   1_565 S
I826   N864    2.084   .     S
I827   C850    2.146   .     S
O828   C829    1.412   .     S
C829   H832    1.109   .     S
C829   H830    1.112   .     S
H831   C361    1.114   1_556 S
C833   O865    1.288   .     A
C833   O866    1.294   .     A
C833   C843    1.431   .     S
C834   C835    1.416   .     A
C834   C368    1.423   1_556 S
C834   C384    1.410   1_556 S
C835   C842    1.427   .     A
C835   C839    1.416   .     A
C836   C840    1.402   .     A
C837   C838    1.392   .     A
C837   C368    1.418   1_556 S
C837   C380    1.406   1_556 S
C838   C839    1.390   .     A
C838   H857    1.084   .     S
C839   H861    1.080   .     S
C840   C849    1.395   .     A
C840   H859    1.078   .     S
C841   C849    1.399   .     A
C841   C848    1.396   .     A
C841   H855    1.083   .     S
C842   C850    1.425   .     A
C842   C844    1.486   .     S
C843   C533    1.342   1_565 S
C843   H550    1.087   1_565 S
C844   O868    1.306   .     A
C844   O867    1.302   .     A
C845   C846    1.430   .     S
C846   O869    1.287   .     A
C846   O870    1.293   .     A
C847   O871    1.297   .     A
C847   O872    1.302   .     A
C847   C849    1.463   .     S
C848   H910    1.084   .     S
C850   C851    1.399   .     A
C851   C384    1.394   1_556 S
C851   O360    1.385   1_556 S
C852   H860    1.077   .     S
Cu853  O871    1.913   .     S
Cu853  O867    1.934   .     S
Cu853  N864    2.025   .     S
Cu853  O865    1.957   .     S
Cu853  O869    1.955   .     S
Cu853  Cu854   2.694   .     S
Cu854  O868    1.913   .     S
Cu854  O872    1.934   .     S
Cu854  O866    1.955   .     S
Cu854  O870    1.957   .     S
Cu854  N863    2.025   .     S
N863   H908    1.029   .     S
N863   N916    1.282   .     S
O873   C874    1.411   .     S
O873   C533    1.389   1_565 S
C874   H875    1.114   .     S
C874   H877    1.109   .     S
C874   H564    1.113   1_565 S
I878   N916    2.084   .     S
I879   C902    2.146   .     S
O880   C881    1.412   .     S
C881   H884    1.109   .     S
C881   H882    1.112   .     S
H883   C413    1.114   1_556 S
C885   O917    1.288   .     A
C885   O918    1.294   .     A
C885   C895    1.431   .     S
C886   C887    1.416   .     A
C886   C420    1.423   1_556 S
C886   C436    1.410   1_556 S
C887   C894    1.427   .     A
C887   C891    1.416   .     A
C888   C892    1.402   .     A
C889   C890    1.392   .     A
C889   C420    1.418   1_556 S
C889   C432    1.406   1_556 S
C890   C891    1.390   .     A
C890   H909    1.084   .     S
C891   H913    1.080   .     S
C892   C901    1.395   .     A
C892   H911    1.078   .     S
C893   C901    1.399   .     A
C893   C900    1.396   .     A
C893   H907    1.083   .     S
C894   C902    1.425   .     A
C894   C896    1.486   .     S
C895   C585    1.342   1_565 S
C895   H602    1.087   1_565 S
C896   O920    1.306   .     A
C896   O919    1.302   .     A
C897   C898    1.430   .     S
C898   O921    1.287   .     A
C898   O922    1.293   .     A
C899   O923    1.297   .     A
C899   O924    1.302   .     A
C899   C901    1.463   .     S
C900   H806    1.084   1_655 S
C902   C903    1.399   .     A
C903   C436    1.394   1_556 S
C903   O412    1.385   1_556 S
C904   H912    1.077   .     S
Cu905  O923    1.913   .     S
Cu905  O919    1.934   .     S
Cu905  N916    2.025   .     S
Cu905  O917    1.957   .     S
Cu905  O921    1.955   .     S
Cu905  Cu906   2.694   .     S
Cu906  O920    1.913   .     S
Cu906  O924    1.934   .     S
Cu906  O918    1.955   .     S
Cu906  O922    1.957   .     S
Cu906  N915    2.025   .     S
N915   H804    1.029   1_655 S
N915   N812    1.282   1_655 S
O925   C926    1.411   .     S
O925   C585    1.389   1_565 S
C926   H927    1.114   .     S
C926   H929    1.109   .     S
C926   H616    1.113   1_565 S
I930   N812    2.084   1_655 S
I931   C798    2.146   1_655 S
O932   C933    1.412   .     S
O932   C331    1.385   1_655 S
C933   H936    1.109   .     S
C933   H934    1.112   .     S
H935   C465    1.114   1_556 S
