data_str_m2_o1_o10_pcu_sym.156
_audit_creation_date              2020-01-03
_audit_creation_method            'Materials Studio'
_symmetry_space_group_name_H-M    'P1'
_symmetry_Int_Tables_number       1
_symmetry_cell_setting            triclinic
loop_
_symmetry_equiv_pos_as_xyz
  x,y,z
_cell_length_a                    26.1685
_cell_length_b                    32.3785
_cell_length_c                    28.7316
_cell_angle_alpha                 89.7053
_cell_angle_beta                  97.5101
_cell_angle_gamma                 91.5256
loop_
_atom_site_label
_atom_site_type_symbol
_atom_site_fract_x
_atom_site_fract_y
_atom_site_fract_z
_atom_site_U_iso_or_equiv
_atom_site_adp_type
_atom_site_occupancy
C1     C     0.16624   0.08744   0.16673   0.00000  Uiso   1.00
C2     C     0.16599   0.24588   0.16661   0.00000  Uiso   1.00
C3     C     0.06801   0.16706   0.15469   0.00000  Uiso   1.00
C4     C     0.26526   0.16838   0.17852   0.00000  Uiso   1.00
C5     C     0.01270   0.16650   0.14805   0.00000  Uiso   1.00
C6     C     0.32038   0.17257   0.18448   0.00000  Uiso   1.00
C7     C     0.14186   0.02109   0.12756   0.00000  Uiso   1.00
C8     C     0.18749   0.31219   0.20678   0.00000  Uiso   1.00
C9     C     0.14104   0.31165   0.12779   0.00000  Uiso   1.00
C10    C     0.18750   0.02163   0.20689   0.00000  Uiso   1.00
C11    C     0.16488   0.29050   0.16695   0.00000  Uiso   1.00
C12    C     0.16532   0.04279   0.16701   0.00000  Uiso   1.00
C13    C     0.13781   0.13796   0.02196   0.00000  Uiso   1.00
C14    C     0.19952   0.19244   0.31182   0.00000  Uiso   1.00
C15    C     0.13641   0.13859   0.30498   0.00000  Uiso   1.00
C16    C     0.19763   0.19411   0.02827   0.00000  Uiso   1.00
Cu17   Cu    0.16667   0.16667   0.21355   0.00000  Uiso   1.00
Cu18   Cu    0.16667   0.16666   0.11978   0.00000  Uiso   1.00
H19    H     0.32630   0.15977   0.11311   0.00000  Uiso   1.00
H20    H     0.00656   0.18092   0.21898   0.00000  Uiso   1.00
H21    H     0.12345   0.03712   0.09700   0.00000  Uiso   1.00
H22    H     0.20578   0.29613   0.23745   0.00000  Uiso   1.00
H23    H     0.12132   0.29517   0.09773   0.00000  Uiso   1.00
H24    H     0.20565   0.03814   0.23765   0.00000  Uiso   1.00
N25    N     0.16668   0.16668   0.28403   0.00000  Uiso   1.00
N26    N     0.16665   0.16666   0.04931   0.00000  Uiso   1.00
O27    O     0.16666   0.10655   0.20625   0.00000  Uiso   1.00
O28    O     0.16667   0.22678   0.12709   0.00000  Uiso   1.00
O29    O     0.16666   0.10654   0.12706   0.00000  Uiso   1.00
O30    O     0.16667   0.22679   0.20628   0.00000  Uiso   1.00
O31    O     0.09161   0.16667   0.19712   0.00000  Uiso   1.00
O32    O     0.24172   0.16666   0.13621   0.00000  Uiso   1.00
O33    O     0.09161   0.16666   0.11793   0.00000  Uiso   1.00
O34    O     0.24172   0.16667   0.21540   0.00000  Uiso   1.00
O35    O     0.11169   0.10796   0.04426   0.00000  Uiso   1.00
H36    H     0.10930   0.08250   0.02517   0.00000  Uiso   1.00
O37    O     0.23568   0.21501   0.29087   0.00000  Uiso   1.00
H38    H     0.26592   0.22095   0.31463   0.00000  Uiso   1.00
O39    O     0.11205   0.10666   0.27788   0.00000  Uiso   1.00
C40    C     0.05791   0.10629   0.27770   0.00000  Uiso   1.00
H41    H     0.04043   0.12259   0.24624   0.00000  Uiso   1.00
H42    H     0.04464   0.12108   0.30876   0.00000  Uiso   1.00
C43    C     0.03701   0.06191   0.27368   0.00000  Uiso   1.00
H44    H     0.05280   0.04357   0.30473   0.00000  Uiso   1.00
H45    H     0.32763   0.06156   0.27143   0.00000  Uiso   1.00
H46    H     0.04782   0.04738   0.24154   0.00000  Uiso   1.00
O47    O     0.23083   0.22043   0.05640   0.00000  Uiso   1.00
C48    C     0.21733   0.26198   0.04696   0.00000  Uiso   1.00
H49    H     0.17678   0.26696   0.05242   0.00000  Uiso   1.00
H50    H     0.22142   0.27146   0.01044   0.00000  Uiso   1.00
C51    C     0.25293   0.29021   0.07957   0.00000  Uiso   1.00
H52    H     0.29314   0.28809   0.07147   0.00000  Uiso   1.00
H53    H     0.24064   0.32269   0.07477   0.00000  Uiso   1.00
H54    H     0.25192   0.28104   0.11670   0.00000  Uiso   1.00
C55    C     0.49957   0.08744   0.16673   0.00000  Uiso   1.00
C56    C     0.49933   0.24588   0.16661   0.00000  Uiso   1.00
C57    C     0.40134   0.16706   0.15469   0.00000  Uiso   1.00
C58    C     0.59860   0.16838   0.17852   0.00000  Uiso   1.00
C59    C     0.34603   0.16650   0.14805   0.00000  Uiso   1.00
C60    C     0.65371   0.17257   0.18448   0.00000  Uiso   1.00
C61    C     0.47519   0.02109   0.12756   0.00000  Uiso   1.00
C62    C     0.52083   0.31219   0.20678   0.00000  Uiso   1.00
C63    C     0.47437   0.31165   0.12779   0.00000  Uiso   1.00
C64    C     0.52083   0.02163   0.20689   0.00000  Uiso   1.00
C65    C     0.49822   0.29050   0.16695   0.00000  Uiso   1.00
C66    C     0.49866   0.04279   0.16701   0.00000  Uiso   1.00
C67    C     0.47114   0.13796   0.02196   0.00000  Uiso   1.00
C68    C     0.53285   0.19244   0.31182   0.00000  Uiso   1.00
C69    C     0.46974   0.13859   0.30498   0.00000  Uiso   1.00
C70    C     0.53096   0.19411   0.02827   0.00000  Uiso   1.00
Cu71   Cu    0.50000   0.16667   0.21355   0.00000  Uiso   1.00
Cu72   Cu    0.50000   0.16666   0.11978   0.00000  Uiso   1.00
H73    H     0.65964   0.15977   0.11311   0.00000  Uiso   1.00
H74    H     0.33989   0.18092   0.21898   0.00000  Uiso   1.00
H75    H     0.45678   0.03712   0.09700   0.00000  Uiso   1.00
H76    H     0.53911   0.29613   0.23745   0.00000  Uiso   1.00
H77    H     0.45466   0.29517   0.09773   0.00000  Uiso   1.00
H78    H     0.53898   0.03814   0.23765   0.00000  Uiso   1.00
N79    N     0.50001   0.16668   0.28403   0.00000  Uiso   1.00
N80    N     0.49999   0.16666   0.04931   0.00000  Uiso   1.00
O81    O     0.50000   0.10655   0.20625   0.00000  Uiso   1.00
O82    O     0.50000   0.22678   0.12709   0.00000  Uiso   1.00
O83    O     0.50000   0.10654   0.12706   0.00000  Uiso   1.00
O84    O     0.50000   0.22679   0.20628   0.00000  Uiso   1.00
O85    O     0.42495   0.16667   0.19712   0.00000  Uiso   1.00
O86    O     0.57505   0.16666   0.13621   0.00000  Uiso   1.00
O87    O     0.42494   0.16666   0.11793   0.00000  Uiso   1.00
O88    O     0.57506   0.16667   0.21540   0.00000  Uiso   1.00
O89    O     0.44503   0.10796   0.04426   0.00000  Uiso   1.00
H90    H     0.44263   0.08250   0.02517   0.00000  Uiso   1.00
O91    O     0.56901   0.21501   0.29087   0.00000  Uiso   1.00
H92    H     0.59926   0.22095   0.31463   0.00000  Uiso   1.00
O93    O     0.44538   0.10666   0.27788   0.00000  Uiso   1.00
C94    C     0.39125   0.10629   0.27770   0.00000  Uiso   1.00
H95    H     0.37376   0.12259   0.24624   0.00000  Uiso   1.00
H96    H     0.37797   0.12108   0.30876   0.00000  Uiso   1.00
C97    C     0.37034   0.06191   0.27368   0.00000  Uiso   1.00
H98    H     0.38614   0.04357   0.30473   0.00000  Uiso   1.00
H99    H     0.66096   0.06156   0.27143   0.00000  Uiso   1.00
H100   H     0.38115   0.04738   0.24154   0.00000  Uiso   1.00
O101   O     0.56417   0.22043   0.05640   0.00000  Uiso   1.00
C102   C     0.55067   0.26198   0.04696   0.00000  Uiso   1.00
H103   H     0.51011   0.26696   0.05242   0.00000  Uiso   1.00
H104   H     0.55475   0.27146   0.01044   0.00000  Uiso   1.00
C105   C     0.58627   0.29021   0.07957   0.00000  Uiso   1.00
H106   H     0.62647   0.28809   0.07147   0.00000  Uiso   1.00
H107   H     0.57397   0.32269   0.07477   0.00000  Uiso   1.00
H108   H     0.58525   0.28104   0.11670   0.00000  Uiso   1.00
C109   C     0.83290   0.08744   0.16673   0.00000  Uiso   1.00
C110   C     0.83266   0.24588   0.16661   0.00000  Uiso   1.00
C111   C     0.73467   0.16706   0.15469   0.00000  Uiso   1.00
C112   C     0.93193   0.16838   0.17852   0.00000  Uiso   1.00
C113   C     0.67937   0.16650   0.14805   0.00000  Uiso   1.00
C114   C     0.98705   0.17257   0.18448   0.00000  Uiso   1.00
C115   C     0.80852   0.02109   0.12756   0.00000  Uiso   1.00
C116   C     0.85416   0.31219   0.20678   0.00000  Uiso   1.00
C117   C     0.80770   0.31165   0.12779   0.00000  Uiso   1.00
C118   C     0.85417   0.02163   0.20689   0.00000  Uiso   1.00
C119   C     0.83155   0.29050   0.16695   0.00000  Uiso   1.00
C120   C     0.83199   0.04279   0.16701   0.00000  Uiso   1.00
C121   C     0.80448   0.13796   0.02196   0.00000  Uiso   1.00
C122   C     0.86619   0.19244   0.31182   0.00000  Uiso   1.00
C123   C     0.80307   0.13859   0.30498   0.00000  Uiso   1.00
C124   C     0.86429   0.19411   0.02827   0.00000  Uiso   1.00
Cu125  Cu    0.83333   0.16667   0.21355   0.00000  Uiso   1.00
Cu126  Cu    0.83333   0.16666   0.11978   0.00000  Uiso   1.00
H127   H     0.99297   0.15977   0.11311   0.00000  Uiso   1.00
H128   H     0.67322   0.18092   0.21898   0.00000  Uiso   1.00
H129   H     0.79011   0.03712   0.09700   0.00000  Uiso   1.00
H130   H     0.87245   0.29613   0.23745   0.00000  Uiso   1.00
H131   H     0.78799   0.29517   0.09773   0.00000  Uiso   1.00
H132   H     0.87232   0.03814   0.23765   0.00000  Uiso   1.00
N133   N     0.83335   0.16668   0.28403   0.00000  Uiso   1.00
N134   N     0.83332   0.16666   0.04931   0.00000  Uiso   1.00
O135   O     0.83333   0.10655   0.20625   0.00000  Uiso   1.00
O136   O     0.83334   0.22678   0.12709   0.00000  Uiso   1.00
O137   O     0.83333   0.10654   0.12706   0.00000  Uiso   1.00
O138   O     0.83334   0.22679   0.20628   0.00000  Uiso   1.00
O139   O     0.75828   0.16667   0.19712   0.00000  Uiso   1.00
O140   O     0.90839   0.16666   0.13621   0.00000  Uiso   1.00
O141   O     0.75828   0.16666   0.11793   0.00000  Uiso   1.00
O142   O     0.90839   0.16667   0.21540   0.00000  Uiso   1.00
O143   O     0.77836   0.10796   0.04426   0.00000  Uiso   1.00
H144   H     0.77597   0.08250   0.02517   0.00000  Uiso   1.00
O145   O     0.90234   0.21501   0.29087   0.00000  Uiso   1.00
H146   H     0.93259   0.22095   0.31463   0.00000  Uiso   1.00
O147   O     0.77872   0.10666   0.27788   0.00000  Uiso   1.00
C148   C     0.72458   0.10629   0.27770   0.00000  Uiso   1.00
H149   H     0.70709   0.12259   0.24624   0.00000  Uiso   1.00
H150   H     0.71130   0.12108   0.30876   0.00000  Uiso   1.00
C151   C     0.70367   0.06191   0.27368   0.00000  Uiso   1.00
H152   H     0.71947   0.04357   0.30473   0.00000  Uiso   1.00
H153   H     0.99430   0.06156   0.27143   0.00000  Uiso   1.00
H154   H     0.71448   0.04738   0.24154   0.00000  Uiso   1.00
O155   O     0.89750   0.22043   0.05640   0.00000  Uiso   1.00
C156   C     0.88400   0.26198   0.04696   0.00000  Uiso   1.00
H157   H     0.84344   0.26696   0.05242   0.00000  Uiso   1.00
H158   H     0.88809   0.27146   0.01044   0.00000  Uiso   1.00
C159   C     0.91960   0.29021   0.07957   0.00000  Uiso   1.00
H160   H     0.95981   0.28809   0.07147   0.00000  Uiso   1.00
H161   H     0.90730   0.32269   0.07477   0.00000  Uiso   1.00
H162   H     0.91859   0.28104   0.11670   0.00000  Uiso   1.00
C163   C     0.16624   0.42077   0.16673   0.00000  Uiso   1.00
C164   C     0.16599   0.57922   0.16661   0.00000  Uiso   1.00
C165   C     0.06801   0.50040   0.15469   0.00000  Uiso   1.00
C166   C     0.26526   0.50171   0.17852   0.00000  Uiso   1.00
C167   C     0.01270   0.49983   0.14805   0.00000  Uiso   1.00
C168   C     0.32038   0.50591   0.18448   0.00000  Uiso   1.00
C169   C     0.14186   0.35442   0.12756   0.00000  Uiso   1.00
C170   C     0.18749   0.64553   0.20678   0.00000  Uiso   1.00
C171   C     0.14104   0.64498   0.12779   0.00000  Uiso   1.00
C172   C     0.18750   0.35496   0.20689   0.00000  Uiso   1.00
C173   C     0.16488   0.62383   0.16695   0.00000  Uiso   1.00
C174   C     0.16532   0.37613   0.16701   0.00000  Uiso   1.00
C175   C     0.13781   0.47129   0.02196   0.00000  Uiso   1.00
C176   C     0.19952   0.52578   0.31182   0.00000  Uiso   1.00
C177   C     0.13641   0.47193   0.30498   0.00000  Uiso   1.00
C178   C     0.19763   0.52745   0.02827   0.00000  Uiso   1.00
Cu179  Cu    0.16667   0.50001   0.21355   0.00000  Uiso   1.00
Cu180  Cu    0.16667   0.49999   0.11978   0.00000  Uiso   1.00
H181   H     0.32630   0.49310   0.11311   0.00000  Uiso   1.00
H182   H     0.00656   0.51425   0.21898   0.00000  Uiso   1.00
H183   H     0.12345   0.37045   0.09700   0.00000  Uiso   1.00
H184   H     0.20578   0.62946   0.23745   0.00000  Uiso   1.00
H185   H     0.12132   0.62850   0.09773   0.00000  Uiso   1.00
H186   H     0.20565   0.37147   0.23765   0.00000  Uiso   1.00
N187   N     0.16668   0.50001   0.28403   0.00000  Uiso   1.00
N188   N     0.16665   0.49999   0.04931   0.00000  Uiso   1.00
O189   O     0.16666   0.43989   0.20625   0.00000  Uiso   1.00
O190   O     0.16667   0.56011   0.12709   0.00000  Uiso   1.00
O191   O     0.16666   0.43988   0.12706   0.00000  Uiso   1.00
O192   O     0.16667   0.56012   0.20628   0.00000  Uiso   1.00
O193   O     0.09161   0.50000   0.19712   0.00000  Uiso   1.00
O194   O     0.24172   0.50000   0.13621   0.00000  Uiso   1.00
O195   O     0.09161   0.49999   0.11793   0.00000  Uiso   1.00
O196   O     0.24172   0.50001   0.21540   0.00000  Uiso   1.00
O197   O     0.11169   0.44130   0.04426   0.00000  Uiso   1.00
H198   H     0.10930   0.41583   0.02517   0.00000  Uiso   1.00
O199   O     0.23568   0.54834   0.29087   0.00000  Uiso   1.00
H200   H     0.26592   0.55428   0.31463   0.00000  Uiso   1.00
O201   O     0.11205   0.43999   0.27788   0.00000  Uiso   1.00
C202   C     0.05791   0.43962   0.27770   0.00000  Uiso   1.00
H203   H     0.04043   0.45593   0.24624   0.00000  Uiso   1.00
H204   H     0.04464   0.45441   0.30876   0.00000  Uiso   1.00
C205   C     0.03701   0.39525   0.27368   0.00000  Uiso   1.00
H206   H     0.05280   0.37690   0.30473   0.00000  Uiso   1.00
H207   H     0.32763   0.39489   0.27143   0.00000  Uiso   1.00
H208   H     0.04782   0.38071   0.24154   0.00000  Uiso   1.00
O209   O     0.23083   0.55376   0.05640   0.00000  Uiso   1.00
C210   C     0.21733   0.59531   0.04696   0.00000  Uiso   1.00
H211   H     0.17678   0.60030   0.05242   0.00000  Uiso   1.00
H212   H     0.22142   0.60479   0.01044   0.00000  Uiso   1.00
C213   C     0.25293   0.62354   0.07957   0.00000  Uiso   1.00
H214   H     0.29314   0.62142   0.07147   0.00000  Uiso   1.00
H215   H     0.24064   0.65602   0.07477   0.00000  Uiso   1.00
H216   H     0.25192   0.61438   0.11670   0.00000  Uiso   1.00
C217   C     0.49957   0.42077   0.16673   0.00000  Uiso   1.00
C218   C     0.49933   0.57922   0.16661   0.00000  Uiso   1.00
C219   C     0.40134   0.50040   0.15469   0.00000  Uiso   1.00
C220   C     0.59860   0.50171   0.17852   0.00000  Uiso   1.00
C221   C     0.34603   0.49983   0.14805   0.00000  Uiso   1.00
C222   C     0.65371   0.50591   0.18448   0.00000  Uiso   1.00
C223   C     0.47519   0.35442   0.12756   0.00000  Uiso   1.00
C224   C     0.52083   0.64553   0.20678   0.00000  Uiso   1.00
C225   C     0.47437   0.64498   0.12779   0.00000  Uiso   1.00
C226   C     0.52083   0.35496   0.20689   0.00000  Uiso   1.00
C227   C     0.49822   0.62383   0.16695   0.00000  Uiso   1.00
C228   C     0.49866   0.37613   0.16701   0.00000  Uiso   1.00
C229   C     0.47114   0.47129   0.02196   0.00000  Uiso   1.00
C230   C     0.53285   0.52578   0.31182   0.00000  Uiso   1.00
C231   C     0.46974   0.47193   0.30498   0.00000  Uiso   1.00
C232   C     0.53096   0.52745   0.02827   0.00000  Uiso   1.00
Cu233  Cu    0.50000   0.50001   0.21355   0.00000  Uiso   1.00
Cu234  Cu    0.50000   0.49999   0.11978   0.00000  Uiso   1.00
H235   H     0.65964   0.49310   0.11311   0.00000  Uiso   1.00
H236   H     0.33989   0.51425   0.21898   0.00000  Uiso   1.00
H237   H     0.45678   0.37045   0.09700   0.00000  Uiso   1.00
H238   H     0.53911   0.62946   0.23745   0.00000  Uiso   1.00
H239   H     0.45466   0.62850   0.09773   0.00000  Uiso   1.00
H240   H     0.53898   0.37147   0.23765   0.00000  Uiso   1.00
N241   N     0.50001   0.50001   0.28403   0.00000  Uiso   1.00
N242   N     0.49999   0.49999   0.04931   0.00000  Uiso   1.00
O243   O     0.50000   0.43989   0.20625   0.00000  Uiso   1.00
O244   O     0.50000   0.56011   0.12709   0.00000  Uiso   1.00
O245   O     0.50000   0.43988   0.12706   0.00000  Uiso   1.00
O246   O     0.50000   0.56012   0.20628   0.00000  Uiso   1.00
O247   O     0.42495   0.50000   0.19712   0.00000  Uiso   1.00
O248   O     0.57505   0.50000   0.13621   0.00000  Uiso   1.00
O249   O     0.42494   0.49999   0.11793   0.00000  Uiso   1.00
O250   O     0.57506   0.50001   0.21540   0.00000  Uiso   1.00
O251   O     0.44503   0.44130   0.04426   0.00000  Uiso   1.00
H252   H     0.44263   0.41583   0.02517   0.00000  Uiso   1.00
O253   O     0.56901   0.54834   0.29087   0.00000  Uiso   1.00
H254   H     0.59926   0.55428   0.31463   0.00000  Uiso   1.00
O255   O     0.44538   0.43999   0.27788   0.00000  Uiso   1.00
C256   C     0.39125   0.43962   0.27770   0.00000  Uiso   1.00
H257   H     0.37376   0.45593   0.24624   0.00000  Uiso   1.00
H258   H     0.37797   0.45441   0.30876   0.00000  Uiso   1.00
C259   C     0.37034   0.39525   0.27368   0.00000  Uiso   1.00
H260   H     0.38614   0.37690   0.30473   0.00000  Uiso   1.00
H261   H     0.66096   0.39489   0.27143   0.00000  Uiso   1.00
H262   H     0.38115   0.38071   0.24154   0.00000  Uiso   1.00
O263   O     0.56417   0.55376   0.05640   0.00000  Uiso   1.00
C264   C     0.55067   0.59531   0.04696   0.00000  Uiso   1.00
H265   H     0.51011   0.60030   0.05242   0.00000  Uiso   1.00
H266   H     0.55475   0.60479   0.01044   0.00000  Uiso   1.00
C267   C     0.58627   0.62354   0.07957   0.00000  Uiso   1.00
H268   H     0.62647   0.62142   0.07147   0.00000  Uiso   1.00
H269   H     0.57397   0.65602   0.07477   0.00000  Uiso   1.00
H270   H     0.58525   0.61438   0.11670   0.00000  Uiso   1.00
C271   C     0.83290   0.42077   0.16673   0.00000  Uiso   1.00
C272   C     0.83266   0.57922   0.16661   0.00000  Uiso   1.00
C273   C     0.73467   0.50040   0.15469   0.00000  Uiso   1.00
C274   C     0.93193   0.50171   0.17852   0.00000  Uiso   1.00
C275   C     0.67937   0.49983   0.14805   0.00000  Uiso   1.00
C276   C     0.98705   0.50591   0.18448   0.00000  Uiso   1.00
C277   C     0.80852   0.35442   0.12756   0.00000  Uiso   1.00
C278   C     0.85416   0.64553   0.20678   0.00000  Uiso   1.00
C279   C     0.80770   0.64498   0.12779   0.00000  Uiso   1.00
C280   C     0.85417   0.35496   0.20689   0.00000  Uiso   1.00
C281   C     0.83155   0.62383   0.16695   0.00000  Uiso   1.00
C282   C     0.83199   0.37613   0.16701   0.00000  Uiso   1.00
C283   C     0.80448   0.47129   0.02196   0.00000  Uiso   1.00
C284   C     0.86619   0.52578   0.31182   0.00000  Uiso   1.00
C285   C     0.80307   0.47193   0.30498   0.00000  Uiso   1.00
C286   C     0.86429   0.52745   0.02827   0.00000  Uiso   1.00
Cu287  Cu    0.83333   0.50001   0.21355   0.00000  Uiso   1.00
Cu288  Cu    0.83333   0.49999   0.11978   0.00000  Uiso   1.00
H289   H     0.99297   0.49310   0.11311   0.00000  Uiso   1.00
H290   H     0.67322   0.51425   0.21898   0.00000  Uiso   1.00
H291   H     0.79011   0.37045   0.09700   0.00000  Uiso   1.00
H292   H     0.87245   0.62946   0.23745   0.00000  Uiso   1.00
H293   H     0.78799   0.62850   0.09773   0.00000  Uiso   1.00
H294   H     0.87232   0.37147   0.23765   0.00000  Uiso   1.00
N295   N     0.83335   0.50001   0.28403   0.00000  Uiso   1.00
N296   N     0.83332   0.49999   0.04931   0.00000  Uiso   1.00
O297   O     0.83333   0.43989   0.20625   0.00000  Uiso   1.00
O298   O     0.83334   0.56011   0.12709   0.00000  Uiso   1.00
O299   O     0.83333   0.43988   0.12706   0.00000  Uiso   1.00
O300   O     0.83334   0.56012   0.20628   0.00000  Uiso   1.00
O301   O     0.75828   0.50000   0.19712   0.00000  Uiso   1.00
O302   O     0.90839   0.50000   0.13621   0.00000  Uiso   1.00
O303   O     0.75828   0.49999   0.11793   0.00000  Uiso   1.00
O304   O     0.90839   0.50001   0.21540   0.00000  Uiso   1.00
O305   O     0.77836   0.44130   0.04426   0.00000  Uiso   1.00
H306   H     0.77597   0.41583   0.02517   0.00000  Uiso   1.00
O307   O     0.90234   0.54834   0.29087   0.00000  Uiso   1.00
H308   H     0.93259   0.55428   0.31463   0.00000  Uiso   1.00
O309   O     0.77872   0.43999   0.27788   0.00000  Uiso   1.00
C310   C     0.72458   0.43962   0.27770   0.00000  Uiso   1.00
H311   H     0.70709   0.45593   0.24624   0.00000  Uiso   1.00
H312   H     0.71130   0.45441   0.30876   0.00000  Uiso   1.00
C313   C     0.70367   0.39525   0.27368   0.00000  Uiso   1.00
H314   H     0.71947   0.37690   0.30473   0.00000  Uiso   1.00
H315   H     0.99430   0.39489   0.27143   0.00000  Uiso   1.00
H316   H     0.71448   0.38071   0.24154   0.00000  Uiso   1.00
O317   O     0.89750   0.55376   0.05640   0.00000  Uiso   1.00
C318   C     0.88400   0.59531   0.04696   0.00000  Uiso   1.00
H319   H     0.84344   0.60030   0.05242   0.00000  Uiso   1.00
H320   H     0.88809   0.60479   0.01044   0.00000  Uiso   1.00
C321   C     0.91960   0.62354   0.07957   0.00000  Uiso   1.00
H322   H     0.95981   0.62142   0.07147   0.00000  Uiso   1.00
H323   H     0.90730   0.65602   0.07477   0.00000  Uiso   1.00
H324   H     0.91859   0.61438   0.11670   0.00000  Uiso   1.00
C325   C     0.16624   0.75410   0.16673   0.00000  Uiso   1.00
C326   C     0.16599   0.91255   0.16661   0.00000  Uiso   1.00
C327   C     0.06801   0.83373   0.15469   0.00000  Uiso   1.00
C328   C     0.26526   0.83505   0.17852   0.00000  Uiso   1.00
C329   C     0.01270   0.83317   0.14805   0.00000  Uiso   1.00
C330   C     0.32038   0.83924   0.18448   0.00000  Uiso   1.00
C331   C     0.14186   0.68775   0.12756   0.00000  Uiso   1.00
C332   C     0.18749   0.97886   0.20678   0.00000  Uiso   1.00
C333   C     0.14104   0.97832   0.12779   0.00000  Uiso   1.00
C334   C     0.18750   0.68830   0.20689   0.00000  Uiso   1.00
C335   C     0.16488   0.95717   0.16695   0.00000  Uiso   1.00
C336   C     0.16532   0.70946   0.16701   0.00000  Uiso   1.00
C337   C     0.13781   0.80462   0.02196   0.00000  Uiso   1.00
C338   C     0.19952   0.85911   0.31182   0.00000  Uiso   1.00
C339   C     0.13641   0.80526   0.30498   0.00000  Uiso   1.00
C340   C     0.19763   0.86078   0.02827   0.00000  Uiso   1.00
Cu341  Cu    0.16667   0.83334   0.21355   0.00000  Uiso   1.00
Cu342  Cu    0.16667   0.83333   0.11978   0.00000  Uiso   1.00
H343   H     0.32630   0.82643   0.11311   0.00000  Uiso   1.00
H344   H     0.00656   0.84759   0.21898   0.00000  Uiso   1.00
H345   H     0.12345   0.70379   0.09700   0.00000  Uiso   1.00
H346   H     0.20578   0.96280   0.23745   0.00000  Uiso   1.00
H347   H     0.12132   0.96183   0.09773   0.00000  Uiso   1.00
H348   H     0.20565   0.70480   0.23765   0.00000  Uiso   1.00
N349   N     0.16668   0.83334   0.28403   0.00000  Uiso   1.00
N350   N     0.16665   0.83332   0.04931   0.00000  Uiso   1.00
O351   O     0.16666   0.77322   0.20625   0.00000  Uiso   1.00
O352   O     0.16667   0.89345   0.12709   0.00000  Uiso   1.00
O353   O     0.16666   0.77321   0.12706   0.00000  Uiso   1.00
O354   O     0.16667   0.89346   0.20628   0.00000  Uiso   1.00
O355   O     0.09161   0.83334   0.19712   0.00000  Uiso   1.00
O356   O     0.24172   0.83333   0.13621   0.00000  Uiso   1.00
O357   O     0.09161   0.83333   0.11793   0.00000  Uiso   1.00
O358   O     0.24172   0.83334   0.21540   0.00000  Uiso   1.00
O359   O     0.11169   0.77463   0.04426   0.00000  Uiso   1.00
H360   H     0.10930   0.74917   0.02517   0.00000  Uiso   1.00
O361   O     0.23568   0.88168   0.29087   0.00000  Uiso   1.00
H362   H     0.26592   0.88762   0.31463   0.00000  Uiso   1.00
O363   O     0.11205   0.77333   0.27788   0.00000  Uiso   1.00
C364   C     0.05791   0.77295   0.27770   0.00000  Uiso   1.00
H365   H     0.04043   0.78926   0.24624   0.00000  Uiso   1.00
H366   H     0.04464   0.78775   0.30876   0.00000  Uiso   1.00
C367   C     0.03701   0.72858   0.27368   0.00000  Uiso   1.00
H368   H     0.05280   0.71023   0.30473   0.00000  Uiso   1.00
H369   H     0.32763   0.72823   0.27143   0.00000  Uiso   1.00
H370   H     0.04782   0.71404   0.24154   0.00000  Uiso   1.00
O371   O     0.23083   0.88709   0.05640   0.00000  Uiso   1.00
C372   C     0.21733   0.92865   0.04696   0.00000  Uiso   1.00
H373   H     0.17678   0.93363   0.05242   0.00000  Uiso   1.00
H374   H     0.22142   0.93813   0.01044   0.00000  Uiso   1.00
C375   C     0.25293   0.95688   0.07957   0.00000  Uiso   1.00
H376   H     0.29314   0.95476   0.07147   0.00000  Uiso   1.00
H377   H     0.24064   0.98936   0.07477   0.00000  Uiso   1.00
H378   H     0.25192   0.94771   0.11670   0.00000  Uiso   1.00
C379   C     0.49957   0.75410   0.16673   0.00000  Uiso   1.00
C380   C     0.49933   0.91255   0.16661   0.00000  Uiso   1.00
C381   C     0.40134   0.83373   0.15469   0.00000  Uiso   1.00
C382   C     0.59860   0.83505   0.17852   0.00000  Uiso   1.00
C383   C     0.34603   0.83317   0.14805   0.00000  Uiso   1.00
C384   C     0.65371   0.83924   0.18448   0.00000  Uiso   1.00
C385   C     0.47519   0.68775   0.12756   0.00000  Uiso   1.00
C386   C     0.52083   0.97886   0.20678   0.00000  Uiso   1.00
C387   C     0.47437   0.97832   0.12779   0.00000  Uiso   1.00
C388   C     0.52083   0.68830   0.20689   0.00000  Uiso   1.00
C389   C     0.49822   0.95717   0.16695   0.00000  Uiso   1.00
C390   C     0.49866   0.70946   0.16701   0.00000  Uiso   1.00
C391   C     0.47114   0.80462   0.02196   0.00000  Uiso   1.00
C392   C     0.53285   0.85911   0.31182   0.00000  Uiso   1.00
C393   C     0.46974   0.80526   0.30498   0.00000  Uiso   1.00
C394   C     0.53096   0.86078   0.02827   0.00000  Uiso   1.00
Cu395  Cu    0.50000   0.83334   0.21355   0.00000  Uiso   1.00
Cu396  Cu    0.50000   0.83333   0.11978   0.00000  Uiso   1.00
H397   H     0.65964   0.82643   0.11311   0.00000  Uiso   1.00
H398   H     0.33989   0.84759   0.21898   0.00000  Uiso   1.00
H399   H     0.45678   0.70379   0.09700   0.00000  Uiso   1.00
H400   H     0.53911   0.96280   0.23745   0.00000  Uiso   1.00
H401   H     0.45466   0.96183   0.09773   0.00000  Uiso   1.00
H402   H     0.53898   0.70480   0.23765   0.00000  Uiso   1.00
N403   N     0.50001   0.83334   0.28403   0.00000  Uiso   1.00
N404   N     0.49999   0.83332   0.04931   0.00000  Uiso   1.00
O405   O     0.50000   0.77322   0.20625   0.00000  Uiso   1.00
O406   O     0.50000   0.89345   0.12709   0.00000  Uiso   1.00
O407   O     0.50000   0.77321   0.12706   0.00000  Uiso   1.00
O408   O     0.50000   0.89346   0.20628   0.00000  Uiso   1.00
O409   O     0.42495   0.83334   0.19712   0.00000  Uiso   1.00
O410   O     0.57505   0.83333   0.13621   0.00000  Uiso   1.00
O411   O     0.42494   0.83333   0.11793   0.00000  Uiso   1.00
O412   O     0.57506   0.83334   0.21540   0.00000  Uiso   1.00
O413   O     0.44503   0.77463   0.04426   0.00000  Uiso   1.00
H414   H     0.44263   0.74917   0.02517   0.00000  Uiso   1.00
O415   O     0.56901   0.88168   0.29087   0.00000  Uiso   1.00
H416   H     0.59926   0.88762   0.31463   0.00000  Uiso   1.00
O417   O     0.44538   0.77333   0.27788   0.00000  Uiso   1.00
C418   C     0.39125   0.77295   0.27770   0.00000  Uiso   1.00
H419   H     0.37376   0.78926   0.24624   0.00000  Uiso   1.00
H420   H     0.37797   0.78775   0.30876   0.00000  Uiso   1.00
C421   C     0.37034   0.72858   0.27368   0.00000  Uiso   1.00
H422   H     0.38614   0.71023   0.30473   0.00000  Uiso   1.00
H423   H     0.66096   0.72823   0.27143   0.00000  Uiso   1.00
H424   H     0.38115   0.71404   0.24154   0.00000  Uiso   1.00
O425   O     0.56417   0.88709   0.05640   0.00000  Uiso   1.00
C426   C     0.55067   0.92865   0.04696   0.00000  Uiso   1.00
H427   H     0.51011   0.93363   0.05242   0.00000  Uiso   1.00
H428   H     0.55475   0.93813   0.01044   0.00000  Uiso   1.00
C429   C     0.58627   0.95688   0.07957   0.00000  Uiso   1.00
H430   H     0.62647   0.95476   0.07147   0.00000  Uiso   1.00
H431   H     0.57397   0.98936   0.07477   0.00000  Uiso   1.00
H432   H     0.58525   0.94771   0.11670   0.00000  Uiso   1.00
C433   C     0.83290   0.75410   0.16673   0.00000  Uiso   1.00
C434   C     0.83266   0.91255   0.16661   0.00000  Uiso   1.00
C435   C     0.73467   0.83373   0.15469   0.00000  Uiso   1.00
C436   C     0.93193   0.83505   0.17852   0.00000  Uiso   1.00
C437   C     0.67937   0.83317   0.14805   0.00000  Uiso   1.00
C438   C     0.98705   0.83924   0.18448   0.00000  Uiso   1.00
C439   C     0.80852   0.68775   0.12756   0.00000  Uiso   1.00
C440   C     0.85416   0.97886   0.20678   0.00000  Uiso   1.00
C441   C     0.80770   0.97832   0.12779   0.00000  Uiso   1.00
C442   C     0.85417   0.68830   0.20689   0.00000  Uiso   1.00
C443   C     0.83155   0.95717   0.16695   0.00000  Uiso   1.00
C444   C     0.83199   0.70946   0.16701   0.00000  Uiso   1.00
C445   C     0.80448   0.80462   0.02196   0.00000  Uiso   1.00
C446   C     0.86619   0.85911   0.31182   0.00000  Uiso   1.00
C447   C     0.80307   0.80526   0.30498   0.00000  Uiso   1.00
C448   C     0.86429   0.86078   0.02827   0.00000  Uiso   1.00
Cu449  Cu    0.83333   0.83334   0.21355   0.00000  Uiso   1.00
Cu450  Cu    0.83333   0.83333   0.11978   0.00000  Uiso   1.00
H451   H     0.99297   0.82643   0.11311   0.00000  Uiso   1.00
H452   H     0.67322   0.84759   0.21898   0.00000  Uiso   1.00
H453   H     0.79011   0.70379   0.09700   0.00000  Uiso   1.00
H454   H     0.87245   0.96280   0.23745   0.00000  Uiso   1.00
H455   H     0.78799   0.96183   0.09773   0.00000  Uiso   1.00
H456   H     0.87232   0.70480   0.23765   0.00000  Uiso   1.00
N457   N     0.83335   0.83334   0.28403   0.00000  Uiso   1.00
N458   N     0.83332   0.83332   0.04931   0.00000  Uiso   1.00
O459   O     0.83333   0.77322   0.20625   0.00000  Uiso   1.00
O460   O     0.83334   0.89345   0.12709   0.00000  Uiso   1.00
O461   O     0.83333   0.77321   0.12706   0.00000  Uiso   1.00
O462   O     0.83334   0.89346   0.20628   0.00000  Uiso   1.00
O463   O     0.75828   0.83334   0.19712   0.00000  Uiso   1.00
O464   O     0.90839   0.83333   0.13621   0.00000  Uiso   1.00
O465   O     0.75828   0.83333   0.11793   0.00000  Uiso   1.00
O466   O     0.90839   0.83334   0.21540   0.00000  Uiso   1.00
O467   O     0.77836   0.77463   0.04426   0.00000  Uiso   1.00
H468   H     0.77597   0.74917   0.02517   0.00000  Uiso   1.00
O469   O     0.90234   0.88168   0.29087   0.00000  Uiso   1.00
H470   H     0.93259   0.88762   0.31463   0.00000  Uiso   1.00
O471   O     0.77872   0.77333   0.27788   0.00000  Uiso   1.00
C472   C     0.72458   0.77295   0.27770   0.00000  Uiso   1.00
H473   H     0.70709   0.78926   0.24624   0.00000  Uiso   1.00
H474   H     0.71130   0.78775   0.30876   0.00000  Uiso   1.00
C475   C     0.70367   0.72858   0.27368   0.00000  Uiso   1.00
H476   H     0.71947   0.71023   0.30473   0.00000  Uiso   1.00
H477   H     0.99430   0.72823   0.27143   0.00000  Uiso   1.00
H478   H     0.71448   0.71404   0.24154   0.00000  Uiso   1.00
O479   O     0.89750   0.88709   0.05640   0.00000  Uiso   1.00
C480   C     0.88400   0.92865   0.04696   0.00000  Uiso   1.00
H481   H     0.84344   0.93363   0.05242   0.00000  Uiso   1.00
H482   H     0.88809   0.93813   0.01044   0.00000  Uiso   1.00
C483   C     0.91960   0.95688   0.07957   0.00000  Uiso   1.00
H484   H     0.95981   0.95476   0.07147   0.00000  Uiso   1.00
H485   H     0.90730   0.98936   0.07477   0.00000  Uiso   1.00
H486   H     0.91859   0.94771   0.11670   0.00000  Uiso   1.00
C487   C     0.16624   0.08744   0.50006   0.00000  Uiso   1.00
C488   C     0.16599   0.24588   0.49995   0.00000  Uiso   1.00
C489   C     0.06801   0.16706   0.48802   0.00000  Uiso   1.00
C490   C     0.26526   0.16838   0.51185   0.00000  Uiso   1.00
C491   C     0.01270   0.16650   0.48138   0.00000  Uiso   1.00
C492   C     0.32038   0.17257   0.51782   0.00000  Uiso   1.00
C493   C     0.14186   0.02109   0.46090   0.00000  Uiso   1.00
C494   C     0.18749   0.31219   0.54011   0.00000  Uiso   1.00
C495   C     0.14104   0.31165   0.46113   0.00000  Uiso   1.00
C496   C     0.18750   0.02163   0.54022   0.00000  Uiso   1.00
C497   C     0.16488   0.29050   0.50028   0.00000  Uiso   1.00
C498   C     0.16532   0.04279   0.50034   0.00000  Uiso   1.00
C499   C     0.13781   0.13796   0.35530   0.00000  Uiso   1.00
C500   C     0.19952   0.19244   0.64515   0.00000  Uiso   1.00
C501   C     0.13641   0.13859   0.63832   0.00000  Uiso   1.00
C502   C     0.19763   0.19411   0.36161   0.00000  Uiso   1.00
Cu503  Cu    0.16667   0.16667   0.54689   0.00000  Uiso   1.00
Cu504  Cu    0.16667   0.16666   0.45311   0.00000  Uiso   1.00
H505   H     0.32630   0.15977   0.44645   0.00000  Uiso   1.00
H506   H     0.00656   0.18092   0.55231   0.00000  Uiso   1.00
H507   H     0.12345   0.03712   0.43034   0.00000  Uiso   1.00
H508   H     0.20578   0.29613   0.57078   0.00000  Uiso   1.00
H509   H     0.12132   0.29517   0.43106   0.00000  Uiso   1.00
H510   H     0.20565   0.03814   0.57099   0.00000  Uiso   1.00
N511   N     0.16668   0.16668   0.61736   0.00000  Uiso   1.00
N512   N     0.16665   0.16666   0.38264   0.00000  Uiso   1.00
O513   O     0.16666   0.10655   0.53958   0.00000  Uiso   1.00
O514   O     0.16667   0.22678   0.46042   0.00000  Uiso   1.00
O515   O     0.16666   0.10654   0.46039   0.00000  Uiso   1.00
O516   O     0.16667   0.22679   0.53961   0.00000  Uiso   1.00
O517   O     0.09161   0.16667   0.53046   0.00000  Uiso   1.00
O518   O     0.24172   0.16666   0.46954   0.00000  Uiso   1.00
O519   O     0.09161   0.16666   0.45127   0.00000  Uiso   1.00
O520   O     0.24172   0.16667   0.54873   0.00000  Uiso   1.00
O521   O     0.11169   0.10796   0.37759   0.00000  Uiso   1.00
H522   H     0.10930   0.08250   0.35850   0.00000  Uiso   1.00
O523   O     0.23568   0.21501   0.62420   0.00000  Uiso   1.00
H524   H     0.26592   0.22095   0.64797   0.00000  Uiso   1.00
O525   O     0.11205   0.10666   0.61121   0.00000  Uiso   1.00
C526   C     0.05791   0.10629   0.61103   0.00000  Uiso   1.00
H527   H     0.04043   0.12259   0.57957   0.00000  Uiso   1.00
H528   H     0.04464   0.12108   0.64209   0.00000  Uiso   1.00
C529   C     0.03701   0.06191   0.60702   0.00000  Uiso   1.00
H530   H     0.05280   0.04357   0.63806   0.00000  Uiso   1.00
H531   H     0.32763   0.06156   0.60477   0.00000  Uiso   1.00
H532   H     0.04782   0.04738   0.57487   0.00000  Uiso   1.00
O533   O     0.23083   0.22043   0.38973   0.00000  Uiso   1.00
C534   C     0.21733   0.26198   0.38029   0.00000  Uiso   1.00
H535   H     0.17678   0.26696   0.38576   0.00000  Uiso   1.00
H536   H     0.22142   0.27146   0.34378   0.00000  Uiso   1.00
C537   C     0.25293   0.29021   0.41290   0.00000  Uiso   1.00
H538   H     0.29314   0.28809   0.40481   0.00000  Uiso   1.00
H539   H     0.24064   0.32269   0.40810   0.00000  Uiso   1.00
H540   H     0.25192   0.28104   0.45003   0.00000  Uiso   1.00
C541   C     0.49957   0.08744   0.50006   0.00000  Uiso   1.00
C542   C     0.49933   0.24588   0.49995   0.00000  Uiso   1.00
C543   C     0.40134   0.16706   0.48802   0.00000  Uiso   1.00
C544   C     0.59860   0.16838   0.51185   0.00000  Uiso   1.00
C545   C     0.34603   0.16650   0.48138   0.00000  Uiso   1.00
C546   C     0.65371   0.17257   0.51782   0.00000  Uiso   1.00
C547   C     0.47519   0.02109   0.46090   0.00000  Uiso   1.00
C548   C     0.52083   0.31219   0.54011   0.00000  Uiso   1.00
C549   C     0.47437   0.31165   0.46113   0.00000  Uiso   1.00
C550   C     0.52083   0.02163   0.54022   0.00000  Uiso   1.00
C551   C     0.49822   0.29050   0.50028   0.00000  Uiso   1.00
C552   C     0.49866   0.04279   0.50034   0.00000  Uiso   1.00
C553   C     0.47114   0.13796   0.35530   0.00000  Uiso   1.00
C554   C     0.53285   0.19244   0.64515   0.00000  Uiso   1.00
C555   C     0.46974   0.13859   0.63832   0.00000  Uiso   1.00
C556   C     0.53096   0.19411   0.36161   0.00000  Uiso   1.00
Cu557  Cu    0.50000   0.16667   0.54689   0.00000  Uiso   1.00
Cu558  Cu    0.50000   0.16666   0.45311   0.00000  Uiso   1.00
H559   H     0.65964   0.15977   0.44645   0.00000  Uiso   1.00
H560   H     0.33989   0.18092   0.55231   0.00000  Uiso   1.00
H561   H     0.45678   0.03712   0.43034   0.00000  Uiso   1.00
H562   H     0.53911   0.29613   0.57078   0.00000  Uiso   1.00
H563   H     0.45466   0.29517   0.43106   0.00000  Uiso   1.00
H564   H     0.53898   0.03814   0.57099   0.00000  Uiso   1.00
N565   N     0.50001   0.16668   0.61736   0.00000  Uiso   1.00
N566   N     0.49999   0.16666   0.38264   0.00000  Uiso   1.00
O567   O     0.50000   0.10655   0.53958   0.00000  Uiso   1.00
O568   O     0.50000   0.22678   0.46042   0.00000  Uiso   1.00
O569   O     0.50000   0.10654   0.46039   0.00000  Uiso   1.00
O570   O     0.50000   0.22679   0.53961   0.00000  Uiso   1.00
O571   O     0.42495   0.16667   0.53046   0.00000  Uiso   1.00
O572   O     0.57505   0.16666   0.46954   0.00000  Uiso   1.00
O573   O     0.42494   0.16666   0.45127   0.00000  Uiso   1.00
O574   O     0.57506   0.16667   0.54873   0.00000  Uiso   1.00
O575   O     0.44503   0.10796   0.37759   0.00000  Uiso   1.00
H576   H     0.44263   0.08250   0.35850   0.00000  Uiso   1.00
O577   O     0.56901   0.21501   0.62420   0.00000  Uiso   1.00
H578   H     0.59926   0.22095   0.64797   0.00000  Uiso   1.00
O579   O     0.44538   0.10666   0.61121   0.00000  Uiso   1.00
C580   C     0.39125   0.10629   0.61103   0.00000  Uiso   1.00
H581   H     0.37376   0.12259   0.57957   0.00000  Uiso   1.00
H582   H     0.37797   0.12108   0.64209   0.00000  Uiso   1.00
C583   C     0.37034   0.06191   0.60702   0.00000  Uiso   1.00
H584   H     0.38614   0.04357   0.63806   0.00000  Uiso   1.00
H585   H     0.66096   0.06156   0.60477   0.00000  Uiso   1.00
H586   H     0.38115   0.04738   0.57487   0.00000  Uiso   1.00
O587   O     0.56417   0.22043   0.38973   0.00000  Uiso   1.00
C588   C     0.55067   0.26198   0.38029   0.00000  Uiso   1.00
H589   H     0.51011   0.26696   0.38576   0.00000  Uiso   1.00
H590   H     0.55475   0.27146   0.34378   0.00000  Uiso   1.00
C591   C     0.58627   0.29021   0.41290   0.00000  Uiso   1.00
H592   H     0.62647   0.28809   0.40481   0.00000  Uiso   1.00
H593   H     0.57397   0.32269   0.40810   0.00000  Uiso   1.00
H594   H     0.58525   0.28104   0.45003   0.00000  Uiso   1.00
C595   C     0.83290   0.08744   0.50006   0.00000  Uiso   1.00
C596   C     0.83266   0.24588   0.49995   0.00000  Uiso   1.00
C597   C     0.73467   0.16706   0.48802   0.00000  Uiso   1.00
C598   C     0.93193   0.16838   0.51185   0.00000  Uiso   1.00
C599   C     0.67937   0.16650   0.48138   0.00000  Uiso   1.00
C600   C     0.98705   0.17257   0.51782   0.00000  Uiso   1.00
C601   C     0.80852   0.02109   0.46090   0.00000  Uiso   1.00
C602   C     0.85416   0.31219   0.54011   0.00000  Uiso   1.00
C603   C     0.80770   0.31165   0.46113   0.00000  Uiso   1.00
C604   C     0.85417   0.02163   0.54022   0.00000  Uiso   1.00
C605   C     0.83155   0.29050   0.50028   0.00000  Uiso   1.00
C606   C     0.83199   0.04279   0.50034   0.00000  Uiso   1.00
C607   C     0.80448   0.13796   0.35530   0.00000  Uiso   1.00
C608   C     0.86619   0.19244   0.64515   0.00000  Uiso   1.00
C609   C     0.80307   0.13859   0.63832   0.00000  Uiso   1.00
C610   C     0.86429   0.19411   0.36161   0.00000  Uiso   1.00
Cu611  Cu    0.83333   0.16667   0.54689   0.00000  Uiso   1.00
Cu612  Cu    0.83333   0.16666   0.45311   0.00000  Uiso   1.00
H613   H     0.99297   0.15977   0.44645   0.00000  Uiso   1.00
H614   H     0.67322   0.18092   0.55231   0.00000  Uiso   1.00
H615   H     0.79011   0.03712   0.43034   0.00000  Uiso   1.00
H616   H     0.87245   0.29613   0.57078   0.00000  Uiso   1.00
H617   H     0.78799   0.29517   0.43106   0.00000  Uiso   1.00
H618   H     0.87232   0.03814   0.57099   0.00000  Uiso   1.00
N619   N     0.83335   0.16668   0.61736   0.00000  Uiso   1.00
N620   N     0.83332   0.16666   0.38264   0.00000  Uiso   1.00
O621   O     0.83333   0.10655   0.53958   0.00000  Uiso   1.00
O622   O     0.83334   0.22678   0.46042   0.00000  Uiso   1.00
O623   O     0.83333   0.10654   0.46039   0.00000  Uiso   1.00
O624   O     0.83334   0.22679   0.53961   0.00000  Uiso   1.00
O625   O     0.75828   0.16667   0.53046   0.00000  Uiso   1.00
O626   O     0.90839   0.16666   0.46954   0.00000  Uiso   1.00
O627   O     0.75828   0.16666   0.45127   0.00000  Uiso   1.00
O628   O     0.90839   0.16667   0.54873   0.00000  Uiso   1.00
O629   O     0.77836   0.10796   0.37759   0.00000  Uiso   1.00
H630   H     0.77597   0.08250   0.35850   0.00000  Uiso   1.00
O631   O     0.90234   0.21501   0.62420   0.00000  Uiso   1.00
H632   H     0.93259   0.22095   0.64797   0.00000  Uiso   1.00
O633   O     0.77872   0.10666   0.61121   0.00000  Uiso   1.00
C634   C     0.72458   0.10629   0.61103   0.00000  Uiso   1.00
H635   H     0.70709   0.12259   0.57957   0.00000  Uiso   1.00
H636   H     0.71130   0.12108   0.64209   0.00000  Uiso   1.00
C637   C     0.70367   0.06191   0.60702   0.00000  Uiso   1.00
H638   H     0.71947   0.04357   0.63806   0.00000  Uiso   1.00
H639   H     0.99430   0.06156   0.60477   0.00000  Uiso   1.00
H640   H     0.71448   0.04738   0.57487   0.00000  Uiso   1.00
O641   O     0.89750   0.22043   0.38973   0.00000  Uiso   1.00
C642   C     0.88400   0.26198   0.38029   0.00000  Uiso   1.00
H643   H     0.84344   0.26696   0.38576   0.00000  Uiso   1.00
H644   H     0.88809   0.27146   0.34378   0.00000  Uiso   1.00
C645   C     0.91960   0.29021   0.41290   0.00000  Uiso   1.00
H646   H     0.95981   0.28809   0.40481   0.00000  Uiso   1.00
H647   H     0.90730   0.32269   0.40810   0.00000  Uiso   1.00
H648   H     0.91859   0.28104   0.45003   0.00000  Uiso   1.00
C649   C     0.16624   0.42077   0.50006   0.00000  Uiso   1.00
C650   C     0.16599   0.57922   0.49995   0.00000  Uiso   1.00
C651   C     0.06801   0.50040   0.48802   0.00000  Uiso   1.00
C652   C     0.26526   0.50171   0.51185   0.00000  Uiso   1.00
C653   C     0.01270   0.49983   0.48138   0.00000  Uiso   1.00
C654   C     0.32038   0.50591   0.51782   0.00000  Uiso   1.00
C655   C     0.14186   0.35442   0.46090   0.00000  Uiso   1.00
C656   C     0.18749   0.64553   0.54011   0.00000  Uiso   1.00
C657   C     0.14104   0.64498   0.46113   0.00000  Uiso   1.00
C658   C     0.18750   0.35496   0.54022   0.00000  Uiso   1.00
C659   C     0.16488   0.62383   0.50028   0.00000  Uiso   1.00
C660   C     0.16532   0.37613   0.50034   0.00000  Uiso   1.00
C661   C     0.13781   0.47129   0.35530   0.00000  Uiso   1.00
C662   C     0.19952   0.52578   0.64515   0.00000  Uiso   1.00
C663   C     0.13641   0.47193   0.63832   0.00000  Uiso   1.00
C664   C     0.19763   0.52745   0.36161   0.00000  Uiso   1.00
Cu665  Cu    0.16667   0.50001   0.54689   0.00000  Uiso   1.00
Cu666  Cu    0.16667   0.49999   0.45311   0.00000  Uiso   1.00
H667   H     0.32630   0.49310   0.44645   0.00000  Uiso   1.00
H668   H     0.00656   0.51425   0.55231   0.00000  Uiso   1.00
H669   H     0.12345   0.37045   0.43034   0.00000  Uiso   1.00
H670   H     0.20578   0.62946   0.57078   0.00000  Uiso   1.00
H671   H     0.12132   0.62850   0.43106   0.00000  Uiso   1.00
H672   H     0.20565   0.37147   0.57099   0.00000  Uiso   1.00
N673   N     0.16668   0.50001   0.61736   0.00000  Uiso   1.00
N674   N     0.16665   0.49999   0.38264   0.00000  Uiso   1.00
O675   O     0.16666   0.43989   0.53958   0.00000  Uiso   1.00
O676   O     0.16667   0.56011   0.46042   0.00000  Uiso   1.00
O677   O     0.16666   0.43988   0.46039   0.00000  Uiso   1.00
O678   O     0.16667   0.56012   0.53961   0.00000  Uiso   1.00
O679   O     0.09161   0.50000   0.53046   0.00000  Uiso   1.00
O680   O     0.24172   0.50000   0.46954   0.00000  Uiso   1.00
O681   O     0.09161   0.49999   0.45127   0.00000  Uiso   1.00
O682   O     0.24172   0.50001   0.54873   0.00000  Uiso   1.00
O683   O     0.11169   0.44130   0.37759   0.00000  Uiso   1.00
H684   H     0.10930   0.41583   0.35850   0.00000  Uiso   1.00
O685   O     0.23568   0.54834   0.62420   0.00000  Uiso   1.00
H686   H     0.26592   0.55428   0.64797   0.00000  Uiso   1.00
O687   O     0.11205   0.43999   0.61121   0.00000  Uiso   1.00
C688   C     0.05791   0.43962   0.61103   0.00000  Uiso   1.00
H689   H     0.04043   0.45593   0.57957   0.00000  Uiso   1.00
H690   H     0.04464   0.45441   0.64209   0.00000  Uiso   1.00
C691   C     0.03701   0.39525   0.60702   0.00000  Uiso   1.00
H692   H     0.05280   0.37690   0.63806   0.00000  Uiso   1.00
H693   H     0.32763   0.39489   0.60477   0.00000  Uiso   1.00
H694   H     0.04782   0.38071   0.57487   0.00000  Uiso   1.00
O695   O     0.23083   0.55376   0.38973   0.00000  Uiso   1.00
C696   C     0.21733   0.59531   0.38029   0.00000  Uiso   1.00
H697   H     0.17678   0.60030   0.38576   0.00000  Uiso   1.00
H698   H     0.22142   0.60479   0.34378   0.00000  Uiso   1.00
C699   C     0.25293   0.62354   0.41290   0.00000  Uiso   1.00
H700   H     0.29314   0.62142   0.40481   0.00000  Uiso   1.00
H701   H     0.24064   0.65602   0.40810   0.00000  Uiso   1.00
H702   H     0.25192   0.61438   0.45003   0.00000  Uiso   1.00
C703   C     0.49957   0.42077   0.50006   0.00000  Uiso   1.00
C704   C     0.49933   0.57922   0.49995   0.00000  Uiso   1.00
C705   C     0.40134   0.50040   0.48802   0.00000  Uiso   1.00
C706   C     0.59860   0.50171   0.51185   0.00000  Uiso   1.00
C707   C     0.34603   0.49983   0.48138   0.00000  Uiso   1.00
C708   C     0.65371   0.50591   0.51782   0.00000  Uiso   1.00
C709   C     0.47519   0.35442   0.46090   0.00000  Uiso   1.00
C710   C     0.52083   0.64553   0.54011   0.00000  Uiso   1.00
C711   C     0.47437   0.64498   0.46113   0.00000  Uiso   1.00
C712   C     0.52083   0.35496   0.54022   0.00000  Uiso   1.00
C713   C     0.49822   0.62383   0.50028   0.00000  Uiso   1.00
C714   C     0.49866   0.37613   0.50034   0.00000  Uiso   1.00
C715   C     0.47114   0.47129   0.35530   0.00000  Uiso   1.00
C716   C     0.53285   0.52578   0.64515   0.00000  Uiso   1.00
C717   C     0.46974   0.47193   0.63832   0.00000  Uiso   1.00
C718   C     0.53096   0.52745   0.36161   0.00000  Uiso   1.00
Cu719  Cu    0.50000   0.50001   0.54689   0.00000  Uiso   1.00
Cu720  Cu    0.50000   0.49999   0.45311   0.00000  Uiso   1.00
H721   H     0.65964   0.49310   0.44645   0.00000  Uiso   1.00
H722   H     0.33989   0.51425   0.55231   0.00000  Uiso   1.00
H723   H     0.45678   0.37045   0.43034   0.00000  Uiso   1.00
H724   H     0.53911   0.62946   0.57078   0.00000  Uiso   1.00
H725   H     0.45466   0.62850   0.43106   0.00000  Uiso   1.00
H726   H     0.53898   0.37147   0.57099   0.00000  Uiso   1.00
N727   N     0.50001   0.50001   0.61736   0.00000  Uiso   1.00
N728   N     0.49999   0.49999   0.38264   0.00000  Uiso   1.00
O729   O     0.50000   0.43989   0.53958   0.00000  Uiso   1.00
O730   O     0.50000   0.56011   0.46042   0.00000  Uiso   1.00
O731   O     0.50000   0.43988   0.46039   0.00000  Uiso   1.00
O732   O     0.50000   0.56012   0.53961   0.00000  Uiso   1.00
O733   O     0.42495   0.50000   0.53046   0.00000  Uiso   1.00
O734   O     0.57505   0.50000   0.46954   0.00000  Uiso   1.00
O735   O     0.42494   0.49999   0.45127   0.00000  Uiso   1.00
O736   O     0.57506   0.50001   0.54873   0.00000  Uiso   1.00
O737   O     0.44503   0.44130   0.37759   0.00000  Uiso   1.00
H738   H     0.44263   0.41583   0.35850   0.00000  Uiso   1.00
O739   O     0.56901   0.54834   0.62420   0.00000  Uiso   1.00
H740   H     0.59926   0.55428   0.64797   0.00000  Uiso   1.00
O741   O     0.44538   0.43999   0.61121   0.00000  Uiso   1.00
C742   C     0.39125   0.43962   0.61103   0.00000  Uiso   1.00
H743   H     0.37376   0.45593   0.57957   0.00000  Uiso   1.00
H744   H     0.37797   0.45441   0.64209   0.00000  Uiso   1.00
C745   C     0.37034   0.39525   0.60702   0.00000  Uiso   1.00
H746   H     0.38614   0.37690   0.63806   0.00000  Uiso   1.00
H747   H     0.66096   0.39489   0.60477   0.00000  Uiso   1.00
H748   H     0.38115   0.38071   0.57487   0.00000  Uiso   1.00
O749   O     0.56417   0.55376   0.38973   0.00000  Uiso   1.00
C750   C     0.55067   0.59531   0.38029   0.00000  Uiso   1.00
H751   H     0.51011   0.60030   0.38576   0.00000  Uiso   1.00
H752   H     0.55475   0.60479   0.34378   0.00000  Uiso   1.00
C753   C     0.58627   0.62354   0.41290   0.00000  Uiso   1.00
H754   H     0.62647   0.62142   0.40481   0.00000  Uiso   1.00
H755   H     0.57397   0.65602   0.40810   0.00000  Uiso   1.00
H756   H     0.58525   0.61438   0.45003   0.00000  Uiso   1.00
C757   C     0.83290   0.42077   0.50006   0.00000  Uiso   1.00
C758   C     0.83266   0.57922   0.49995   0.00000  Uiso   1.00
C759   C     0.73467   0.50040   0.48802   0.00000  Uiso   1.00
C760   C     0.93193   0.50171   0.51185   0.00000  Uiso   1.00
C761   C     0.67937   0.49983   0.48138   0.00000  Uiso   1.00
C762   C     0.98705   0.50591   0.51782   0.00000  Uiso   1.00
C763   C     0.80852   0.35442   0.46090   0.00000  Uiso   1.00
C764   C     0.85416   0.64553   0.54011   0.00000  Uiso   1.00
C765   C     0.80770   0.64498   0.46113   0.00000  Uiso   1.00
C766   C     0.85417   0.35496   0.54022   0.00000  Uiso   1.00
C767   C     0.83155   0.62383   0.50028   0.00000  Uiso   1.00
C768   C     0.83199   0.37613   0.50034   0.00000  Uiso   1.00
C769   C     0.80448   0.47129   0.35530   0.00000  Uiso   1.00
C770   C     0.86619   0.52578   0.64515   0.00000  Uiso   1.00
C771   C     0.80307   0.47193   0.63832   0.00000  Uiso   1.00
C772   C     0.86429   0.52745   0.36161   0.00000  Uiso   1.00
Cu773  Cu    0.83333   0.50001   0.54689   0.00000  Uiso   1.00
Cu774  Cu    0.83333   0.49999   0.45311   0.00000  Uiso   1.00
H775   H     0.99297   0.49310   0.44645   0.00000  Uiso   1.00
H776   H     0.67322   0.51425   0.55231   0.00000  Uiso   1.00
H777   H     0.79011   0.37045   0.43034   0.00000  Uiso   1.00
H778   H     0.87245   0.62946   0.57078   0.00000  Uiso   1.00
H779   H     0.78799   0.62850   0.43106   0.00000  Uiso   1.00
H780   H     0.87232   0.37147   0.57099   0.00000  Uiso   1.00
N781   N     0.83335   0.50001   0.61736   0.00000  Uiso   1.00
N782   N     0.83332   0.49999   0.38264   0.00000  Uiso   1.00
O783   O     0.83333   0.43989   0.53958   0.00000  Uiso   1.00
O784   O     0.83334   0.56011   0.46042   0.00000  Uiso   1.00
O785   O     0.83333   0.43988   0.46039   0.00000  Uiso   1.00
O786   O     0.83334   0.56012   0.53961   0.00000  Uiso   1.00
O787   O     0.75828   0.50000   0.53046   0.00000  Uiso   1.00
O788   O     0.90839   0.50000   0.46954   0.00000  Uiso   1.00
O789   O     0.75828   0.49999   0.45127   0.00000  Uiso   1.00
O790   O     0.90839   0.50001   0.54873   0.00000  Uiso   1.00
O791   O     0.77836   0.44130   0.37759   0.00000  Uiso   1.00
H792   H     0.77597   0.41583   0.35850   0.00000  Uiso   1.00
O793   O     0.90234   0.54834   0.62420   0.00000  Uiso   1.00
H794   H     0.93259   0.55428   0.64797   0.00000  Uiso   1.00
O795   O     0.77872   0.43999   0.61121   0.00000  Uiso   1.00
C796   C     0.72458   0.43962   0.61103   0.00000  Uiso   1.00
H797   H     0.70709   0.45593   0.57957   0.00000  Uiso   1.00
H798   H     0.71130   0.45441   0.64209   0.00000  Uiso   1.00
C799   C     0.70367   0.39525   0.60702   0.00000  Uiso   1.00
H800   H     0.71947   0.37690   0.63806   0.00000  Uiso   1.00
H801   H     0.99430   0.39489   0.60477   0.00000  Uiso   1.00
H802   H     0.71448   0.38071   0.57487   0.00000  Uiso   1.00
O803   O     0.89750   0.55376   0.38973   0.00000  Uiso   1.00
C804   C     0.88400   0.59531   0.38029   0.00000  Uiso   1.00
H805   H     0.84344   0.60030   0.38576   0.00000  Uiso   1.00
H806   H     0.88809   0.60479   0.34378   0.00000  Uiso   1.00
C807   C     0.91960   0.62354   0.41290   0.00000  Uiso   1.00
H808   H     0.95981   0.62142   0.40481   0.00000  Uiso   1.00
H809   H     0.90730   0.65602   0.40810   0.00000  Uiso   1.00
H810   H     0.91859   0.61438   0.45003   0.00000  Uiso   1.00
C811   C     0.16624   0.75410   0.50006   0.00000  Uiso   1.00
C812   C     0.16599   0.91255   0.49995   0.00000  Uiso   1.00
C813   C     0.06801   0.83373   0.48802   0.00000  Uiso   1.00
C814   C     0.26526   0.83505   0.51185   0.00000  Uiso   1.00
C815   C     0.01270   0.83317   0.48138   0.00000  Uiso   1.00
C816   C     0.32038   0.83924   0.51782   0.00000  Uiso   1.00
C817   C     0.14186   0.68775   0.46090   0.00000  Uiso   1.00
C818   C     0.18749   0.97886   0.54011   0.00000  Uiso   1.00
C819   C     0.14104   0.97832   0.46113   0.00000  Uiso   1.00
C820   C     0.18750   0.68830   0.54022   0.00000  Uiso   1.00
C821   C     0.16488   0.95717   0.50028   0.00000  Uiso   1.00
C822   C     0.16532   0.70946   0.50034   0.00000  Uiso   1.00
C823   C     0.13781   0.80462   0.35530   0.00000  Uiso   1.00
C824   C     0.19952   0.85911   0.64515   0.00000  Uiso   1.00
C825   C     0.13641   0.80526   0.63832   0.00000  Uiso   1.00
C826   C     0.19763   0.86078   0.36161   0.00000  Uiso   1.00
Cu827  Cu    0.16667   0.83334   0.54689   0.00000  Uiso   1.00
Cu828  Cu    0.16667   0.83333   0.45311   0.00000  Uiso   1.00
H829   H     0.32630   0.82643   0.44645   0.00000  Uiso   1.00
H830   H     0.00656   0.84759   0.55231   0.00000  Uiso   1.00
H831   H     0.12345   0.70379   0.43034   0.00000  Uiso   1.00
H832   H     0.20578   0.96280   0.57078   0.00000  Uiso   1.00
H833   H     0.12132   0.96183   0.43106   0.00000  Uiso   1.00
H834   H     0.20565   0.70480   0.57099   0.00000  Uiso   1.00
N835   N     0.16668   0.83334   0.61736   0.00000  Uiso   1.00
N836   N     0.16665   0.83332   0.38264   0.00000  Uiso   1.00
O837   O     0.16666   0.77322   0.53958   0.00000  Uiso   1.00
O838   O     0.16667   0.89345   0.46042   0.00000  Uiso   1.00
O839   O     0.16666   0.77321   0.46039   0.00000  Uiso   1.00
O840   O     0.16667   0.89346   0.53961   0.00000  Uiso   1.00
O841   O     0.09161   0.83334   0.53046   0.00000  Uiso   1.00
O842   O     0.24172   0.83333   0.46954   0.00000  Uiso   1.00
O843   O     0.09161   0.83333   0.45127   0.00000  Uiso   1.00
O844   O     0.24172   0.83334   0.54873   0.00000  Uiso   1.00
O845   O     0.11169   0.77463   0.37759   0.00000  Uiso   1.00
H846   H     0.10930   0.74917   0.35850   0.00000  Uiso   1.00
O847   O     0.23568   0.88168   0.62420   0.00000  Uiso   1.00
H848   H     0.26592   0.88762   0.64797   0.00000  Uiso   1.00
O849   O     0.11205   0.77333   0.61121   0.00000  Uiso   1.00
C850   C     0.05791   0.77295   0.61103   0.00000  Uiso   1.00
H851   H     0.04043   0.78926   0.57957   0.00000  Uiso   1.00
H852   H     0.04464   0.78775   0.64209   0.00000  Uiso   1.00
C853   C     0.03701   0.72858   0.60702   0.00000  Uiso   1.00
H854   H     0.05280   0.71023   0.63806   0.00000  Uiso   1.00
H855   H     0.32763   0.72823   0.60477   0.00000  Uiso   1.00
H856   H     0.04782   0.71404   0.57487   0.00000  Uiso   1.00
O857   O     0.23083   0.88709   0.38973   0.00000  Uiso   1.00
C858   C     0.21733   0.92865   0.38029   0.00000  Uiso   1.00
H859   H     0.17678   0.93363   0.38576   0.00000  Uiso   1.00
H860   H     0.22142   0.93813   0.34378   0.00000  Uiso   1.00
C861   C     0.25293   0.95688   0.41290   0.00000  Uiso   1.00
H862   H     0.29314   0.95476   0.40481   0.00000  Uiso   1.00
H863   H     0.24064   0.98936   0.40810   0.00000  Uiso   1.00
H864   H     0.25192   0.94771   0.45003   0.00000  Uiso   1.00
C865   C     0.49957   0.75410   0.50006   0.00000  Uiso   1.00
C866   C     0.49933   0.91255   0.49995   0.00000  Uiso   1.00
C867   C     0.40134   0.83373   0.48802   0.00000  Uiso   1.00
C868   C     0.59860   0.83505   0.51185   0.00000  Uiso   1.00
C869   C     0.34603   0.83317   0.48138   0.00000  Uiso   1.00
C870   C     0.65371   0.83924   0.51782   0.00000  Uiso   1.00
C871   C     0.47519   0.68775   0.46090   0.00000  Uiso   1.00
C872   C     0.52083   0.97886   0.54011   0.00000  Uiso   1.00
C873   C     0.47437   0.97832   0.46113   0.00000  Uiso   1.00
C874   C     0.52083   0.68830   0.54022   0.00000  Uiso   1.00
C875   C     0.49822   0.95717   0.50028   0.00000  Uiso   1.00
C876   C     0.49866   0.70946   0.50034   0.00000  Uiso   1.00
C877   C     0.47114   0.80462   0.35530   0.00000  Uiso   1.00
C878   C     0.53285   0.85911   0.64515   0.00000  Uiso   1.00
C879   C     0.46974   0.80526   0.63832   0.00000  Uiso   1.00
C880   C     0.53096   0.86078   0.36161   0.00000  Uiso   1.00
Cu881  Cu    0.50000   0.83334   0.54689   0.00000  Uiso   1.00
Cu882  Cu    0.50000   0.83333   0.45311   0.00000  Uiso   1.00
H883   H     0.65964   0.82643   0.44645   0.00000  Uiso   1.00
H884   H     0.33989   0.84759   0.55231   0.00000  Uiso   1.00
H885   H     0.45678   0.70379   0.43034   0.00000  Uiso   1.00
H886   H     0.53911   0.96280   0.57078   0.00000  Uiso   1.00
H887   H     0.45466   0.96183   0.43106   0.00000  Uiso   1.00
H888   H     0.53898   0.70480   0.57099   0.00000  Uiso   1.00
N889   N     0.50001   0.83334   0.61736   0.00000  Uiso   1.00
N890   N     0.49999   0.83332   0.38264   0.00000  Uiso   1.00
O891   O     0.50000   0.77322   0.53958   0.00000  Uiso   1.00
O892   O     0.50000   0.89345   0.46042   0.00000  Uiso   1.00
O893   O     0.50000   0.77321   0.46039   0.00000  Uiso   1.00
O894   O     0.50000   0.89346   0.53961   0.00000  Uiso   1.00
O895   O     0.42495   0.83334   0.53046   0.00000  Uiso   1.00
O896   O     0.57505   0.83333   0.46954   0.00000  Uiso   1.00
O897   O     0.42494   0.83333   0.45127   0.00000  Uiso   1.00
O898   O     0.57506   0.83334   0.54873   0.00000  Uiso   1.00
O899   O     0.44503   0.77463   0.37759   0.00000  Uiso   1.00
H900   H     0.44263   0.74917   0.35850   0.00000  Uiso   1.00
O901   O     0.56901   0.88168   0.62420   0.00000  Uiso   1.00
H902   H     0.59926   0.88762   0.64797   0.00000  Uiso   1.00
O903   O     0.44538   0.77333   0.61121   0.00000  Uiso   1.00
C904   C     0.39125   0.77295   0.61103   0.00000  Uiso   1.00
H905   H     0.37376   0.78926   0.57957   0.00000  Uiso   1.00
H906   H     0.37797   0.78775   0.64209   0.00000  Uiso   1.00
C907   C     0.37034   0.72858   0.60702   0.00000  Uiso   1.00
H908   H     0.38614   0.71023   0.63806   0.00000  Uiso   1.00
H909   H     0.66096   0.72823   0.60477   0.00000  Uiso   1.00
H910   H     0.38115   0.71404   0.57487   0.00000  Uiso   1.00
O911   O     0.56417   0.88709   0.38973   0.00000  Uiso   1.00
C912   C     0.55067   0.92865   0.38029   0.00000  Uiso   1.00
H913   H     0.51011   0.93363   0.38576   0.00000  Uiso   1.00
H914   H     0.55475   0.93813   0.34378   0.00000  Uiso   1.00
C915   C     0.58627   0.95688   0.41290   0.00000  Uiso   1.00
H916   H     0.62647   0.95476   0.40481   0.00000  Uiso   1.00
H917   H     0.57397   0.98936   0.40810   0.00000  Uiso   1.00
H918   H     0.58525   0.94771   0.45003   0.00000  Uiso   1.00
C919   C     0.83290   0.75410   0.50006   0.00000  Uiso   1.00
C920   C     0.83266   0.91255   0.49995   0.00000  Uiso   1.00
C921   C     0.73467   0.83373   0.48802   0.00000  Uiso   1.00
C922   C     0.93193   0.83505   0.51185   0.00000  Uiso   1.00
C923   C     0.67937   0.83317   0.48138   0.00000  Uiso   1.00
C924   C     0.98705   0.83924   0.51782   0.00000  Uiso   1.00
C925   C     0.80852   0.68775   0.46090   0.00000  Uiso   1.00
C926   C     0.85416   0.97886   0.54011   0.00000  Uiso   1.00
C927   C     0.80770   0.97832   0.46113   0.00000  Uiso   1.00
C928   C     0.85417   0.68830   0.54022   0.00000  Uiso   1.00
C929   C     0.83155   0.95717   0.50028   0.00000  Uiso   1.00
C930   C     0.83199   0.70946   0.50034   0.00000  Uiso   1.00
C931   C     0.80448   0.80462   0.35530   0.00000  Uiso   1.00
C932   C     0.86619   0.85911   0.64515   0.00000  Uiso   1.00
C933   C     0.80307   0.80526   0.63832   0.00000  Uiso   1.00
C934   C     0.86429   0.86078   0.36161   0.00000  Uiso   1.00
Cu935  Cu    0.83333   0.83334   0.54689   0.00000  Uiso   1.00
Cu936  Cu    0.83333   0.83333   0.45311   0.00000  Uiso   1.00
H937   H     0.99297   0.82643   0.44645   0.00000  Uiso   1.00
H938   H     0.67322   0.84759   0.55231   0.00000  Uiso   1.00
H939   H     0.79011   0.70379   0.43034   0.00000  Uiso   1.00
H940   H     0.87245   0.96280   0.57078   0.00000  Uiso   1.00
H941   H     0.78799   0.96183   0.43106   0.00000  Uiso   1.00
H942   H     0.87232   0.70480   0.57099   0.00000  Uiso   1.00
N943   N     0.83335   0.83334   0.61736   0.00000  Uiso   1.00
N944   N     0.83332   0.83332   0.38264   0.00000  Uiso   1.00
O945   O     0.83333   0.77322   0.53958   0.00000  Uiso   1.00
O946   O     0.83334   0.89345   0.46042   0.00000  Uiso   1.00
O947   O     0.83333   0.77321   0.46039   0.00000  Uiso   1.00
O948   O     0.83334   0.89346   0.53961   0.00000  Uiso   1.00
O949   O     0.75828   0.83334   0.53046   0.00000  Uiso   1.00
O950   O     0.90839   0.83333   0.46954   0.00000  Uiso   1.00
O951   O     0.75828   0.83333   0.45127   0.00000  Uiso   1.00
O952   O     0.90839   0.83334   0.54873   0.00000  Uiso   1.00
O953   O     0.77836   0.77463   0.37759   0.00000  Uiso   1.00
H954   H     0.77597   0.74917   0.35850   0.00000  Uiso   1.00
O955   O     0.90234   0.88168   0.62420   0.00000  Uiso   1.00
H956   H     0.93259   0.88762   0.64797   0.00000  Uiso   1.00
O957   O     0.77872   0.77333   0.61121   0.00000  Uiso   1.00
C958   C     0.72458   0.77295   0.61103   0.00000  Uiso   1.00
H959   H     0.70709   0.78926   0.57957   0.00000  Uiso   1.00
H960   H     0.71130   0.78775   0.64209   0.00000  Uiso   1.00
C961   C     0.70367   0.72858   0.60702   0.00000  Uiso   1.00
H962   H     0.71947   0.71023   0.63806   0.00000  Uiso   1.00
H963   H     0.99430   0.72823   0.60477   0.00000  Uiso   1.00
H964   H     0.71448   0.71404   0.57487   0.00000  Uiso   1.00
O965   O     0.89750   0.88709   0.38973   0.00000  Uiso   1.00
C966   C     0.88400   0.92865   0.38029   0.00000  Uiso   1.00
H967   H     0.84344   0.93363   0.38576   0.00000  Uiso   1.00
H968   H     0.88809   0.93813   0.34378   0.00000  Uiso   1.00
C969   C     0.91960   0.95688   0.41290   0.00000  Uiso   1.00
H970   H     0.95981   0.95476   0.40481   0.00000  Uiso   1.00
H971   H     0.90730   0.98936   0.40810   0.00000  Uiso   1.00
H972   H     0.91859   0.94771   0.45003   0.00000  Uiso   1.00
C973   C     0.16624   0.08744   0.83340   0.00000  Uiso   1.00
C974   C     0.16599   0.24588   0.83328   0.00000  Uiso   1.00
C975   C     0.06801   0.16706   0.82135   0.00000  Uiso   1.00
C976   C     0.26526   0.16838   0.84518   0.00000  Uiso   1.00
C977   C     0.01270   0.16650   0.81472   0.00000  Uiso   1.00
C978   C     0.32038   0.17257   0.85115   0.00000  Uiso   1.00
C979   C     0.14186   0.02109   0.79423   0.00000  Uiso   1.00
C980   C     0.18749   0.31219   0.87344   0.00000  Uiso   1.00
C981   C     0.14104   0.31165   0.79446   0.00000  Uiso   1.00
C982   C     0.18750   0.02163   0.87355   0.00000  Uiso   1.00
C983   C     0.16488   0.29050   0.83361   0.00000  Uiso   1.00
C984   C     0.16532   0.04279   0.83367   0.00000  Uiso   1.00
C985   C     0.13781   0.13796   0.68863   0.00000  Uiso   1.00
C986   C     0.19952   0.19244   0.97848   0.00000  Uiso   1.00
C987   C     0.13641   0.13859   0.97165   0.00000  Uiso   1.00
C988   C     0.19763   0.19411   0.69494   0.00000  Uiso   1.00
Cu989  Cu    0.16667   0.16667   0.88022   0.00000  Uiso   1.00
Cu990  Cu    0.16667   0.16666   0.78645   0.00000  Uiso   1.00
H991   H     0.32630   0.15977   0.77978   0.00000  Uiso   1.00
H992   H     0.00656   0.18092   0.88564   0.00000  Uiso   1.00
H993   H     0.12345   0.03712   0.76367   0.00000  Uiso   1.00
H994   H     0.20578   0.29613   0.90411   0.00000  Uiso   1.00
H995   H     0.12132   0.29517   0.76440   0.00000  Uiso   1.00
H996   H     0.20565   0.03814   0.90432   0.00000  Uiso   1.00
N997   N     0.16668   0.16668   0.95069   0.00000  Uiso   1.00
N998   N     0.16665   0.16666   0.71597   0.00000  Uiso   1.00
O999   O     0.16666   0.10655   0.87291   0.00000  Uiso   1.00
O1000  O     0.16667   0.22678   0.79375   0.00000  Uiso   1.00
O1001  O     0.16666   0.10654   0.79372   0.00000  Uiso   1.00
O1002  O     0.16667   0.22679   0.87294   0.00000  Uiso   1.00
O1003  O     0.09161   0.16667   0.86379   0.00000  Uiso   1.00
O1004  O     0.24172   0.16666   0.80288   0.00000  Uiso   1.00
O1005  O     0.09161   0.16666   0.78460   0.00000  Uiso   1.00
O1006  O     0.24172   0.16667   0.88207   0.00000  Uiso   1.00
O1007  O     0.11169   0.10796   0.71093   0.00000  Uiso   1.00
H1008  H     0.10930   0.08250   0.69184   0.00000  Uiso   1.00
O1009  O     0.23568   0.21501   0.95754   0.00000  Uiso   1.00
H1010  H     0.26592   0.22095   0.98130   0.00000  Uiso   1.00
O1011  O     0.11205   0.10666   0.94455   0.00000  Uiso   1.00
C1012  C     0.05791   0.10629   0.94437   0.00000  Uiso   1.00
H1013  H     0.04043   0.12259   0.91291   0.00000  Uiso   1.00
H1014  H     0.04464   0.12108   0.97542   0.00000  Uiso   1.00
C1015  C     0.03701   0.06191   0.94035   0.00000  Uiso   1.00
H1016  H     0.05280   0.04357   0.97139   0.00000  Uiso   1.00
H1017  H     0.32763   0.06156   0.93810   0.00000  Uiso   1.00
H1018  H     0.04782   0.04738   0.90820   0.00000  Uiso   1.00
O1019  O     0.23083   0.22043   0.72307   0.00000  Uiso   1.00
C1020  C     0.21733   0.26198   0.71362   0.00000  Uiso   1.00
H1021  H     0.17678   0.26696   0.71909   0.00000  Uiso   1.00
H1022  H     0.22142   0.27146   0.67711   0.00000  Uiso   1.00
C1023  C     0.25293   0.29021   0.74623   0.00000  Uiso   1.00
H1024  H     0.29314   0.28809   0.73814   0.00000  Uiso   1.00
H1025  H     0.24064   0.32269   0.74144   0.00000  Uiso   1.00
H1026  H     0.25192   0.28104   0.78337   0.00000  Uiso   1.00
C1027  C     0.49957   0.08744   0.83340   0.00000  Uiso   1.00
C1028  C     0.49933   0.24588   0.83328   0.00000  Uiso   1.00
C1029  C     0.40134   0.16706   0.82135   0.00000  Uiso   1.00
C1030  C     0.59860   0.16838   0.84518   0.00000  Uiso   1.00
C1031  C     0.34603   0.16650   0.81472   0.00000  Uiso   1.00
C1032  C     0.65371   0.17257   0.85115   0.00000  Uiso   1.00
C1033  C     0.47519   0.02109   0.79423   0.00000  Uiso   1.00
C1034  C     0.52083   0.31219   0.87344   0.00000  Uiso   1.00
C1035  C     0.47437   0.31165   0.79446   0.00000  Uiso   1.00
C1036  C     0.52083   0.02163   0.87355   0.00000  Uiso   1.00
C1037  C     0.49822   0.29050   0.83361   0.00000  Uiso   1.00
C1038  C     0.49866   0.04279   0.83367   0.00000  Uiso   1.00
C1039  C     0.47114   0.13796   0.68863   0.00000  Uiso   1.00
C1040  C     0.53285   0.19244   0.97848   0.00000  Uiso   1.00
C1041  C     0.46974   0.13859   0.97165   0.00000  Uiso   1.00
C1042  C     0.53096   0.19411   0.69494   0.00000  Uiso   1.00
Cu1043 Cu    0.50000   0.16667   0.88022   0.00000  Uiso   1.00
Cu1044 Cu    0.50000   0.16666   0.78645   0.00000  Uiso   1.00
H1045  H     0.65964   0.15977   0.77978   0.00000  Uiso   1.00
H1046  H     0.33989   0.18092   0.88564   0.00000  Uiso   1.00
H1047  H     0.45678   0.03712   0.76367   0.00000  Uiso   1.00
H1048  H     0.53911   0.29613   0.90411   0.00000  Uiso   1.00
H1049  H     0.45466   0.29517   0.76440   0.00000  Uiso   1.00
H1050  H     0.53898   0.03814   0.90432   0.00000  Uiso   1.00
N1051  N     0.50001   0.16668   0.95069   0.00000  Uiso   1.00
N1052  N     0.49999   0.16666   0.71597   0.00000  Uiso   1.00
O1053  O     0.50000   0.10655   0.87291   0.00000  Uiso   1.00
O1054  O     0.50000   0.22678   0.79375   0.00000  Uiso   1.00
O1055  O     0.50000   0.10654   0.79372   0.00000  Uiso   1.00
O1056  O     0.50000   0.22679   0.87294   0.00000  Uiso   1.00
O1057  O     0.42495   0.16667   0.86379   0.00000  Uiso   1.00
O1058  O     0.57505   0.16666   0.80288   0.00000  Uiso   1.00
O1059  O     0.42494   0.16666   0.78460   0.00000  Uiso   1.00
O1060  O     0.57506   0.16667   0.88207   0.00000  Uiso   1.00
O1061  O     0.44503   0.10796   0.71093   0.00000  Uiso   1.00
H1062  H     0.44263   0.08250   0.69184   0.00000  Uiso   1.00
O1063  O     0.56901   0.21501   0.95754   0.00000  Uiso   1.00
H1064  H     0.59926   0.22095   0.98130   0.00000  Uiso   1.00
O1065  O     0.44538   0.10666   0.94455   0.00000  Uiso   1.00
C1066  C     0.39125   0.10629   0.94437   0.00000  Uiso   1.00
H1067  H     0.37376   0.12259   0.91291   0.00000  Uiso   1.00
H1068  H     0.37797   0.12108   0.97542   0.00000  Uiso   1.00
C1069  C     0.37034   0.06191   0.94035   0.00000  Uiso   1.00
H1070  H     0.38614   0.04357   0.97139   0.00000  Uiso   1.00
H1071  H     0.66096   0.06156   0.93810   0.00000  Uiso   1.00
H1072  H     0.38115   0.04738   0.90820   0.00000  Uiso   1.00
O1073  O     0.56417   0.22043   0.72307   0.00000  Uiso   1.00
C1074  C     0.55067   0.26198   0.71362   0.00000  Uiso   1.00
H1075  H     0.51011   0.26696   0.71909   0.00000  Uiso   1.00
H1076  H     0.55475   0.27146   0.67711   0.00000  Uiso   1.00
C1077  C     0.58627   0.29021   0.74623   0.00000  Uiso   1.00
H1078  H     0.62647   0.28809   0.73814   0.00000  Uiso   1.00
H1079  H     0.57397   0.32269   0.74144   0.00000  Uiso   1.00
H1080  H     0.58525   0.28104   0.78337   0.00000  Uiso   1.00
C1081  C     0.83290   0.08744   0.83340   0.00000  Uiso   1.00
C1082  C     0.83266   0.24588   0.83328   0.00000  Uiso   1.00
C1083  C     0.73467   0.16706   0.82135   0.00000  Uiso   1.00
C1084  C     0.93193   0.16838   0.84518   0.00000  Uiso   1.00
C1085  C     0.67937   0.16650   0.81472   0.00000  Uiso   1.00
C1086  C     0.98705   0.17257   0.85115   0.00000  Uiso   1.00
C1087  C     0.80852   0.02109   0.79423   0.00000  Uiso   1.00
C1088  C     0.85416   0.31219   0.87344   0.00000  Uiso   1.00
C1089  C     0.80770   0.31165   0.79446   0.00000  Uiso   1.00
C1090  C     0.85417   0.02163   0.87355   0.00000  Uiso   1.00
C1091  C     0.83155   0.29050   0.83361   0.00000  Uiso   1.00
C1092  C     0.83199   0.04279   0.83367   0.00000  Uiso   1.00
C1093  C     0.80448   0.13796   0.68863   0.00000  Uiso   1.00
C1094  C     0.86619   0.19244   0.97848   0.00000  Uiso   1.00
C1095  C     0.80307   0.13859   0.97165   0.00000  Uiso   1.00
C1096  C     0.86429   0.19411   0.69494   0.00000  Uiso   1.00
Cu1097 Cu    0.83333   0.16667   0.88022   0.00000  Uiso   1.00
Cu1098 Cu    0.83333   0.16666   0.78645   0.00000  Uiso   1.00
H1099  H     0.99297   0.15977   0.77978   0.00000  Uiso   1.00
H1100  H     0.67322   0.18092   0.88564   0.00000  Uiso   1.00
H1101  H     0.79011   0.03712   0.76367   0.00000  Uiso   1.00
H1102  H     0.87245   0.29613   0.90411   0.00000  Uiso   1.00
H1103  H     0.78799   0.29517   0.76440   0.00000  Uiso   1.00
H1104  H     0.87232   0.03814   0.90432   0.00000  Uiso   1.00
N1105  N     0.83335   0.16668   0.95069   0.00000  Uiso   1.00
N1106  N     0.83332   0.16666   0.71597   0.00000  Uiso   1.00
O1107  O     0.83333   0.10655   0.87291   0.00000  Uiso   1.00
O1108  O     0.83334   0.22678   0.79375   0.00000  Uiso   1.00
O1109  O     0.83333   0.10654   0.79372   0.00000  Uiso   1.00
O1110  O     0.83334   0.22679   0.87294   0.00000  Uiso   1.00
O1111  O     0.75828   0.16667   0.86379   0.00000  Uiso   1.00
O1112  O     0.90839   0.16666   0.80288   0.00000  Uiso   1.00
O1113  O     0.75828   0.16666   0.78460   0.00000  Uiso   1.00
O1114  O     0.90839   0.16667   0.88207   0.00000  Uiso   1.00
O1115  O     0.77836   0.10796   0.71093   0.00000  Uiso   1.00
H1116  H     0.77597   0.08250   0.69184   0.00000  Uiso   1.00
O1117  O     0.90234   0.21501   0.95754   0.00000  Uiso   1.00
H1118  H     0.93259   0.22095   0.98130   0.00000  Uiso   1.00
O1119  O     0.77872   0.10666   0.94455   0.00000  Uiso   1.00
C1120  C     0.72458   0.10629   0.94437   0.00000  Uiso   1.00
H1121  H     0.70709   0.12259   0.91291   0.00000  Uiso   1.00
H1122  H     0.71130   0.12108   0.97542   0.00000  Uiso   1.00
C1123  C     0.70367   0.06191   0.94035   0.00000  Uiso   1.00
H1124  H     0.71947   0.04357   0.97139   0.00000  Uiso   1.00
H1125  H     0.99430   0.06156   0.93810   0.00000  Uiso   1.00
H1126  H     0.71448   0.04738   0.90820   0.00000  Uiso   1.00
O1127  O     0.89750   0.22043   0.72307   0.00000  Uiso   1.00
C1128  C     0.88400   0.26198   0.71362   0.00000  Uiso   1.00
H1129  H     0.84344   0.26696   0.71909   0.00000  Uiso   1.00
H1130  H     0.88809   0.27146   0.67711   0.00000  Uiso   1.00
C1131  C     0.91960   0.29021   0.74623   0.00000  Uiso   1.00
H1132  H     0.95981   0.28809   0.73814   0.00000  Uiso   1.00
H1133  H     0.90730   0.32269   0.74144   0.00000  Uiso   1.00
H1134  H     0.91859   0.28104   0.78337   0.00000  Uiso   1.00
C1135  C     0.16624   0.42077   0.83340   0.00000  Uiso   1.00
C1136  C     0.16599   0.57922   0.83328   0.00000  Uiso   1.00
C1137  C     0.06801   0.50040   0.82135   0.00000  Uiso   1.00
C1138  C     0.26526   0.50171   0.84518   0.00000  Uiso   1.00
C1139  C     0.01270   0.49983   0.81472   0.00000  Uiso   1.00
C1140  C     0.32038   0.50591   0.85115   0.00000  Uiso   1.00
C1141  C     0.14186   0.35442   0.79423   0.00000  Uiso   1.00
C1142  C     0.18749   0.64553   0.87344   0.00000  Uiso   1.00
C1143  C     0.14104   0.64498   0.79446   0.00000  Uiso   1.00
C1144  C     0.18750   0.35496   0.87355   0.00000  Uiso   1.00
C1145  C     0.16488   0.62383   0.83361   0.00000  Uiso   1.00
C1146  C     0.16532   0.37613   0.83367   0.00000  Uiso   1.00
C1147  C     0.13781   0.47129   0.68863   0.00000  Uiso   1.00
C1148  C     0.19952   0.52578   0.97848   0.00000  Uiso   1.00
C1149  C     0.13641   0.47193   0.97165   0.00000  Uiso   1.00
C1150  C     0.19763   0.52745   0.69494   0.00000  Uiso   1.00
Cu1151 Cu    0.16667   0.50001   0.88022   0.00000  Uiso   1.00
Cu1152 Cu    0.16667   0.49999   0.78645   0.00000  Uiso   1.00
H1153  H     0.32630   0.49310   0.77978   0.00000  Uiso   1.00
H1154  H     0.00656   0.51425   0.88564   0.00000  Uiso   1.00
H1155  H     0.12345   0.37045   0.76367   0.00000  Uiso   1.00
H1156  H     0.20578   0.62946   0.90411   0.00000  Uiso   1.00
H1157  H     0.12132   0.62850   0.76440   0.00000  Uiso   1.00
H1158  H     0.20565   0.37147   0.90432   0.00000  Uiso   1.00
N1159  N     0.16668   0.50001   0.95069   0.00000  Uiso   1.00
N1160  N     0.16665   0.49999   0.71597   0.00000  Uiso   1.00
O1161  O     0.16666   0.43989   0.87291   0.00000  Uiso   1.00
O1162  O     0.16667   0.56011   0.79375   0.00000  Uiso   1.00
O1163  O     0.16666   0.43988   0.79372   0.00000  Uiso   1.00
O1164  O     0.16667   0.56012   0.87294   0.00000  Uiso   1.00
O1165  O     0.09161   0.50000   0.86379   0.00000  Uiso   1.00
O1166  O     0.24172   0.50000   0.80288   0.00000  Uiso   1.00
O1167  O     0.09161   0.49999   0.78460   0.00000  Uiso   1.00
O1168  O     0.24172   0.50001   0.88207   0.00000  Uiso   1.00
O1169  O     0.11169   0.44130   0.71093   0.00000  Uiso   1.00
H1170  H     0.10930   0.41583   0.69184   0.00000  Uiso   1.00
O1171  O     0.23568   0.54834   0.95754   0.00000  Uiso   1.00
H1172  H     0.26592   0.55428   0.98130   0.00000  Uiso   1.00
O1173  O     0.11205   0.43999   0.94455   0.00000  Uiso   1.00
C1174  C     0.05791   0.43962   0.94437   0.00000  Uiso   1.00
H1175  H     0.04043   0.45593   0.91291   0.00000  Uiso   1.00
H1176  H     0.04464   0.45441   0.97542   0.00000  Uiso   1.00
C1177  C     0.03701   0.39525   0.94035   0.00000  Uiso   1.00
H1178  H     0.05280   0.37690   0.97139   0.00000  Uiso   1.00
H1179  H     0.32763   0.39489   0.93810   0.00000  Uiso   1.00
H1180  H     0.04782   0.38071   0.90820   0.00000  Uiso   1.00
O1181  O     0.23083   0.55376   0.72307   0.00000  Uiso   1.00
C1182  C     0.21733   0.59531   0.71362   0.00000  Uiso   1.00
H1183  H     0.17678   0.60030   0.71909   0.00000  Uiso   1.00
H1184  H     0.22142   0.60479   0.67711   0.00000  Uiso   1.00
C1185  C     0.25293   0.62354   0.74623   0.00000  Uiso   1.00
H1186  H     0.29314   0.62142   0.73814   0.00000  Uiso   1.00
H1187  H     0.24064   0.65602   0.74144   0.00000  Uiso   1.00
H1188  H     0.25192   0.61438   0.78337   0.00000  Uiso   1.00
C1189  C     0.49957   0.42077   0.83340   0.00000  Uiso   1.00
C1190  C     0.49933   0.57922   0.83328   0.00000  Uiso   1.00
C1191  C     0.40134   0.50040   0.82135   0.00000  Uiso   1.00
C1192  C     0.59860   0.50171   0.84518   0.00000  Uiso   1.00
C1193  C     0.34603   0.49983   0.81472   0.00000  Uiso   1.00
C1194  C     0.65371   0.50591   0.85115   0.00000  Uiso   1.00
C1195  C     0.47519   0.35442   0.79423   0.00000  Uiso   1.00
C1196  C     0.52083   0.64553   0.87344   0.00000  Uiso   1.00
C1197  C     0.47437   0.64498   0.79446   0.00000  Uiso   1.00
C1198  C     0.52083   0.35496   0.87355   0.00000  Uiso   1.00
C1199  C     0.49822   0.62383   0.83361   0.00000  Uiso   1.00
C1200  C     0.49866   0.37613   0.83367   0.00000  Uiso   1.00
C1201  C     0.47114   0.47129   0.68863   0.00000  Uiso   1.00
C1202  C     0.53285   0.52578   0.97848   0.00000  Uiso   1.00
C1203  C     0.46974   0.47193   0.97165   0.00000  Uiso   1.00
C1204  C     0.53096   0.52745   0.69494   0.00000  Uiso   1.00
Cu1205 Cu    0.50000   0.50001   0.88022   0.00000  Uiso   1.00
Cu1206 Cu    0.50000   0.49999   0.78645   0.00000  Uiso   1.00
H1207  H     0.65964   0.49310   0.77978   0.00000  Uiso   1.00
H1208  H     0.33989   0.51425   0.88564   0.00000  Uiso   1.00
H1209  H     0.45678   0.37045   0.76367   0.00000  Uiso   1.00
H1210  H     0.53911   0.62946   0.90411   0.00000  Uiso   1.00
H1211  H     0.45466   0.62850   0.76440   0.00000  Uiso   1.00
H1212  H     0.53898   0.37147   0.90432   0.00000  Uiso   1.00
N1213  N     0.50001   0.50001   0.95069   0.00000  Uiso   1.00
N1214  N     0.49999   0.49999   0.71597   0.00000  Uiso   1.00
O1215  O     0.50000   0.43989   0.87291   0.00000  Uiso   1.00
O1216  O     0.50000   0.56011   0.79375   0.00000  Uiso   1.00
O1217  O     0.50000   0.43988   0.79372   0.00000  Uiso   1.00
O1218  O     0.50000   0.56012   0.87294   0.00000  Uiso   1.00
O1219  O     0.42495   0.50000   0.86379   0.00000  Uiso   1.00
O1220  O     0.57505   0.50000   0.80288   0.00000  Uiso   1.00
O1221  O     0.42494   0.49999   0.78460   0.00000  Uiso   1.00
O1222  O     0.57506   0.50001   0.88207   0.00000  Uiso   1.00
O1223  O     0.44503   0.44130   0.71093   0.00000  Uiso   1.00
H1224  H     0.44263   0.41583   0.69184   0.00000  Uiso   1.00
O1225  O     0.56901   0.54834   0.95754   0.00000  Uiso   1.00
H1226  H     0.59926   0.55428   0.98130   0.00000  Uiso   1.00
O1227  O     0.44538   0.43999   0.94455   0.00000  Uiso   1.00
C1228  C     0.39125   0.43962   0.94437   0.00000  Uiso   1.00
H1229  H     0.37376   0.45593   0.91291   0.00000  Uiso   1.00
H1230  H     0.37797   0.45441   0.97542   0.00000  Uiso   1.00
C1231  C     0.37034   0.39525   0.94035   0.00000  Uiso   1.00
H1232  H     0.38614   0.37690   0.97139   0.00000  Uiso   1.00
H1233  H     0.66096   0.39489   0.93810   0.00000  Uiso   1.00
H1234  H     0.38115   0.38071   0.90820   0.00000  Uiso   1.00
O1235  O     0.56417   0.55376   0.72307   0.00000  Uiso   1.00
C1236  C     0.55067   0.59531   0.71362   0.00000  Uiso   1.00
H1237  H     0.51011   0.60030   0.71909   0.00000  Uiso   1.00
H1238  H     0.55475   0.60479   0.67711   0.00000  Uiso   1.00
C1239  C     0.58627   0.62354   0.74623   0.00000  Uiso   1.00
H1240  H     0.62647   0.62142   0.73814   0.00000  Uiso   1.00
H1241  H     0.57397   0.65602   0.74144   0.00000  Uiso   1.00
H1242  H     0.58525   0.61438   0.78337   0.00000  Uiso   1.00
C1243  C     0.83290   0.42077   0.83340   0.00000  Uiso   1.00
C1244  C     0.83266   0.57922   0.83328   0.00000  Uiso   1.00
C1245  C     0.73467   0.50040   0.82135   0.00000  Uiso   1.00
C1246  C     0.93193   0.50171   0.84518   0.00000  Uiso   1.00
C1247  C     0.67937   0.49983   0.81472   0.00000  Uiso   1.00
C1248  C     0.98705   0.50591   0.85115   0.00000  Uiso   1.00
C1249  C     0.80852   0.35442   0.79423   0.00000  Uiso   1.00
C1250  C     0.85416   0.64553   0.87344   0.00000  Uiso   1.00
C1251  C     0.80770   0.64498   0.79446   0.00000  Uiso   1.00
C1252  C     0.85417   0.35496   0.87355   0.00000  Uiso   1.00
C1253  C     0.83155   0.62383   0.83361   0.00000  Uiso   1.00
C1254  C     0.83199   0.37613   0.83367   0.00000  Uiso   1.00
C1255  C     0.80448   0.47129   0.68863   0.00000  Uiso   1.00
C1256  C     0.86619   0.52578   0.97848   0.00000  Uiso   1.00
C1257  C     0.80307   0.47193   0.97165   0.00000  Uiso   1.00
C1258  C     0.86429   0.52745   0.69494   0.00000  Uiso   1.00
Cu1259 Cu    0.83333   0.50001   0.88022   0.00000  Uiso   1.00
Cu1260 Cu    0.83333   0.49999   0.78645   0.00000  Uiso   1.00
H1261  H     0.99297   0.49310   0.77978   0.00000  Uiso   1.00
H1262  H     0.67322   0.51425   0.88564   0.00000  Uiso   1.00
H1263  H     0.79011   0.37045   0.76367   0.00000  Uiso   1.00
H1264  H     0.87245   0.62946   0.90411   0.00000  Uiso   1.00
H1265  H     0.78799   0.62850   0.76440   0.00000  Uiso   1.00
H1266  H     0.87232   0.37147   0.90432   0.00000  Uiso   1.00
N1267  N     0.83335   0.50001   0.95069   0.00000  Uiso   1.00
N1268  N     0.83332   0.49999   0.71597   0.00000  Uiso   1.00
O1269  O     0.83333   0.43989   0.87291   0.00000  Uiso   1.00
O1270  O     0.83334   0.56011   0.79375   0.00000  Uiso   1.00
O1271  O     0.83333   0.43988   0.79372   0.00000  Uiso   1.00
O1272  O     0.83334   0.56012   0.87294   0.00000  Uiso   1.00
O1273  O     0.75828   0.50000   0.86379   0.00000  Uiso   1.00
O1274  O     0.90839   0.50000   0.80288   0.00000  Uiso   1.00
O1275  O     0.75828   0.49999   0.78460   0.00000  Uiso   1.00
O1276  O     0.90839   0.50001   0.88207   0.00000  Uiso   1.00
O1277  O     0.77836   0.44130   0.71093   0.00000  Uiso   1.00
H1278  H     0.77597   0.41583   0.69184   0.00000  Uiso   1.00
O1279  O     0.90234   0.54834   0.95754   0.00000  Uiso   1.00
H1280  H     0.93259   0.55428   0.98130   0.00000  Uiso   1.00
O1281  O     0.77872   0.43999   0.94455   0.00000  Uiso   1.00
C1282  C     0.72458   0.43962   0.94437   0.00000  Uiso   1.00
H1283  H     0.70709   0.45593   0.91291   0.00000  Uiso   1.00
H1284  H     0.71130   0.45441   0.97542   0.00000  Uiso   1.00
C1285  C     0.70367   0.39525   0.94035   0.00000  Uiso   1.00
H1286  H     0.71947   0.37690   0.97139   0.00000  Uiso   1.00
H1287  H     0.99430   0.39489   0.93810   0.00000  Uiso   1.00
H1288  H     0.71448   0.38071   0.90820   0.00000  Uiso   1.00
O1289  O     0.89750   0.55376   0.72307   0.00000  Uiso   1.00
C1290  C     0.88400   0.59531   0.71362   0.00000  Uiso   1.00
H1291  H     0.84344   0.60030   0.71909   0.00000  Uiso   1.00
H1292  H     0.88809   0.60479   0.67711   0.00000  Uiso   1.00
C1293  C     0.91960   0.62354   0.74623   0.00000  Uiso   1.00
H1294  H     0.95981   0.62142   0.73814   0.00000  Uiso   1.00
H1295  H     0.90730   0.65602   0.74144   0.00000  Uiso   1.00
H1296  H     0.91859   0.61438   0.78337   0.00000  Uiso   1.00
C1297  C     0.16624   0.75410   0.83340   0.00000  Uiso   1.00
C1298  C     0.16599   0.91255   0.83328   0.00000  Uiso   1.00
C1299  C     0.06801   0.83373   0.82135   0.00000  Uiso   1.00
C1300  C     0.26526   0.83505   0.84518   0.00000  Uiso   1.00
C1301  C     0.01270   0.83317   0.81472   0.00000  Uiso   1.00
C1302  C     0.32038   0.83924   0.85115   0.00000  Uiso   1.00
C1303  C     0.14186   0.68775   0.79423   0.00000  Uiso   1.00
C1304  C     0.18749   0.97886   0.87344   0.00000  Uiso   1.00
C1305  C     0.14104   0.97832   0.79446   0.00000  Uiso   1.00
C1306  C     0.18750   0.68830   0.87355   0.00000  Uiso   1.00
C1307  C     0.16488   0.95717   0.83361   0.00000  Uiso   1.00
C1308  C     0.16532   0.70946   0.83367   0.00000  Uiso   1.00
C1309  C     0.13781   0.80462   0.68863   0.00000  Uiso   1.00
C1310  C     0.19952   0.85911   0.97848   0.00000  Uiso   1.00
C1311  C     0.13641   0.80526   0.97165   0.00000  Uiso   1.00
C1312  C     0.19763   0.86078   0.69494   0.00000  Uiso   1.00
Cu1313 Cu    0.16667   0.83334   0.88022   0.00000  Uiso   1.00
Cu1314 Cu    0.16667   0.83333   0.78645   0.00000  Uiso   1.00
H1315  H     0.32630   0.82643   0.77978   0.00000  Uiso   1.00
H1316  H     0.00656   0.84759   0.88564   0.00000  Uiso   1.00
H1317  H     0.12345   0.70379   0.76367   0.00000  Uiso   1.00
H1318  H     0.20578   0.96280   0.90411   0.00000  Uiso   1.00
H1319  H     0.12132   0.96183   0.76440   0.00000  Uiso   1.00
H1320  H     0.20565   0.70480   0.90432   0.00000  Uiso   1.00
N1321  N     0.16668   0.83334   0.95069   0.00000  Uiso   1.00
N1322  N     0.16665   0.83332   0.71597   0.00000  Uiso   1.00
O1323  O     0.16666   0.77322   0.87291   0.00000  Uiso   1.00
O1324  O     0.16667   0.89345   0.79375   0.00000  Uiso   1.00
O1325  O     0.16666   0.77321   0.79372   0.00000  Uiso   1.00
O1326  O     0.16667   0.89346   0.87294   0.00000  Uiso   1.00
O1327  O     0.09161   0.83334   0.86379   0.00000  Uiso   1.00
O1328  O     0.24172   0.83333   0.80288   0.00000  Uiso   1.00
O1329  O     0.09161   0.83333   0.78460   0.00000  Uiso   1.00
O1330  O     0.24172   0.83334   0.88207   0.00000  Uiso   1.00
O1331  O     0.11169   0.77463   0.71093   0.00000  Uiso   1.00
H1332  H     0.10930   0.74917   0.69184   0.00000  Uiso   1.00
O1333  O     0.23568   0.88168   0.95754   0.00000  Uiso   1.00
H1334  H     0.26592   0.88762   0.98130   0.00000  Uiso   1.00
O1335  O     0.11205   0.77333   0.94455   0.00000  Uiso   1.00
C1336  C     0.05791   0.77295   0.94437   0.00000  Uiso   1.00
H1337  H     0.04043   0.78926   0.91291   0.00000  Uiso   1.00
H1338  H     0.04464   0.78775   0.97542   0.00000  Uiso   1.00
C1339  C     0.03701   0.72858   0.94035   0.00000  Uiso   1.00
H1340  H     0.05280   0.71023   0.97139   0.00000  Uiso   1.00
H1341  H     0.32763   0.72823   0.93810   0.00000  Uiso   1.00
H1342  H     0.04782   0.71404   0.90820   0.00000  Uiso   1.00
O1343  O     0.23083   0.88709   0.72307   0.00000  Uiso   1.00
C1344  C     0.21733   0.92865   0.71362   0.00000  Uiso   1.00
H1345  H     0.17678   0.93363   0.71909   0.00000  Uiso   1.00
H1346  H     0.22142   0.93813   0.67711   0.00000  Uiso   1.00
C1347  C     0.25293   0.95688   0.74623   0.00000  Uiso   1.00
H1348  H     0.29314   0.95476   0.73814   0.00000  Uiso   1.00
H1349  H     0.24064   0.98936   0.74144   0.00000  Uiso   1.00
H1350  H     0.25192   0.94771   0.78337   0.00000  Uiso   1.00
C1351  C     0.49957   0.75410   0.83340   0.00000  Uiso   1.00
C1352  C     0.49933   0.91255   0.83328   0.00000  Uiso   1.00
C1353  C     0.40134   0.83373   0.82135   0.00000  Uiso   1.00
C1354  C     0.59860   0.83505   0.84518   0.00000  Uiso   1.00
C1355  C     0.34603   0.83317   0.81472   0.00000  Uiso   1.00
C1356  C     0.65371   0.83924   0.85115   0.00000  Uiso   1.00
C1357  C     0.47519   0.68775   0.79423   0.00000  Uiso   1.00
C1358  C     0.52083   0.97886   0.87344   0.00000  Uiso   1.00
C1359  C     0.47437   0.97832   0.79446   0.00000  Uiso   1.00
C1360  C     0.52083   0.68830   0.87355   0.00000  Uiso   1.00
C1361  C     0.49822   0.95717   0.83361   0.00000  Uiso   1.00
C1362  C     0.49866   0.70946   0.83367   0.00000  Uiso   1.00
C1363  C     0.47114   0.80462   0.68863   0.00000  Uiso   1.00
C1364  C     0.53285   0.85911   0.97848   0.00000  Uiso   1.00
C1365  C     0.46974   0.80526   0.97165   0.00000  Uiso   1.00
C1366  C     0.53096   0.86078   0.69494   0.00000  Uiso   1.00
Cu1367 Cu    0.50000   0.83334   0.88022   0.00000  Uiso   1.00
Cu1368 Cu    0.50000   0.83333   0.78645   0.00000  Uiso   1.00
H1369  H     0.65964   0.82643   0.77978   0.00000  Uiso   1.00
H1370  H     0.33989   0.84759   0.88564   0.00000  Uiso   1.00
H1371  H     0.45678   0.70379   0.76367   0.00000  Uiso   1.00
H1372  H     0.53911   0.96280   0.90411   0.00000  Uiso   1.00
H1373  H     0.45466   0.96183   0.76440   0.00000  Uiso   1.00
H1374  H     0.53898   0.70480   0.90432   0.00000  Uiso   1.00
N1375  N     0.50001   0.83334   0.95069   0.00000  Uiso   1.00
N1376  N     0.49999   0.83332   0.71597   0.00000  Uiso   1.00
O1377  O     0.50000   0.77322   0.87291   0.00000  Uiso   1.00
O1378  O     0.50000   0.89345   0.79375   0.00000  Uiso   1.00
O1379  O     0.50000   0.77321   0.79372   0.00000  Uiso   1.00
O1380  O     0.50000   0.89346   0.87294   0.00000  Uiso   1.00
O1381  O     0.42495   0.83334   0.86379   0.00000  Uiso   1.00
O1382  O     0.57505   0.83333   0.80288   0.00000  Uiso   1.00
O1383  O     0.42494   0.83333   0.78460   0.00000  Uiso   1.00
O1384  O     0.57506   0.83334   0.88207   0.00000  Uiso   1.00
O1385  O     0.44503   0.77463   0.71093   0.00000  Uiso   1.00
H1386  H     0.44263   0.74917   0.69184   0.00000  Uiso   1.00
O1387  O     0.56901   0.88168   0.95754   0.00000  Uiso   1.00
H1388  H     0.59926   0.88762   0.98130   0.00000  Uiso   1.00
O1389  O     0.44538   0.77333   0.94455   0.00000  Uiso   1.00
C1390  C     0.39125   0.77295   0.94437   0.00000  Uiso   1.00
H1391  H     0.37376   0.78926   0.91291   0.00000  Uiso   1.00
H1392  H     0.37797   0.78775   0.97542   0.00000  Uiso   1.00
C1393  C     0.37034   0.72858   0.94035   0.00000  Uiso   1.00
H1394  H     0.38614   0.71023   0.97139   0.00000  Uiso   1.00
H1395  H     0.66096   0.72823   0.93810   0.00000  Uiso   1.00
H1396  H     0.38115   0.71404   0.90820   0.00000  Uiso   1.00
O1397  O     0.56417   0.88709   0.72307   0.00000  Uiso   1.00
C1398  C     0.55067   0.92865   0.71362   0.00000  Uiso   1.00
H1399  H     0.51011   0.93363   0.71909   0.00000  Uiso   1.00
H1400  H     0.55475   0.93813   0.67711   0.00000  Uiso   1.00
C1401  C     0.58627   0.95688   0.74623   0.00000  Uiso   1.00
H1402  H     0.62647   0.95476   0.73814   0.00000  Uiso   1.00
H1403  H     0.57397   0.98936   0.74144   0.00000  Uiso   1.00
H1404  H     0.58525   0.94771   0.78337   0.00000  Uiso   1.00
C1405  C     0.83290   0.75410   0.83340   0.00000  Uiso   1.00
C1406  C     0.83266   0.91255   0.83328   0.00000  Uiso   1.00
C1407  C     0.73467   0.83373   0.82135   0.00000  Uiso   1.00
C1408  C     0.93193   0.83505   0.84518   0.00000  Uiso   1.00
C1409  C     0.67937   0.83317   0.81472   0.00000  Uiso   1.00
C1410  C     0.98705   0.83924   0.85115   0.00000  Uiso   1.00
C1411  C     0.80852   0.68775   0.79423   0.00000  Uiso   1.00
C1412  C     0.85416   0.97886   0.87344   0.00000  Uiso   1.00
C1413  C     0.80770   0.97832   0.79446   0.00000  Uiso   1.00
C1414  C     0.85417   0.68830   0.87355   0.00000  Uiso   1.00
C1415  C     0.83155   0.95717   0.83361   0.00000  Uiso   1.00
C1416  C     0.83199   0.70946   0.83367   0.00000  Uiso   1.00
C1417  C     0.80448   0.80462   0.68863   0.00000  Uiso   1.00
C1418  C     0.86619   0.85911   0.97848   0.00000  Uiso   1.00
C1419  C     0.80307   0.80526   0.97165   0.00000  Uiso   1.00
C1420  C     0.86429   0.86078   0.69494   0.00000  Uiso   1.00
Cu1421 Cu    0.83333   0.83334   0.88022   0.00000  Uiso   1.00
Cu1422 Cu    0.83333   0.83333   0.78645   0.00000  Uiso   1.00
H1423  H     0.99297   0.82643   0.77978   0.00000  Uiso   1.00
H1424  H     0.67322   0.84759   0.88564   0.00000  Uiso   1.00
H1425  H     0.79011   0.70379   0.76367   0.00000  Uiso   1.00
H1426  H     0.87245   0.96280   0.90411   0.00000  Uiso   1.00
H1427  H     0.78799   0.96183   0.76440   0.00000  Uiso   1.00
H1428  H     0.87232   0.70480   0.90432   0.00000  Uiso   1.00
N1429  N     0.83335   0.83334   0.95069   0.00000  Uiso   1.00
N1430  N     0.83332   0.83332   0.71597   0.00000  Uiso   1.00
O1431  O     0.83333   0.77322   0.87291   0.00000  Uiso   1.00
O1432  O     0.83334   0.89345   0.79375   0.00000  Uiso   1.00
O1433  O     0.83333   0.77321   0.79372   0.00000  Uiso   1.00
O1434  O     0.83334   0.89346   0.87294   0.00000  Uiso   1.00
O1435  O     0.75828   0.83334   0.86379   0.00000  Uiso   1.00
O1436  O     0.90839   0.83333   0.80288   0.00000  Uiso   1.00
O1437  O     0.75828   0.83333   0.78460   0.00000  Uiso   1.00
O1438  O     0.90839   0.83334   0.88207   0.00000  Uiso   1.00
O1439  O     0.77836   0.77463   0.71093   0.00000  Uiso   1.00
H1440  H     0.77597   0.74917   0.69184   0.00000  Uiso   1.00
O1441  O     0.90234   0.88168   0.95754   0.00000  Uiso   1.00
H1442  H     0.93259   0.88762   0.98130   0.00000  Uiso   1.00
O1443  O     0.77872   0.77333   0.94455   0.00000  Uiso   1.00
C1444  C     0.72458   0.77295   0.94437   0.00000  Uiso   1.00
H1445  H     0.70709   0.78926   0.91291   0.00000  Uiso   1.00
H1446  H     0.71130   0.78775   0.97542   0.00000  Uiso   1.00
C1447  C     0.70367   0.72858   0.94035   0.00000  Uiso   1.00
H1448  H     0.71947   0.71023   0.97139   0.00000  Uiso   1.00
H1449  H     0.99430   0.72823   0.93810   0.00000  Uiso   1.00
H1450  H     0.71448   0.71404   0.90820   0.00000  Uiso   1.00
O1451  O     0.89750   0.88709   0.72307   0.00000  Uiso   1.00
C1452  C     0.88400   0.92865   0.71362   0.00000  Uiso   1.00
H1453  H     0.84344   0.93363   0.71909   0.00000  Uiso   1.00
H1454  H     0.88809   0.93813   0.67711   0.00000  Uiso   1.00
C1455  C     0.91960   0.95688   0.74623   0.00000  Uiso   1.00
H1456  H     0.95981   0.95476   0.73814   0.00000  Uiso   1.00
H1457  H     0.90730   0.98936   0.74144   0.00000  Uiso   1.00
H1458  H     0.91859   0.94771   0.78337   0.00000  Uiso   1.00
loop_
_geom_bond_atom_site_label_1
_geom_bond_atom_site_label_2
_geom_bond_distance
_geom_bond_site_symmetry_2
_ccdc_geom_bond_type
C1     O29     1.295   .     A
C1     C12     1.445   .     S
C1     O27     1.295   .     A
C2     O30     1.292   .     A
C2     C11     1.446   .     S
C2     O28     1.298   .     A
C3     C5      1.435   .     S
C3     O31     1.293   .     A
C3     O33     1.291   .     A
C4     O32     1.290   .     A
C4     O34     1.294   .     A
C4     C6      1.433   .     S
C5     C114    1.333   1_455 S
C5     H127    1.087   1_455 S
C6     C59     1.333   .     S
C6     H74     1.086   .     S
C7     C12     1.399   .     A
C7     H21     1.082   .     S
C7     C333    1.384   1_545 S
C8     H22     1.084   .     S
C8     C11     1.401   .     A
C8     C172    1.385   .     S
C9     C11     1.398   .     A
C9     H23     1.082   .     S
C9     C169    1.384   .     S
C10    C12     1.399   .     A
C10    H24     1.084   .     S
C10    C332    1.385   1_545 S
C13    O35     1.376   .     S
C13    N26     1.366   .     A
C13    C987    1.441   1_554 S
C14    O37     1.378   .     S
C14    N25     1.364   .     A
C14    C502    1.439   .     S
C15    O39     1.388   .     S
C15    N25     1.378   .     A
C15    C499    1.441   .     S
C16    O47     1.385   .     S
C16    N26     1.377   .     A
C16    C986    1.439   1_554 S
Cu17   N25     2.025   .     S
Cu17   Cu18    2.694   .     S
Cu17   O30     1.957   .     S
Cu17   O31     1.959   .     S
Cu17   O34     1.958   .     S
Cu17   O27     1.959   .     S
Cu18   N26     2.025   .     S
Cu18   O29     1.957   .     S
Cu18   O33     1.958   .     S
Cu18   O32     1.959   .     S
Cu18   O28     1.959   .     S
H19    C59     1.087   .     S
H20    C114    1.086   1_455 S
O35    H36     0.989   .     S
O37    H38     0.991   .     S
O39    C40     1.416   .     S
C40    H41     1.098   .     S
C40    C43     1.523   .     S
C40    H42     1.114   .     S
C43    H44     1.109   .     S
C43    H46     1.111   .     S
C43    H153    1.111   1_455 S
H45    C97     1.111   .     S
O47    C48     1.416   .     S
C48    C51     1.522   .     S
C48    H50     1.109   .     S
C48    H49     1.109   .     S
C51    H54     1.109   .     S
C51    H52     1.111   .     S
C51    H53     1.111   .     S
C55    O83     1.295   .     A
C55    C66     1.445   .     S
C55    O81     1.295   .     A
C56    O84     1.292   .     A
C56    C65     1.446   .     S
C56    O82     1.298   .     A
C57    C59     1.435   .     S
C57    O85     1.293   .     A
C57    O87     1.291   .     A
C58    O86     1.290   .     A
C58    O88     1.294   .     A
C58    C60     1.433   .     S
C60    C113    1.333   .     S
C60    H128    1.086   .     S
C61    C66     1.399   .     A
C61    H75     1.082   .     S
C61    C387    1.384   1_545 S
C62    H76     1.084   .     S
C62    C65     1.401   .     A
C62    C226    1.385   .     S
C63    C65     1.398   .     A
C63    H77     1.082   .     S
C63    C223    1.384   .     S
C64    C66     1.399   .     A
C64    H78     1.084   .     S
C64    C386    1.385   1_545 S
C67    O89     1.376   .     S
C67    N80     1.366   .     A
C67    C1041   1.441   1_554 S
C68    O91     1.378   .     S
C68    N79     1.364   .     A
C68    C556    1.439   .     S
C69    O93     1.388   .     S
C69    N79     1.378   .     A
C69    C553    1.441   .     S
C70    O101    1.385   .     S
C70    N80     1.377   .     A
C70    C1040   1.439   1_554 S
Cu71   N79     2.025   .     S
Cu71   Cu72    2.694   .     S
Cu71   O84     1.957   .     S
Cu71   O85     1.959   .     S
Cu71   O88     1.958   .     S
Cu71   O81     1.959   .     S
Cu72   N80     2.025   .     S
Cu72   O83     1.957   .     S
Cu72   O87     1.958   .     S
Cu72   O86     1.959   .     S
Cu72   O82     1.959   .     S
H73    C113    1.087   .     S
O89    H90     0.989   .     S
O91    H92     0.991   .     S
O93    C94     1.416   .     S
C94    H95     1.098   .     S
C94    C97     1.523   .     S
C94    H96     1.114   .     S
C97    H98     1.109   .     S
C97    H100    1.111   .     S
H99    C151    1.111   .     S
O101   C102    1.416   .     S
C102   C105    1.522   .     S
C102   H104    1.109   .     S
C102   H103    1.109   .     S
C105   H108    1.109   .     S
C105   H106    1.111   .     S
C105   H107    1.111   .     S
C109   O137    1.295   .     A
C109   C120    1.445   .     S
C109   O135    1.295   .     A
C110   O138    1.292   .     A
C110   C119    1.446   .     S
C110   O136    1.298   .     A
C111   C113    1.435   .     S
C111   O139    1.293   .     A
C111   O141    1.291   .     A
C112   O140    1.290   .     A
C112   O142    1.294   .     A
C112   C114    1.433   .     S
C114   C5      1.333   1_655 S
C114   H20     1.086   1_655 S
C115   C120    1.399   .     A
C115   H129    1.082   .     S
C115   C441    1.384   1_545 S
C116   H130    1.084   .     S
C116   C119    1.401   .     A
C116   C280    1.385   .     S
C117   C119    1.398   .     A
C117   H131    1.082   .     S
C117   C277    1.384   .     S
C118   C120    1.399   .     A
C118   H132    1.084   .     S
C118   C440    1.385   1_545 S
C121   O143    1.376   .     S
C121   N134    1.366   .     A
C121   C1095   1.441   1_554 S
C122   O145    1.378   .     S
C122   N133    1.364   .     A
C122   C610    1.439   .     S
C123   O147    1.388   .     S
C123   N133    1.378   .     A
C123   C607    1.441   .     S
C124   O155    1.385   .     S
C124   N134    1.377   .     A
C124   C1094   1.439   1_554 S
Cu125  N133    2.025   .     S
Cu125  Cu126   2.694   .     S
Cu125  O138    1.957   .     S
Cu125  O139    1.959   .     S
Cu125  O142    1.958   .     S
Cu125  O135    1.959   .     S
Cu126  N134    2.025   .     S
Cu126  O137    1.957   .     S
Cu126  O141    1.958   .     S
Cu126  O140    1.959   .     S
Cu126  O136    1.959   .     S
H127   C5      1.087   1_655 S
O143   H144    0.989   .     S
O145   H146    0.991   .     S
O147   C148    1.416   .     S
C148   H149    1.098   .     S
C148   C151    1.523   .     S
C148   H150    1.114   .     S
C151   H152    1.109   .     S
C151   H154    1.111   .     S
H153   C43     1.111   1_655 S
O155   C156    1.416   .     S
C156   C159    1.522   .     S
C156   H158    1.109   .     S
C156   H157    1.109   .     S
C159   H162    1.109   .     S
C159   H160    1.111   .     S
C159   H161    1.111   .     S
C163   O191    1.295   .     A
C163   C174    1.445   .     S
C163   O189    1.295   .     A
C164   O192    1.292   .     A
C164   C173    1.446   .     S
C164   O190    1.298   .     A
C165   C167    1.435   .     S
C165   O193    1.293   .     A
C165   O195    1.291   .     A
C166   O194    1.290   .     A
C166   O196    1.294   .     A
C166   C168    1.433   .     S
C167   C276    1.333   1_455 S
C167   H289    1.087   1_455 S
C168   C221    1.333   .     S
C168   H236    1.086   .     S
C169   C174    1.399   .     A
C169   H183    1.082   .     S
C170   H184    1.084   .     S
C170   C173    1.401   .     A
C170   C334    1.385   .     S
C171   C173    1.398   .     A
C171   H185    1.082   .     S
C171   C331    1.384   .     S
C172   C174    1.399   .     A
C172   H186    1.084   .     S
C175   O197    1.376   .     S
C175   N188    1.366   .     A
C175   C1149   1.441   1_554 S
C176   O199    1.378   .     S
C176   N187    1.364   .     A
C176   C664    1.439   .     S
C177   O201    1.388   .     S
C177   N187    1.378   .     A
C177   C661    1.441   .     S
C178   O209    1.385   .     S
C178   N188    1.377   .     A
C178   C1148   1.439   1_554 S
Cu179  N187    2.025   .     S
Cu179  Cu180   2.694   .     S
Cu179  O192    1.957   .     S
Cu179  O193    1.959   .     S
Cu179  O196    1.958   .     S
Cu179  O189    1.959   .     S
Cu180  N188    2.025   .     S
Cu180  O191    1.957   .     S
Cu180  O195    1.958   .     S
Cu180  O194    1.959   .     S
Cu180  O190    1.959   .     S
H181   C221    1.087   .     S
H182   C276    1.086   1_455 S
O197   H198    0.989   .     S
O199   H200    0.991   .     S
O201   C202    1.416   .     S
C202   H203    1.098   .     S
C202   C205    1.523   .     S
C202   H204    1.114   .     S
C205   H206    1.109   .     S
C205   H208    1.111   .     S
C205   H315    1.111   1_455 S
H207   C259    1.111   .     S
O209   C210    1.416   .     S
C210   C213    1.522   .     S
C210   H212    1.109   .     S
C210   H211    1.109   .     S
C213   H216    1.109   .     S
C213   H214    1.111   .     S
C213   H215    1.111   .     S
C217   O245    1.295   .     A
C217   C228    1.445   .     S
C217   O243    1.295   .     A
C218   O246    1.292   .     A
C218   C227    1.446   .     S
C218   O244    1.298   .     A
C219   C221    1.435   .     S
C219   O247    1.293   .     A
C219   O249    1.291   .     A
C220   O248    1.290   .     A
C220   O250    1.294   .     A
C220   C222    1.433   .     S
C222   C275    1.333   .     S
C222   H290    1.086   .     S
C223   C228    1.399   .     A
C223   H237    1.082   .     S
C224   H238    1.084   .     S
C224   C227    1.401   .     A
C224   C388    1.385   .     S
C225   C227    1.398   .     A
C225   H239    1.082   .     S
C225   C385    1.384   .     S
C226   C228    1.399   .     A
C226   H240    1.084   .     S
C229   O251    1.376   .     S
C229   N242    1.366   .     A
C229   C1203   1.441   1_554 S
C230   O253    1.378   .     S
C230   N241    1.364   .     A
C230   C718    1.439   .     S
C231   O255    1.388   .     S
C231   N241    1.378   .     A
C231   C715    1.441   .     S
C232   O263    1.385   .     S
C232   N242    1.377   .     A
C232   C1202   1.439   1_554 S
Cu233  N241    2.025   .     S
Cu233  Cu234   2.694   .     S
Cu233  O246    1.957   .     S
Cu233  O247    1.959   .     S
Cu233  O250    1.958   .     S
Cu233  O243    1.959   .     S
Cu234  N242    2.025   .     S
Cu234  O245    1.957   .     S
Cu234  O249    1.958   .     S
Cu234  O248    1.959   .     S
Cu234  O244    1.959   .     S
H235   C275    1.087   .     S
O251   H252    0.989   .     S
O253   H254    0.991   .     S
O255   C256    1.416   .     S
C256   H257    1.098   .     S
C256   C259    1.523   .     S
C256   H258    1.114   .     S
C259   H260    1.109   .     S
C259   H262    1.111   .     S
H261   C313    1.111   .     S
O263   C264    1.416   .     S
C264   C267    1.522   .     S
C264   H266    1.109   .     S
C264   H265    1.109   .     S
C267   H270    1.109   .     S
C267   H268    1.111   .     S
C267   H269    1.111   .     S
C271   O299    1.295   .     A
C271   C282    1.445   .     S
C271   O297    1.295   .     A
C272   O300    1.292   .     A
C272   C281    1.446   .     S
C272   O298    1.298   .     A
C273   C275    1.435   .     S
C273   O301    1.293   .     A
C273   O303    1.291   .     A
C274   O302    1.290   .     A
C274   O304    1.294   .     A
C274   C276    1.433   .     S
C276   C167    1.333   1_655 S
C276   H182    1.086   1_655 S
C277   C282    1.399   .     A
C277   H291    1.082   .     S
C278   H292    1.084   .     S
C278   C281    1.401   .     A
C278   C442    1.385   .     S
C279   C281    1.398   .     A
C279   H293    1.082   .     S
C279   C439    1.384   .     S
C280   C282    1.399   .     A
C280   H294    1.084   .     S
C283   O305    1.376   .     S
C283   N296    1.366   .     A
C283   C1257   1.441   1_554 S
C284   O307    1.378   .     S
C284   N295    1.364   .     A
C284   C772    1.439   .     S
C285   O309    1.388   .     S
C285   N295    1.378   .     A
C285   C769    1.441   .     S
C286   O317    1.385   .     S
C286   N296    1.377   .     A
C286   C1256   1.439   1_554 S
Cu287  N295    2.025   .     S
Cu287  Cu288   2.694   .     S
Cu287  O300    1.957   .     S
Cu287  O301    1.959   .     S
Cu287  O304    1.958   .     S
Cu287  O297    1.959   .     S
Cu288  N296    2.025   .     S
Cu288  O299    1.957   .     S
Cu288  O303    1.958   .     S
Cu288  O302    1.959   .     S
Cu288  O298    1.959   .     S
H289   C167    1.087   1_655 S
O305   H306    0.989   .     S
O307   H308    0.991   .     S
O309   C310    1.416   .     S
C310   H311    1.098   .     S
C310   C313    1.523   .     S
C310   H312    1.114   .     S
C313   H314    1.109   .     S
C313   H316    1.111   .     S
H315   C205    1.111   1_655 S
O317   C318    1.416   .     S
C318   C321    1.522   .     S
C318   H320    1.109   .     S
C318   H319    1.109   .     S
C321   H324    1.109   .     S
C321   H322    1.111   .     S
C321   H323    1.111   .     S
C325   O353    1.295   .     A
C325   C336    1.445   .     S
C325   O351    1.295   .     A
C326   O354    1.292   .     A
C326   C335    1.446   .     S
C326   O352    1.298   .     A
C327   C329    1.435   .     S
C327   O355    1.293   .     A
C327   O357    1.291   .     A
C328   O356    1.290   .     A
C328   O358    1.294   .     A
C328   C330    1.433   .     S
C329   C438    1.333   1_455 S
C329   H451    1.087   1_455 S
C330   C383    1.333   .     S
C330   H398    1.086   .     S
C331   C336    1.399   .     A
C331   H345    1.082   .     S
C332   H346    1.084   .     S
C332   C335    1.401   .     A
C332   C10     1.385   1_565 S
C333   C335    1.398   .     A
C333   H347    1.082   .     S
C333   C7      1.384   1_565 S
C334   C336    1.399   .     A
C334   H348    1.084   .     S
C337   O359    1.376   .     S
C337   N350    1.366   .     A
C337   C1311   1.441   1_554 S
C338   O361    1.378   .     S
C338   N349    1.364   .     A
C338   C826    1.439   .     S
C339   O363    1.388   .     S
C339   N349    1.378   .     A
C339   C823    1.441   .     S
C340   O371    1.385   .     S
C340   N350    1.377   .     A
C340   C1310   1.439   1_554 S
Cu341  N349    2.025   .     S
Cu341  Cu342   2.694   .     S
Cu341  O354    1.957   .     S
Cu341  O355    1.959   .     S
Cu341  O358    1.958   .     S
Cu341  O351    1.959   .     S
Cu342  N350    2.025   .     S
Cu342  O353    1.957   .     S
Cu342  O357    1.958   .     S
Cu342  O356    1.959   .     S
Cu342  O352    1.959   .     S
H343   C383    1.087   .     S
H344   C438    1.086   1_455 S
O359   H360    0.989   .     S
O361   H362    0.991   .     S
O363   C364    1.416   .     S
C364   H365    1.098   .     S
C364   C367    1.523   .     S
C364   H366    1.114   .     S
C367   H368    1.109   .     S
C367   H370    1.111   .     S
C367   H477    1.111   1_455 S
H369   C421    1.111   .     S
O371   C372    1.416   .     S
C372   C375    1.522   .     S
C372   H374    1.109   .     S
C372   H373    1.109   .     S
C375   H378    1.109   .     S
C375   H376    1.111   .     S
C375   H377    1.111   .     S
C379   O407    1.295   .     A
C379   C390    1.445   .     S
C379   O405    1.295   .     A
C380   O408    1.292   .     A
C380   C389    1.446   .     S
C380   O406    1.298   .     A
C381   C383    1.435   .     S
C381   O409    1.293   .     A
C381   O411    1.291   .     A
C382   O410    1.290   .     A
C382   O412    1.294   .     A
C382   C384    1.433   .     S
C384   C437    1.333   .     S
C384   H452    1.086   .     S
C385   C390    1.399   .     A
C385   H399    1.082   .     S
C386   H400    1.084   .     S
C386   C389    1.401   .     A
C386   C64     1.385   1_565 S
C387   C389    1.398   .     A
C387   H401    1.082   .     S
C387   C61     1.384   1_565 S
C388   C390    1.399   .     A
C388   H402    1.084   .     S
C391   O413    1.376   .     S
C391   N404    1.366   .     A
C391   C1365   1.441   1_554 S
C392   O415    1.378   .     S
C392   N403    1.364   .     A
C392   C880    1.439   .     S
C393   O417    1.388   .     S
C393   N403    1.378   .     A
C393   C877    1.441   .     S
C394   O425    1.385   .     S
C394   N404    1.377   .     A
C394   C1364   1.439   1_554 S
Cu395  N403    2.025   .     S
Cu395  Cu396   2.694   .     S
Cu395  O408    1.957   .     S
Cu395  O409    1.959   .     S
Cu395  O412    1.958   .     S
Cu395  O405    1.959   .     S
Cu396  N404    2.025   .     S
Cu396  O407    1.957   .     S
Cu396  O411    1.958   .     S
Cu396  O410    1.959   .     S
Cu396  O406    1.959   .     S
H397   C437    1.087   .     S
O413   H414    0.989   .     S
O415   H416    0.991   .     S
O417   C418    1.416   .     S
C418   H419    1.098   .     S
C418   C421    1.523   .     S
C418   H420    1.114   .     S
C421   H422    1.109   .     S
C421   H424    1.111   .     S
H423   C475    1.111   .     S
O425   C426    1.416   .     S
C426   C429    1.522   .     S
C426   H428    1.109   .     S
C426   H427    1.109   .     S
C429   H432    1.109   .     S
C429   H430    1.111   .     S
C429   H431    1.111   .     S
C433   O461    1.295   .     A
C433   C444    1.445   .     S
C433   O459    1.295   .     A
C434   O462    1.292   .     A
C434   C443    1.446   .     S
C434   O460    1.298   .     A
C435   C437    1.435   .     S
C435   O463    1.293   .     A
C435   O465    1.291   .     A
C436   O464    1.290   .     A
C436   O466    1.294   .     A
C436   C438    1.433   .     S
C438   C329    1.333   1_655 S
C438   H344    1.086   1_655 S
C439   C444    1.399   .     A
C439   H453    1.082   .     S
C440   H454    1.084   .     S
C440   C443    1.401   .     A
C440   C118    1.385   1_565 S
C441   C443    1.398   .     A
C441   H455    1.082   .     S
C441   C115    1.384   1_565 S
C442   C444    1.399   .     A
C442   H456    1.084   .     S
C445   O467    1.376   .     S
C445   N458    1.366   .     A
C445   C1419   1.441   1_554 S
C446   O469    1.378   .     S
C446   N457    1.364   .     A
C446   C934    1.439   .     S
C447   O471    1.388   .     S
C447   N457    1.378   .     A
C447   C931    1.441   .     S
C448   O479    1.385   .     S
C448   N458    1.377   .     A
C448   C1418   1.439   1_554 S
Cu449  N457    2.025   .     S
Cu449  Cu450   2.694   .     S
Cu449  O462    1.957   .     S
Cu449  O463    1.959   .     S
Cu449  O466    1.958   .     S
Cu449  O459    1.959   .     S
Cu450  N458    2.025   .     S
Cu450  O461    1.957   .     S
Cu450  O465    1.958   .     S
Cu450  O464    1.959   .     S
Cu450  O460    1.959   .     S
H451   C329    1.087   1_655 S
O467   H468    0.989   .     S
O469   H470    0.991   .     S
O471   C472    1.416   .     S
C472   H473    1.098   .     S
C472   C475    1.523   .     S
C472   H474    1.114   .     S
C475   H476    1.109   .     S
C475   H478    1.111   .     S
H477   C367    1.111   1_655 S
O479   C480    1.416   .     S
C480   C483    1.522   .     S
C480   H482    1.109   .     S
C480   H481    1.109   .     S
C483   H486    1.109   .     S
C483   H484    1.111   .     S
C483   H485    1.111   .     S
C487   O515    1.295   .     A
C487   C498    1.445   .     S
C487   O513    1.295   .     A
C488   O516    1.292   .     A
C488   C497    1.446   .     S
C488   O514    1.298   .     A
C489   C491    1.435   .     S
C489   O517    1.293   .     A
C489   O519    1.291   .     A
C490   O518    1.290   .     A
C490   O520    1.294   .     A
C490   C492    1.433   .     S
C491   C600    1.333   1_455 S
C491   H613    1.087   1_455 S
C492   C545    1.333   .     S
C492   H560    1.086   .     S
C493   C498    1.399   .     A
C493   H507    1.082   .     S
C493   C819    1.384   1_545 S
C494   H508    1.084   .     S
C494   C497    1.401   .     A
C494   C658    1.385   .     S
C495   C497    1.398   .     A
C495   H509    1.082   .     S
C495   C655    1.384   .     S
C496   C498    1.399   .     A
C496   H510    1.084   .     S
C496   C818    1.385   1_545 S
C499   O521    1.376   .     S
C499   N512    1.366   .     A
C500   O523    1.378   .     S
C500   N511    1.364   .     A
C500   C988    1.439   .     S
C501   O525    1.388   .     S
C501   N511    1.378   .     A
C501   C985    1.441   .     S
C502   O533    1.385   .     S
C502   N512    1.377   .     A
Cu503  N511    2.025   .     S
Cu503  Cu504   2.694   .     S
Cu503  O516    1.957   .     S
Cu503  O517    1.959   .     S
Cu503  O520    1.958   .     S
Cu503  O513    1.959   .     S
Cu504  N512    2.025   .     S
Cu504  O515    1.957   .     S
Cu504  O519    1.958   .     S
Cu504  O518    1.959   .     S
Cu504  O514    1.959   .     S
H505   C545    1.087   .     S
H506   C600    1.086   1_455 S
O521   H522    0.989   .     S
O523   H524    0.991   .     S
O525   C526    1.416   .     S
C526   H527    1.098   .     S
C526   C529    1.523   .     S
C526   H528    1.114   .     S
C529   H530    1.109   .     S
C529   H532    1.111   .     S
C529   H639    1.111   1_455 S
H531   C583    1.111   .     S
O533   C534    1.416   .     S
C534   C537    1.522   .     S
C534   H536    1.109   .     S
C534   H535    1.109   .     S
C537   H540    1.109   .     S
C537   H538    1.111   .     S
C537   H539    1.111   .     S
C541   O569    1.295   .     A
C541   C552    1.445   .     S
C541   O567    1.295   .     A
C542   O570    1.292   .     A
C542   C551    1.446   .     S
C542   O568    1.298   .     A
C543   C545    1.435   .     S
C543   O571    1.293   .     A
C543   O573    1.291   .     A
C544   O572    1.290   .     A
C544   O574    1.294   .     A
C544   C546    1.433   .     S
C546   C599    1.333   .     S
C546   H614    1.086   .     S
C547   C552    1.399   .     A
C547   H561    1.082   .     S
C547   C873    1.384   1_545 S
C548   H562    1.084   .     S
C548   C551    1.401   .     A
C548   C712    1.385   .     S
C549   C551    1.398   .     A
C549   H563    1.082   .     S
C549   C709    1.384   .     S
C550   C552    1.399   .     A
C550   H564    1.084   .     S
C550   C872    1.385   1_545 S
C553   O575    1.376   .     S
C553   N566    1.366   .     A
C554   O577    1.378   .     S
C554   N565    1.364   .     A
C554   C1042   1.439   .     S
C555   O579    1.388   .     S
C555   N565    1.378   .     A
C555   C1039   1.441   .     S
C556   O587    1.385   .     S
C556   N566    1.377   .     A
Cu557  N565    2.025   .     S
Cu557  Cu558   2.694   .     S
Cu557  O570    1.957   .     S
Cu557  O571    1.959   .     S
Cu557  O574    1.958   .     S
Cu557  O567    1.959   .     S
Cu558  N566    2.025   .     S
Cu558  O569    1.957   .     S
Cu558  O573    1.958   .     S
Cu558  O572    1.959   .     S
Cu558  O568    1.959   .     S
H559   C599    1.087   .     S
O575   H576    0.989   .     S
O577   H578    0.991   .     S
O579   C580    1.416   .     S
C580   H581    1.098   .     S
C580   C583    1.523   .     S
C580   H582    1.114   .     S
C583   H584    1.109   .     S
C583   H586    1.111   .     S
H585   C637    1.111   .     S
O587   C588    1.416   .     S
C588   C591    1.522   .     S
C588   H590    1.109   .     S
C588   H589    1.109   .     S
C591   H594    1.109   .     S
C591   H592    1.111   .     S
C591   H593    1.111   .     S
C595   O623    1.295   .     A
C595   C606    1.445   .     S
C595   O621    1.295   .     A
C596   O624    1.292   .     A
C596   C605    1.446   .     S
C596   O622    1.298   .     A
C597   C599    1.435   .     S
C597   O625    1.293   .     A
C597   O627    1.291   .     A
C598   O626    1.290   .     A
C598   O628    1.294   .     A
C598   C600    1.433   .     S
C600   C491    1.333   1_655 S
C600   H506    1.086   1_655 S
C601   C606    1.399   .     A
C601   H615    1.082   .     S
C601   C927    1.384   1_545 S
C602   H616    1.084   .     S
C602   C605    1.401   .     A
C602   C766    1.385   .     S
C603   C605    1.398   .     A
C603   H617    1.082   .     S
C603   C763    1.384   .     S
C604   C606    1.399   .     A
C604   H618    1.084   .     S
C604   C926    1.385   1_545 S
C607   O629    1.376   .     S
C607   N620    1.366   .     A
C608   O631    1.378   .     S
C608   N619    1.364   .     A
C608   C1096   1.439   .     S
C609   O633    1.388   .     S
C609   N619    1.378   .     A
C609   C1093   1.441   .     S
C610   O641    1.385   .     S
C610   N620    1.377   .     A
Cu611  N619    2.025   .     S
Cu611  Cu612   2.694   .     S
Cu611  O624    1.957   .     S
Cu611  O625    1.959   .     S
Cu611  O628    1.958   .     S
Cu611  O621    1.959   .     S
Cu612  N620    2.025   .     S
Cu612  O623    1.957   .     S
Cu612  O627    1.958   .     S
Cu612  O626    1.959   .     S
Cu612  O622    1.959   .     S
H613   C491    1.087   1_655 S
O629   H630    0.989   .     S
O631   H632    0.991   .     S
O633   C634    1.416   .     S
C634   H635    1.098   .     S
C634   C637    1.523   .     S
C634   H636    1.114   .     S
C637   H638    1.109   .     S
C637   H640    1.111   .     S
H639   C529    1.111   1_655 S
O641   C642    1.416   .     S
C642   C645    1.522   .     S
C642   H644    1.109   .     S
C642   H643    1.109   .     S
C645   H648    1.109   .     S
C645   H646    1.111   .     S
C645   H647    1.111   .     S
C649   O677    1.295   .     A
C649   C660    1.445   .     S
C649   O675    1.295   .     A
C650   O678    1.292   .     A
C650   C659    1.446   .     S
C650   O676    1.298   .     A
C651   C653    1.435   .     S
C651   O679    1.293   .     A
C651   O681    1.291   .     A
C652   O680    1.290   .     A
C652   O682    1.294   .     A
C652   C654    1.433   .     S
C653   C762    1.333   1_455 S
C653   H775    1.087   1_455 S
C654   C707    1.333   .     S
C654   H722    1.086   .     S
C655   C660    1.399   .     A
C655   H669    1.082   .     S
C656   H670    1.084   .     S
C656   C659    1.401   .     A
C656   C820    1.385   .     S
C657   C659    1.398   .     A
C657   H671    1.082   .     S
C657   C817    1.384   .     S
C658   C660    1.399   .     A
C658   H672    1.084   .     S
C661   O683    1.376   .     S
C661   N674    1.366   .     A
C662   O685    1.378   .     S
C662   N673    1.364   .     A
C662   C1150   1.439   .     S
C663   O687    1.388   .     S
C663   N673    1.378   .     A
C663   C1147   1.441   .     S
C664   O695    1.385   .     S
C664   N674    1.377   .     A
Cu665  N673    2.025   .     S
Cu665  Cu666   2.694   .     S
Cu665  O678    1.957   .     S
Cu665  O679    1.959   .     S
Cu665  O682    1.958   .     S
Cu665  O675    1.959   .     S
Cu666  N674    2.025   .     S
Cu666  O677    1.957   .     S
Cu666  O681    1.958   .     S
Cu666  O680    1.959   .     S
Cu666  O676    1.959   .     S
H667   C707    1.087   .     S
H668   C762    1.086   1_455 S
O683   H684    0.989   .     S
O685   H686    0.991   .     S
O687   C688    1.416   .     S
C688   H689    1.098   .     S
C688   C691    1.523   .     S
C688   H690    1.114   .     S
C691   H692    1.109   .     S
C691   H694    1.111   .     S
C691   H801    1.111   1_455 S
H693   C745    1.111   .     S
O695   C696    1.416   .     S
C696   C699    1.522   .     S
C696   H698    1.109   .     S
C696   H697    1.109   .     S
C699   H702    1.109   .     S
C699   H700    1.111   .     S
C699   H701    1.111   .     S
C703   O731    1.295   .     A
C703   C714    1.445   .     S
C703   O729    1.295   .     A
C704   O732    1.292   .     A
C704   C713    1.446   .     S
C704   O730    1.298   .     A
C705   C707    1.435   .     S
C705   O733    1.293   .     A
C705   O735    1.291   .     A
C706   O734    1.290   .     A
C706   O736    1.294   .     A
C706   C708    1.433   .     S
C708   C761    1.333   .     S
C708   H776    1.086   .     S
C709   C714    1.399   .     A
C709   H723    1.082   .     S
C710   H724    1.084   .     S
C710   C713    1.401   .     A
C710   C874    1.385   .     S
C711   C713    1.398   .     A
C711   H725    1.082   .     S
C711   C871    1.384   .     S
C712   C714    1.399   .     A
C712   H726    1.084   .     S
C715   O737    1.376   .     S
C715   N728    1.366   .     A
C716   O739    1.378   .     S
C716   N727    1.364   .     A
C716   C1204   1.439   .     S
C717   O741    1.388   .     S
C717   N727    1.378   .     A
C717   C1201   1.441   .     S
C718   O749    1.385   .     S
C718   N728    1.377   .     A
Cu719  N727    2.025   .     S
Cu719  Cu720   2.694   .     S
Cu719  O732    1.957   .     S
Cu719  O733    1.959   .     S
Cu719  O736    1.958   .     S
Cu719  O729    1.959   .     S
Cu720  N728    2.025   .     S
Cu720  O731    1.957   .     S
Cu720  O735    1.958   .     S
Cu720  O734    1.959   .     S
Cu720  O730    1.959   .     S
H721   C761    1.087   .     S
O737   H738    0.989   .     S
O739   H740    0.991   .     S
O741   C742    1.416   .     S
C742   H743    1.098   .     S
C742   C745    1.523   .     S
C742   H744    1.114   .     S
C745   H746    1.109   .     S
C745   H748    1.111   .     S
H747   C799    1.111   .     S
O749   C750    1.416   .     S
C750   C753    1.522   .     S
C750   H752    1.109   .     S
C750   H751    1.109   .     S
C753   H756    1.109   .     S
C753   H754    1.111   .     S
C753   H755    1.111   .     S
C757   O785    1.295   .     A
C757   C768    1.445   .     S
C757   O783    1.295   .     A
C758   O786    1.292   .     A
C758   C767    1.446   .     S
C758   O784    1.298   .     A
C759   C761    1.435   .     S
C759   O787    1.293   .     A
C759   O789    1.291   .     A
C760   O788    1.290   .     A
C760   O790    1.294   .     A
C760   C762    1.433   .     S
C762   C653    1.333   1_655 S
C762   H668    1.086   1_655 S
C763   C768    1.399   .     A
C763   H777    1.082   .     S
C764   H778    1.084   .     S
C764   C767    1.401   .     A
C764   C928    1.385   .     S
C765   C767    1.398   .     A
C765   H779    1.082   .     S
C765   C925    1.384   .     S
C766   C768    1.399   .     A
C766   H780    1.084   .     S
C769   O791    1.376   .     S
C769   N782    1.366   .     A
C770   O793    1.378   .     S
C770   N781    1.364   .     A
C770   C1258   1.439   .     S
C771   O795    1.388   .     S
C771   N781    1.378   .     A
C771   C1255   1.441   .     S
C772   O803    1.385   .     S
C772   N782    1.377   .     A
Cu773  N781    2.025   .     S
Cu773  Cu774   2.694   .     S
Cu773  O786    1.957   .     S
Cu773  O787    1.959   .     S
Cu773  O790    1.958   .     S
Cu773  O783    1.959   .     S
Cu774  N782    2.025   .     S
Cu774  O785    1.957   .     S
Cu774  O789    1.958   .     S
Cu774  O788    1.959   .     S
Cu774  O784    1.959   .     S
H775   C653    1.087   1_655 S
O791   H792    0.989   .     S
O793   H794    0.991   .     S
O795   C796    1.416   .     S
C796   H797    1.098   .     S
C796   C799    1.523   .     S
C796   H798    1.114   .     S
C799   H800    1.109   .     S
C799   H802    1.111   .     S
H801   C691    1.111   1_655 S
O803   C804    1.416   .     S
C804   C807    1.522   .     S
C804   H806    1.109   .     S
C804   H805    1.109   .     S
C807   H810    1.109   .     S
C807   H808    1.111   .     S
C807   H809    1.111   .     S
C811   O839    1.295   .     A
C811   C822    1.445   .     S
C811   O837    1.295   .     A
C812   O840    1.292   .     A
C812   C821    1.446   .     S
C812   O838    1.298   .     A
C813   C815    1.435   .     S
C813   O841    1.293   .     A
C813   O843    1.291   .     A
C814   O842    1.290   .     A
C814   O844    1.294   .     A
C814   C816    1.433   .     S
C815   C924    1.333   1_455 S
C815   H937    1.087   1_455 S
C816   C869    1.333   .     S
C816   H884    1.086   .     S
C817   C822    1.399   .     A
C817   H831    1.082   .     S
C818   H832    1.084   .     S
C818   C821    1.401   .     A
C818   C496    1.385   1_565 S
C819   C821    1.398   .     A
C819   H833    1.082   .     S
C819   C493    1.384   1_565 S
C820   C822    1.399   .     A
C820   H834    1.084   .     S
C823   O845    1.376   .     S
C823   N836    1.366   .     A
C824   O847    1.378   .     S
C824   N835    1.364   .     A
C824   C1312   1.439   .     S
C825   O849    1.388   .     S
C825   N835    1.378   .     A
C825   C1309   1.441   .     S
C826   O857    1.385   .     S
C826   N836    1.377   .     A
Cu827  N835    2.025   .     S
Cu827  Cu828   2.694   .     S
Cu827  O840    1.957   .     S
Cu827  O841    1.959   .     S
Cu827  O844    1.958   .     S
Cu827  O837    1.959   .     S
Cu828  N836    2.025   .     S
Cu828  O839    1.957   .     S
Cu828  O843    1.958   .     S
Cu828  O842    1.959   .     S
Cu828  O838    1.959   .     S
H829   C869    1.087   .     S
H830   C924    1.086   1_455 S
O845   H846    0.989   .     S
O847   H848    0.991   .     S
O849   C850    1.416   .     S
C850   H851    1.098   .     S
C850   C853    1.523   .     S
C850   H852    1.114   .     S
C853   H854    1.109   .     S
C853   H856    1.111   .     S
C853   H963    1.111   1_455 S
H855   C907    1.111   .     S
O857   C858    1.416   .     S
C858   C861    1.522   .     S
C858   H860    1.109   .     S
C858   H859    1.109   .     S
C861   H864    1.109   .     S
C861   H862    1.111   .     S
C861   H863    1.111   .     S
C865   O893    1.295   .     A
C865   C876    1.445   .     S
C865   O891    1.295   .     A
C866   O894    1.292   .     A
C866   C875    1.446   .     S
C866   O892    1.298   .     A
C867   C869    1.435   .     S
C867   O895    1.293   .     A
C867   O897    1.291   .     A
C868   O896    1.290   .     A
C868   O898    1.294   .     A
C868   C870    1.433   .     S
C870   C923    1.333   .     S
C870   H938    1.086   .     S
C871   C876    1.399   .     A
C871   H885    1.082   .     S
C872   H886    1.084   .     S
C872   C875    1.401   .     A
C872   C550    1.385   1_565 S
C873   C875    1.398   .     A
C873   H887    1.082   .     S
C873   C547    1.384   1_565 S
C874   C876    1.399   .     A
C874   H888    1.084   .     S
C877   O899    1.376   .     S
C877   N890    1.366   .     A
C878   O901    1.378   .     S
C878   N889    1.364   .     A
C878   C1366   1.439   .     S
C879   O903    1.388   .     S
C879   N889    1.378   .     A
C879   C1363   1.441   .     S
C880   O911    1.385   .     S
C880   N890    1.377   .     A
Cu881  N889    2.025   .     S
Cu881  Cu882   2.694   .     S
Cu881  O894    1.957   .     S
Cu881  O895    1.959   .     S
Cu881  O898    1.958   .     S
Cu881  O891    1.959   .     S
Cu882  N890    2.025   .     S
Cu882  O893    1.957   .     S
Cu882  O897    1.958   .     S
Cu882  O896    1.959   .     S
Cu882  O892    1.959   .     S
H883   C923    1.087   .     S
O899   H900    0.989   .     S
O901   H902    0.991   .     S
O903   C904    1.416   .     S
C904   H905    1.098   .     S
C904   C907    1.523   .     S
C904   H906    1.114   .     S
C907   H908    1.109   .     S
C907   H910    1.111   .     S
H909   C961    1.111   .     S
O911   C912    1.416   .     S
C912   C915    1.522   .     S
C912   H914    1.109   .     S
C912   H913    1.109   .     S
C915   H918    1.109   .     S
C915   H916    1.111   .     S
C915   H917    1.111   .     S
C919   O947    1.295   .     A
C919   C930    1.445   .     S
C919   O945    1.295   .     A
C920   O948    1.292   .     A
C920   C929    1.446   .     S
C920   O946    1.298   .     A
C921   C923    1.435   .     S
C921   O949    1.293   .     A
C921   O951    1.291   .     A
C922   O950    1.290   .     A
C922   O952    1.294   .     A
C922   C924    1.433   .     S
C924   C815    1.333   1_655 S
C924   H830    1.086   1_655 S
C925   C930    1.399   .     A
C925   H939    1.082   .     S
C926   H940    1.084   .     S
C926   C929    1.401   .     A
C926   C604    1.385   1_565 S
C927   C929    1.398   .     A
C927   H941    1.082   .     S
C927   C601    1.384   1_565 S
C928   C930    1.399   .     A
C928   H942    1.084   .     S
C931   O953    1.376   .     S
C931   N944    1.366   .     A
C932   O955    1.378   .     S
C932   N943    1.364   .     A
C932   C1420   1.439   .     S
C933   O957    1.388   .     S
C933   N943    1.378   .     A
C933   C1417   1.441   .     S
C934   O965    1.385   .     S
C934   N944    1.377   .     A
Cu935  N943    2.025   .     S
Cu935  Cu936   2.694   .     S
Cu935  O948    1.957   .     S
Cu935  O949    1.959   .     S
Cu935  O952    1.958   .     S
Cu935  O945    1.959   .     S
Cu936  N944    2.025   .     S
Cu936  O947    1.957   .     S
Cu936  O951    1.958   .     S
Cu936  O950    1.959   .     S
Cu936  O946    1.959   .     S
H937   C815    1.087   1_655 S
O953   H954    0.989   .     S
O955   H956    0.991   .     S
O957   C958    1.416   .     S
C958   H959    1.098   .     S
C958   C961    1.523   .     S
C958   H960    1.114   .     S
C961   H962    1.109   .     S
C961   H964    1.111   .     S
H963   C853    1.111   1_655 S
O965   C966    1.416   .     S
C966   C969    1.522   .     S
C966   H968    1.109   .     S
C966   H967    1.109   .     S
C969   H972    1.109   .     S
C969   H970    1.111   .     S
C969   H971    1.111   .     S
C973   O1001   1.295   .     A
C973   C984    1.445   .     S
C973   O999    1.295   .     A
C974   O1002   1.292   .     A
C974   C983    1.446   .     S
C974   O1000   1.298   .     A
C975   C977    1.435   .     S
C975   O1003   1.293   .     A
C975   O1005   1.291   .     A
C976   O1004   1.290   .     A
C976   O1006   1.294   .     A
C976   C978    1.433   .     S
C977   C1086   1.333   1_455 S
C977   H1099   1.087   1_455 S
C978   C1031   1.333   .     S
C978   H1046   1.086   .     S
C979   C984    1.399   .     A
C979   H993    1.082   .     S
C979   C1305   1.384   1_545 S
C980   H994    1.084   .     S
C980   C983    1.401   .     A
C980   C1144   1.385   .     S
C981   C983    1.398   .     A
C981   H995    1.082   .     S
C981   C1141   1.384   .     S
C982   C984    1.399   .     A
C982   H996    1.084   .     S
C982   C1304   1.385   1_545 S
C985   O1007   1.376   .     S
C985   N998    1.366   .     A
C986   O1009   1.378   .     S
C986   N997    1.364   .     A
C986   C16     1.439   1_556 S
C987   O1011   1.388   .     S
C987   N997    1.378   .     A
C987   C13     1.441   1_556 S
C988   O1019   1.385   .     S
C988   N998    1.377   .     A
Cu989  N997    2.025   .     S
Cu989  Cu990   2.694   .     S
Cu989  O1002   1.957   .     S
Cu989  O1003   1.959   .     S
Cu989  O1006   1.958   .     S
Cu989  O999    1.959   .     S
Cu990  N998    2.025   .     S
Cu990  O1001   1.957   .     S
Cu990  O1005   1.958   .     S
Cu990  O1004   1.959   .     S
Cu990  O1000   1.959   .     S
H991   C1031   1.087   .     S
H992   C1086   1.086   1_455 S
O1007  H1008   0.989   .     S
O1009  H1010   0.991   .     S
O1011  C1012   1.416   .     S
C1012  H1013   1.098   .     S
C1012  C1015   1.523   .     S
C1012  H1014   1.114   .     S
C1015  H1016   1.109   .     S
C1015  H1018   1.111   .     S
C1015  H1125   1.111   1_455 S
H1017  C1069   1.111   .     S
O1019  C1020   1.416   .     S
C1020  C1023   1.522   .     S
C1020  H1022   1.109   .     S
C1020  H1021   1.109   .     S
C1023  H1026   1.109   .     S
C1023  H1024   1.111   .     S
C1023  H1025   1.111   .     S
C1027  O1055   1.295   .     A
C1027  C1038   1.445   .     S
C1027  O1053   1.295   .     A
C1028  O1056   1.292   .     A
C1028  C1037   1.446   .     S
C1028  O1054   1.298   .     A
C1029  C1031   1.435   .     S
C1029  O1057   1.293   .     A
C1029  O1059   1.291   .     A
C1030  O1058   1.290   .     A
C1030  O1060   1.294   .     A
C1030  C1032   1.433   .     S
C1032  C1085   1.333   .     S
C1032  H1100   1.086   .     S
C1033  C1038   1.399   .     A
C1033  H1047   1.082   .     S
C1033  C1359   1.384   1_545 S
C1034  H1048   1.084   .     S
C1034  C1037   1.401   .     A
C1034  C1198   1.385   .     S
C1035  C1037   1.398   .     A
C1035  H1049   1.082   .     S
C1035  C1195   1.384   .     S
C1036  C1038   1.399   .     A
C1036  H1050   1.084   .     S
C1036  C1358   1.385   1_545 S
C1039  O1061   1.376   .     S
C1039  N1052   1.366   .     A
C1040  O1063   1.378   .     S
C1040  N1051   1.364   .     A
C1040  C70     1.439   1_556 S
C1041  O1065   1.388   .     S
C1041  N1051   1.378   .     A
C1041  C67     1.441   1_556 S
C1042  O1073   1.385   .     S
C1042  N1052   1.377   .     A
Cu1043 N1051   2.025   .     S
Cu1043 Cu1044  2.694   .     S
Cu1043 O1056   1.957   .     S
Cu1043 O1057   1.959   .     S
Cu1043 O1060   1.958   .     S
Cu1043 O1053   1.959   .     S
Cu1044 N1052   2.025   .     S
Cu1044 O1055   1.957   .     S
Cu1044 O1059   1.958   .     S
Cu1044 O1058   1.959   .     S
Cu1044 O1054   1.959   .     S
H1045  C1085   1.087   .     S
O1061  H1062   0.989   .     S
O1063  H1064   0.991   .     S
O1065  C1066   1.416   .     S
C1066  H1067   1.098   .     S
C1066  C1069   1.523   .     S
C1066  H1068   1.114   .     S
C1069  H1070   1.109   .     S
C1069  H1072   1.111   .     S
H1071  C1123   1.111   .     S
O1073  C1074   1.416   .     S
C1074  C1077   1.522   .     S
C1074  H1076   1.109   .     S
C1074  H1075   1.109   .     S
C1077  H1080   1.109   .     S
C1077  H1078   1.111   .     S
C1077  H1079   1.111   .     S
C1081  O1109   1.295   .     A
C1081  C1092   1.445   .     S
C1081  O1107   1.295   .     A
C1082  O1110   1.292   .     A
C1082  C1091   1.446   .     S
C1082  O1108   1.298   .     A
C1083  C1085   1.435   .     S
C1083  O1111   1.293   .     A
C1083  O1113   1.291   .     A
C1084  O1112   1.290   .     A
C1084  O1114   1.294   .     A
C1084  C1086   1.433   .     S
C1086  C977    1.333   1_655 S
C1086  H992    1.086   1_655 S
C1087  C1092   1.399   .     A
C1087  H1101   1.082   .     S
C1087  C1413   1.384   1_545 S
C1088  H1102   1.084   .     S
C1088  C1091   1.401   .     A
C1088  C1252   1.385   .     S
C1089  C1091   1.398   .     A
C1089  H1103   1.082   .     S
C1089  C1249   1.384   .     S
C1090  C1092   1.399   .     A
C1090  H1104   1.084   .     S
C1090  C1412   1.385   1_545 S
C1093  O1115   1.376   .     S
C1093  N1106   1.366   .     A
C1094  O1117   1.378   .     S
C1094  N1105   1.364   .     A
C1094  C124    1.439   1_556 S
C1095  O1119   1.388   .     S
C1095  N1105   1.378   .     A
C1095  C121    1.441   1_556 S
C1096  O1127   1.385   .     S
C1096  N1106   1.377   .     A
Cu1097 N1105   2.025   .     S
Cu1097 Cu1098  2.694   .     S
Cu1097 O1110   1.957   .     S
Cu1097 O1111   1.959   .     S
Cu1097 O1114   1.958   .     S
Cu1097 O1107   1.959   .     S
Cu1098 N1106   2.025   .     S
Cu1098 O1109   1.957   .     S
Cu1098 O1113   1.958   .     S
Cu1098 O1112   1.959   .     S
Cu1098 O1108   1.959   .     S
H1099  C977    1.087   1_655 S
O1115  H1116   0.989   .     S
O1117  H1118   0.991   .     S
O1119  C1120   1.416   .     S
C1120  H1121   1.098   .     S
C1120  C1123   1.523   .     S
C1120  H1122   1.114   .     S
C1123  H1124   1.109   .     S
C1123  H1126   1.111   .     S
H1125  C1015   1.111   1_655 S
O1127  C1128   1.416   .     S
C1128  C1131   1.522   .     S
C1128  H1130   1.109   .     S
C1128  H1129   1.109   .     S
C1131  H1134   1.109   .     S
C1131  H1132   1.111   .     S
C1131  H1133   1.111   .     S
C1135  O1163   1.295   .     A
C1135  C1146   1.445   .     S
C1135  O1161   1.295   .     A
C1136  O1164   1.292   .     A
C1136  C1145   1.446   .     S
C1136  O1162   1.298   .     A
C1137  C1139   1.435   .     S
C1137  O1165   1.293   .     A
C1137  O1167   1.291   .     A
C1138  O1166   1.290   .     A
C1138  O1168   1.294   .     A
C1138  C1140   1.433   .     S
C1139  C1248   1.333   1_455 S
C1139  H1261   1.087   1_455 S
C1140  C1193   1.333   .     S
C1140  H1208   1.086   .     S
C1141  C1146   1.399   .     A
C1141  H1155   1.082   .     S
C1142  H1156   1.084   .     S
C1142  C1145   1.401   .     A
C1142  C1306   1.385   .     S
C1143  C1145   1.398   .     A
C1143  H1157   1.082   .     S
C1143  C1303   1.384   .     S
C1144  C1146   1.399   .     A
C1144  H1158   1.084   .     S
C1147  O1169   1.376   .     S
C1147  N1160   1.366   .     A
C1148  O1171   1.378   .     S
C1148  N1159   1.364   .     A
C1148  C178    1.439   1_556 S
C1149  O1173   1.388   .     S
C1149  N1159   1.378   .     A
C1149  C175    1.441   1_556 S
C1150  O1181   1.385   .     S
C1150  N1160   1.377   .     A
Cu1151 N1159   2.025   .     S
Cu1151 Cu1152  2.694   .     S
Cu1151 O1164   1.957   .     S
Cu1151 O1165   1.959   .     S
Cu1151 O1168   1.958   .     S
Cu1151 O1161   1.959   .     S
Cu1152 N1160   2.025   .     S
Cu1152 O1163   1.957   .     S
Cu1152 O1167   1.958   .     S
Cu1152 O1166   1.959   .     S
Cu1152 O1162   1.959   .     S
H1153  C1193   1.087   .     S
H1154  C1248   1.086   1_455 S
O1169  H1170   0.989   .     S
O1171  H1172   0.991   .     S
O1173  C1174   1.416   .     S
C1174  H1175   1.098   .     S
C1174  C1177   1.523   .     S
C1174  H1176   1.114   .     S
C1177  H1178   1.109   .     S
C1177  H1180   1.111   .     S
C1177  H1287   1.111   1_455 S
H1179  C1231   1.111   .     S
O1181  C1182   1.416   .     S
C1182  C1185   1.522   .     S
C1182  H1184   1.109   .     S
C1182  H1183   1.109   .     S
C1185  H1188   1.109   .     S
C1185  H1186   1.111   .     S
C1185  H1187   1.111   .     S
C1189  O1217   1.295   .     A
C1189  C1200   1.445   .     S
C1189  O1215   1.295   .     A
C1190  O1218   1.292   .     A
C1190  C1199   1.446   .     S
C1190  O1216   1.298   .     A
C1191  C1193   1.435   .     S
C1191  O1219   1.293   .     A
C1191  O1221   1.291   .     A
C1192  O1220   1.290   .     A
C1192  O1222   1.294   .     A
C1192  C1194   1.433   .     S
C1194  C1247   1.333   .     S
C1194  H1262   1.086   .     S
C1195  C1200   1.399   .     A
C1195  H1209   1.082   .     S
C1196  H1210   1.084   .     S
C1196  C1199   1.401   .     A
C1196  C1360   1.385   .     S
C1197  C1199   1.398   .     A
C1197  H1211   1.082   .     S
C1197  C1357   1.384   .     S
C1198  C1200   1.399   .     A
C1198  H1212   1.084   .     S
C1201  O1223   1.376   .     S
C1201  N1214   1.366   .     A
C1202  O1225   1.378   .     S
C1202  N1213   1.364   .     A
C1202  C232    1.439   1_556 S
C1203  O1227   1.388   .     S
C1203  N1213   1.378   .     A
C1203  C229    1.441   1_556 S
C1204  O1235   1.385   .     S
C1204  N1214   1.377   .     A
Cu1205 N1213   2.025   .     S
Cu1205 Cu1206  2.694   .     S
Cu1205 O1218   1.957   .     S
Cu1205 O1219   1.959   .     S
Cu1205 O1222   1.958   .     S
Cu1205 O1215   1.959   .     S
Cu1206 N1214   2.025   .     S
Cu1206 O1217   1.957   .     S
Cu1206 O1221   1.958   .     S
Cu1206 O1220   1.959   .     S
Cu1206 O1216   1.959   .     S
H1207  C1247   1.087   .     S
O1223  H1224   0.989   .     S
O1225  H1226   0.991   .     S
O1227  C1228   1.416   .     S
C1228  H1229   1.098   .     S
C1228  C1231   1.523   .     S
C1228  H1230   1.114   .     S
C1231  H1232   1.109   .     S
C1231  H1234   1.111   .     S
H1233  C1285   1.111   .     S
O1235  C1236   1.416   .     S
C1236  C1239   1.522   .     S
C1236  H1238   1.109   .     S
C1236  H1237   1.109   .     S
C1239  H1242   1.109   .     S
C1239  H1240   1.111   .     S
C1239  H1241   1.111   .     S
C1243  O1271   1.295   .     A
C1243  C1254   1.445   .     S
C1243  O1269   1.295   .     A
C1244  O1272   1.292   .     A
C1244  C1253   1.446   .     S
C1244  O1270   1.298   .     A
C1245  C1247   1.435   .     S
C1245  O1273   1.293   .     A
C1245  O1275   1.291   .     A
C1246  O1274   1.290   .     A
C1246  O1276   1.294   .     A
C1246  C1248   1.433   .     S
C1248  C1139   1.333   1_655 S
C1248  H1154   1.086   1_655 S
C1249  C1254   1.399   .     A
C1249  H1263   1.082   .     S
C1250  H1264   1.084   .     S
C1250  C1253   1.401   .     A
C1250  C1414   1.385   .     S
C1251  C1253   1.398   .     A
C1251  H1265   1.082   .     S
C1251  C1411   1.384   .     S
C1252  C1254   1.399   .     A
C1252  H1266   1.084   .     S
C1255  O1277   1.376   .     S
C1255  N1268   1.366   .     A
C1256  O1279   1.378   .     S
C1256  N1267   1.364   .     A
C1256  C286    1.439   1_556 S
C1257  O1281   1.388   .     S
C1257  N1267   1.378   .     A
C1257  C283    1.441   1_556 S
C1258  O1289   1.385   .     S
C1258  N1268   1.377   .     A
Cu1259 N1267   2.025   .     S
Cu1259 Cu1260  2.694   .     S
Cu1259 O1272   1.957   .     S
Cu1259 O1273   1.959   .     S
Cu1259 O1276   1.958   .     S
Cu1259 O1269   1.959   .     S
Cu1260 N1268   2.025   .     S
Cu1260 O1271   1.957   .     S
Cu1260 O1275   1.958   .     S
Cu1260 O1274   1.959   .     S
Cu1260 O1270   1.959   .     S
H1261  C1139   1.087   1_655 S
O1277  H1278   0.989   .     S
O1279  H1280   0.991   .     S
O1281  C1282   1.416   .     S
C1282  H1283   1.098   .     S
C1282  C1285   1.523   .     S
C1282  H1284   1.114   .     S
C1285  H1286   1.109   .     S
C1285  H1288   1.111   .     S
H1287  C1177   1.111   1_655 S
O1289  C1290   1.416   .     S
C1290  C1293   1.522   .     S
C1290  H1292   1.109   .     S
C1290  H1291   1.109   .     S
C1293  H1296   1.109   .     S
C1293  H1294   1.111   .     S
C1293  H1295   1.111   .     S
C1297  O1325   1.295   .     A
C1297  C1308   1.445   .     S
C1297  O1323   1.295   .     A
C1298  O1326   1.292   .     A
C1298  C1307   1.446   .     S
C1298  O1324   1.298   .     A
C1299  C1301   1.435   .     S
C1299  O1327   1.293   .     A
C1299  O1329   1.291   .     A
C1300  O1328   1.290   .     A
C1300  O1330   1.294   .     A
C1300  C1302   1.433   .     S
C1301  C1410   1.333   1_455 S
C1301  H1423   1.087   1_455 S
C1302  C1355   1.333   .     S
C1302  H1370   1.086   .     S
C1303  C1308   1.399   .     A
C1303  H1317   1.082   .     S
C1304  H1318   1.084   .     S
C1304  C1307   1.401   .     A
C1304  C982    1.385   1_565 S
C1305  C1307   1.398   .     A
C1305  H1319   1.082   .     S
C1305  C979    1.384   1_565 S
C1306  C1308   1.399   .     A
C1306  H1320   1.084   .     S
C1309  O1331   1.376   .     S
C1309  N1322   1.366   .     A
C1310  O1333   1.378   .     S
C1310  N1321   1.364   .     A
C1310  C340    1.439   1_556 S
C1311  O1335   1.388   .     S
C1311  N1321   1.378   .     A
C1311  C337    1.441   1_556 S
C1312  O1343   1.385   .     S
C1312  N1322   1.377   .     A
Cu1313 N1321   2.025   .     S
Cu1313 Cu1314  2.694   .     S
Cu1313 O1326   1.957   .     S
Cu1313 O1327   1.959   .     S
Cu1313 O1330   1.958   .     S
Cu1313 O1323   1.959   .     S
Cu1314 N1322   2.025   .     S
Cu1314 O1325   1.957   .     S
Cu1314 O1329   1.958   .     S
Cu1314 O1328   1.959   .     S
Cu1314 O1324   1.959   .     S
H1315  C1355   1.087   .     S
H1316  C1410   1.086   1_455 S
O1331  H1332   0.989   .     S
O1333  H1334   0.991   .     S
O1335  C1336   1.416   .     S
C1336  H1337   1.098   .     S
C1336  C1339   1.523   .     S
C1336  H1338   1.114   .     S
C1339  H1340   1.109   .     S
C1339  H1342   1.111   .     S
C1339  H1449   1.111   1_455 S
H1341  C1393   1.111   .     S
O1343  C1344   1.416   .     S
C1344  C1347   1.522   .     S
C1344  H1346   1.109   .     S
C1344  H1345   1.109   .     S
C1347  H1350   1.109   .     S
C1347  H1348   1.111   .     S
C1347  H1349   1.111   .     S
C1351  O1379   1.295   .     A
C1351  C1362   1.445   .     S
C1351  O1377   1.295   .     A
C1352  O1380   1.292   .     A
C1352  C1361   1.446   .     S
C1352  O1378   1.298   .     A
C1353  C1355   1.435   .     S
C1353  O1381   1.293   .     A
C1353  O1383   1.291   .     A
C1354  O1382   1.290   .     A
C1354  O1384   1.294   .     A
C1354  C1356   1.433   .     S
C1356  C1409   1.333   .     S
C1356  H1424   1.086   .     S
C1357  C1362   1.399   .     A
C1357  H1371   1.082   .     S
C1358  H1372   1.084   .     S
C1358  C1361   1.401   .     A
C1358  C1036   1.385   1_565 S
C1359  C1361   1.398   .     A
C1359  H1373   1.082   .     S
C1359  C1033   1.384   1_565 S
C1360  C1362   1.399   .     A
C1360  H1374   1.084   .     S
C1363  O1385   1.376   .     S
C1363  N1376   1.366   .     A
C1364  O1387   1.378   .     S
C1364  N1375   1.364   .     A
C1364  C394    1.439   1_556 S
C1365  O1389   1.388   .     S
C1365  N1375   1.378   .     A
C1365  C391    1.441   1_556 S
C1366  O1397   1.385   .     S
C1366  N1376   1.377   .     A
Cu1367 N1375   2.025   .     S
Cu1367 Cu1368  2.694   .     S
Cu1367 O1380   1.957   .     S
Cu1367 O1381   1.959   .     S
Cu1367 O1384   1.958   .     S
Cu1367 O1377   1.959   .     S
Cu1368 N1376   2.025   .     S
Cu1368 O1379   1.957   .     S
Cu1368 O1383   1.958   .     S
Cu1368 O1382   1.959   .     S
Cu1368 O1378   1.959   .     S
H1369  C1409   1.087   .     S
O1385  H1386   0.989   .     S
O1387  H1388   0.991   .     S
O1389  C1390   1.416   .     S
C1390  H1391   1.098   .     S
C1390  C1393   1.523   .     S
C1390  H1392   1.114   .     S
C1393  H1394   1.109   .     S
C1393  H1396   1.111   .     S
H1395  C1447   1.111   .     S
O1397  C1398   1.416   .     S
C1398  C1401   1.522   .     S
C1398  H1400   1.109   .     S
C1398  H1399   1.109   .     S
C1401  H1404   1.109   .     S
C1401  H1402   1.111   .     S
C1401  H1403   1.111   .     S
C1405  O1433   1.295   .     A
C1405  C1416   1.445   .     S
C1405  O1431   1.295   .     A
C1406  O1434   1.292   .     A
C1406  C1415   1.446   .     S
C1406  O1432   1.298   .     A
C1407  C1409   1.435   .     S
C1407  O1435   1.293   .     A
C1407  O1437   1.291   .     A
C1408  O1436   1.290   .     A
C1408  O1438   1.294   .     A
C1408  C1410   1.433   .     S
C1410  C1301   1.333   1_655 S
C1410  H1316   1.086   1_655 S
C1411  C1416   1.399   .     A
C1411  H1425   1.082   .     S
C1412  H1426   1.084   .     S
C1412  C1415   1.401   .     A
C1412  C1090   1.385   1_565 S
C1413  C1415   1.398   .     A
C1413  H1427   1.082   .     S
C1413  C1087   1.384   1_565 S
C1414  C1416   1.399   .     A
C1414  H1428   1.084   .     S
C1417  O1439   1.376   .     S
C1417  N1430   1.366   .     A
C1418  O1441   1.378   .     S
C1418  N1429   1.364   .     A
C1418  C448    1.439   1_556 S
C1419  O1443   1.388   .     S
C1419  N1429   1.378   .     A
C1419  C445    1.441   1_556 S
C1420  O1451   1.385   .     S
C1420  N1430   1.377   .     A
Cu1421 N1429   2.025   .     S
Cu1421 Cu1422  2.694   .     S
Cu1421 O1434   1.957   .     S
Cu1421 O1435   1.959   .     S
Cu1421 O1438   1.958   .     S
Cu1421 O1431   1.959   .     S
Cu1422 N1430   2.025   .     S
Cu1422 O1433   1.957   .     S
Cu1422 O1437   1.958   .     S
Cu1422 O1436   1.959   .     S
Cu1422 O1432   1.959   .     S
H1423  C1301   1.087   1_655 S
O1439  H1440   0.989   .     S
O1441  H1442   0.991   .     S
O1443  C1444   1.416   .     S
C1444  H1445   1.098   .     S
C1444  C1447   1.523   .     S
C1444  H1446   1.114   .     S
C1447  H1448   1.109   .     S
C1447  H1450   1.111   .     S
H1449  C1339   1.111   1_655 S
O1451  C1452   1.416   .     S
C1452  C1455   1.522   .     S
C1452  H1454   1.109   .     S
C1452  H1453   1.109   .     S
C1455  H1458   1.109   .     S
C1455  H1456   1.111   .     S
C1455  H1457   1.111   .     S
