data_str_m2_o1_o16_pcu_sym.95
_audit_creation_date              2020-01-03
_audit_creation_method            'Materials Studio'
_symmetry_space_group_name_H-M    'P1'
_symmetry_Int_Tables_number       1
_symmetry_cell_setting            triclinic
loop_
_symmetry_equiv_pos_as_xyz
  x,y,z
_cell_length_a                    28.4787
_cell_length_b                    32.6048
_cell_length_c                    27.0329
_cell_angle_alpha                 90.1965
_cell_angle_beta                  73.2788
_cell_angle_gamma                 89.3354
loop_
_atom_site_label
_atom_site_type_symbol
_atom_site_fract_x
_atom_site_fract_y
_atom_site_fract_z
_atom_site_U_iso_or_equiv
_atom_site_adp_type
_atom_site_occupancy
C1     C     0.16632   0.24599   0.25002   0.00000  Uiso   1.00
C2     C     0.12604   0.16904   0.40674   0.00000  Uiso   1.00
C3     C     0.21024   0.31093   0.24238   0.00000  Uiso   1.00
C4     C     0.14080   0.16881   0.34989   0.00000  Uiso   1.00
C5     C     0.21161   0.02016   0.24336   0.00000  Uiso   1.00
C6     C     0.16766   0.04272   0.24987   0.00000  Uiso   1.00
C7     C     0.12319   0.02238   0.25707   0.00000  Uiso   1.00
C8     C     0.12185   0.31316   0.25604   0.00000  Uiso   1.00
C9     C     0.16576   0.29060   0.24972   0.00000  Uiso   1.00
C10    C     0.30089   0.19591   0.27676   0.00000  Uiso   1.00
C11    C     0.01711   0.19573   0.27704   0.00000  Uiso   1.00
C12    C     0.14727   0.16999   0.48834   0.00000  Uiso   1.00
C13    C     0.03245   0.13737   0.22331   0.00000  Uiso   1.00
C14    C     0.31622   0.13757   0.22300   0.00000  Uiso   1.00
C15    C     0.16705   0.08734   0.24984   0.00000  Uiso   1.00
C16    C     0.19236   0.16854   0.15023   0.00000  Uiso   1.00
C17    C     0.26781   0.18275   0.01241   0.00000  Uiso   1.00
C18    C     0.20590   0.17297   0.09398   0.00000  Uiso   1.00
C19    C     0.08041   0.15224   0.43255   0.00000  Uiso   1.00
C20    C     0.06981   0.14151   0.48415   0.00000  Uiso   1.00
C21    C     0.10391   0.14841   0.01096   0.00000  Uiso   1.00
C22    C     0.27410   0.03544   0.27694   0.00000  Uiso   1.00
C23    C     0.15919   0.17976   0.43521   0.00000  Uiso   1.00
C24    C     0.06045   0.29731   0.22119   0.00000  Uiso   1.00
C25    C     0.08655   0.19421   0.11477   0.00000  Uiso   1.00
C26    C     0.18176   0.17786   0.01574   0.00000  Uiso   1.00
C27    C     0.23093   0.18565   0.48778   0.00000  Uiso   1.00
C28    C     0.24168   0.19779   0.43645   0.00000  Uiso   1.00
C29    C     0.20482   0.19838   0.41207   0.00000  Uiso   1.00
C30    C     0.16862   0.18066   0.06996   0.00000  Uiso   1.00
C31    C     0.25544   0.17338   0.06476   0.00000  Uiso   1.00
Cu32   Cu    0.11978   0.16666   0.25000   0.00000  Uiso   1.00
Cu33   Cu    0.21355   0.16667   0.25000   0.00000  Uiso   1.00
H34    H     0.28441   0.16943   0.08302   0.00000  Uiso   1.00
H35    H     0.09728   0.13459   0.04839   0.00000  Uiso   1.00
H36    H     0.03617   0.12568   0.00267   0.00000  Uiso   1.00
H37    H     0.21324   0.21256   0.37469   0.00000  Uiso   1.00
H38    H     0.24442   0.29385   0.23542   0.00000  Uiso   1.00
H39    H     0.24730   0.04798   0.31248   0.00000  Uiso   1.00
H40    H     0.30820   0.05338   0.27017   0.00000  Uiso   1.00
H41    H     0.28365   0.00302   0.28284   0.00000  Uiso   1.00
H42    H     0.02650   0.27923   0.22745   0.00000  Uiso   1.00
H43    H     0.08786   0.28457   0.18622   0.00000  Uiso   1.00
H44    H     0.05102   0.32963   0.21459   0.00000  Uiso   1.00
H45    H     0.08901   0.03942   0.26386   0.00000  Uiso   1.00
H46    H     0.06884   0.21116   0.15113   0.00000  Uiso   1.00
H47    H     0.08666   0.16119   0.12472   0.00000  Uiso   1.00
H48    H     0.06354   0.19985   0.08857   0.00000  Uiso   1.00
H49    H     0.27626   0.21960   0.29776   0.00000  Uiso   1.00
H50    H     0.02961   0.21891   0.29883   0.00000  Uiso   1.00
H51    H     0.05732   0.11396   0.20180   0.00000  Uiso   1.00
H52    H     0.30376   0.11447   0.20108   0.00000  Uiso   1.00
H53    H     0.27806   0.20809   0.41573   0.00000  Uiso   1.00
H54    H     0.30593   0.18697   0.49110   0.00000  Uiso   1.00
H55    H     0.05439   0.14420   0.41184   0.00000  Uiso   1.00
N56    N     0.04931   0.16666   0.24999   0.00000  Uiso   1.00
N57    N     0.28402   0.16669   0.25000   0.00000  Uiso   1.00
O58    O     0.12708   0.22678   0.25001   0.00000  Uiso   1.00
O59    O     0.07713   0.29386   0.26539   0.00000  Uiso   1.00
O60    O     0.13365   0.21044   0.09316   0.00000  Uiso   1.00
O61    O     0.20627   0.22679   0.25001   0.00000  Uiso   1.00
O62    O     0.10775   0.16665   0.32549   0.00000  Uiso   1.00
O63    O     0.18694   0.16666   0.32549   0.00000  Uiso   1.00
O64    O     0.12706   0.10654   0.25000   0.00000  Uiso   1.00
O65    O     0.20625   0.10655   0.25000   0.00000  Uiso   1.00
O66    O     0.14640   0.16667   0.17451   0.00000  Uiso   1.00
O67    O     0.22559   0.16668   0.17451   0.00000  Uiso   1.00
O68    O     0.25637   0.03949   0.23350   0.00000  Uiso   1.00
C69    C     0.49965   0.24599   0.25002   0.00000  Uiso   1.00
C70    C     0.45937   0.16904   0.40674   0.00000  Uiso   1.00
C71    C     0.54358   0.31093   0.24238   0.00000  Uiso   1.00
C72    C     0.47413   0.16881   0.34989   0.00000  Uiso   1.00
C73    C     0.54495   0.02016   0.24336   0.00000  Uiso   1.00
C74    C     0.50099   0.04272   0.24987   0.00000  Uiso   1.00
C75    C     0.45653   0.02238   0.25707   0.00000  Uiso   1.00
C76    C     0.45519   0.31316   0.25604   0.00000  Uiso   1.00
C77    C     0.49910   0.29060   0.24972   0.00000  Uiso   1.00
C78    C     0.63422   0.19591   0.27676   0.00000  Uiso   1.00
C79    C     0.35044   0.19573   0.27704   0.00000  Uiso   1.00
C80    C     0.48060   0.16999   0.48834   0.00000  Uiso   1.00
C81    C     0.36578   0.13737   0.22331   0.00000  Uiso   1.00
C82    C     0.64956   0.13757   0.22300   0.00000  Uiso   1.00
C83    C     0.50038   0.08734   0.24984   0.00000  Uiso   1.00
C84    C     0.52569   0.16854   0.15023   0.00000  Uiso   1.00
C85    C     0.60114   0.18275   0.01241   0.00000  Uiso   1.00
C86    C     0.53923   0.17297   0.09398   0.00000  Uiso   1.00
C87    C     0.41374   0.15224   0.43255   0.00000  Uiso   1.00
C88    C     0.40315   0.14151   0.48415   0.00000  Uiso   1.00
C89    C     0.43725   0.14841   0.01096   0.00000  Uiso   1.00
C90    C     0.60743   0.03544   0.27694   0.00000  Uiso   1.00
C91    C     0.49252   0.17976   0.43521   0.00000  Uiso   1.00
C92    C     0.39378   0.29731   0.22119   0.00000  Uiso   1.00
C93    C     0.41989   0.19421   0.11477   0.00000  Uiso   1.00
C94    C     0.51509   0.17786   0.01574   0.00000  Uiso   1.00
C95    C     0.56426   0.18565   0.48778   0.00000  Uiso   1.00
C96    C     0.57501   0.19779   0.43645   0.00000  Uiso   1.00
C97    C     0.53815   0.19838   0.41207   0.00000  Uiso   1.00
C98    C     0.50196   0.18066   0.06996   0.00000  Uiso   1.00
C99    C     0.58877   0.17338   0.06476   0.00000  Uiso   1.00
Cu100  Cu    0.45311   0.16666   0.25000   0.00000  Uiso   1.00
Cu101  Cu    0.54689   0.16667   0.25000   0.00000  Uiso   1.00
H102   H     0.61775   0.16943   0.08302   0.00000  Uiso   1.00
H103   H     0.43062   0.13459   0.04839   0.00000  Uiso   1.00
H104   H     0.36950   0.12568   0.00267   0.00000  Uiso   1.00
H105   H     0.54657   0.21256   0.37469   0.00000  Uiso   1.00
H106   H     0.57775   0.29385   0.23542   0.00000  Uiso   1.00
H107   H     0.58063   0.04798   0.31248   0.00000  Uiso   1.00
H108   H     0.64153   0.05338   0.27017   0.00000  Uiso   1.00
H109   H     0.61698   0.00302   0.28284   0.00000  Uiso   1.00
H110   H     0.35983   0.27923   0.22745   0.00000  Uiso   1.00
H111   H     0.42120   0.28457   0.18622   0.00000  Uiso   1.00
H112   H     0.38435   0.32963   0.21459   0.00000  Uiso   1.00
H113   H     0.42235   0.03942   0.26386   0.00000  Uiso   1.00
H114   H     0.40217   0.21116   0.15113   0.00000  Uiso   1.00
H115   H     0.42000   0.16119   0.12472   0.00000  Uiso   1.00
H116   H     0.39688   0.19985   0.08857   0.00000  Uiso   1.00
H117   H     0.60960   0.21960   0.29776   0.00000  Uiso   1.00
H118   H     0.36294   0.21891   0.29883   0.00000  Uiso   1.00
H119   H     0.39065   0.11396   0.20180   0.00000  Uiso   1.00
H120   H     0.63709   0.11447   0.20108   0.00000  Uiso   1.00
H121   H     0.61139   0.20809   0.41573   0.00000  Uiso   1.00
H122   H     0.63926   0.18697   0.49110   0.00000  Uiso   1.00
H123   H     0.38772   0.14420   0.41184   0.00000  Uiso   1.00
N124   N     0.38265   0.16666   0.24999   0.00000  Uiso   1.00
N125   N     0.61735   0.16669   0.25000   0.00000  Uiso   1.00
O126   O     0.46042   0.22678   0.25001   0.00000  Uiso   1.00
O127   O     0.41046   0.29386   0.26539   0.00000  Uiso   1.00
O128   O     0.46698   0.21044   0.09316   0.00000  Uiso   1.00
O129   O     0.53961   0.22679   0.25001   0.00000  Uiso   1.00
O130   O     0.44108   0.16665   0.32549   0.00000  Uiso   1.00
O131   O     0.52027   0.16666   0.32549   0.00000  Uiso   1.00
O132   O     0.46039   0.10654   0.25000   0.00000  Uiso   1.00
O133   O     0.53958   0.10655   0.25000   0.00000  Uiso   1.00
O134   O     0.47973   0.16667   0.17451   0.00000  Uiso   1.00
O135   O     0.55892   0.16668   0.17451   0.00000  Uiso   1.00
O136   O     0.58971   0.03949   0.23350   0.00000  Uiso   1.00
C137   C     0.83299   0.24599   0.25002   0.00000  Uiso   1.00
C138   C     0.79270   0.16904   0.40674   0.00000  Uiso   1.00
C139   C     0.87691   0.31093   0.24238   0.00000  Uiso   1.00
C140   C     0.80747   0.16881   0.34989   0.00000  Uiso   1.00
C141   C     0.87828   0.02016   0.24336   0.00000  Uiso   1.00
C142   C     0.83433   0.04272   0.24987   0.00000  Uiso   1.00
C143   C     0.78986   0.02238   0.25707   0.00000  Uiso   1.00
C144   C     0.78852   0.31316   0.25604   0.00000  Uiso   1.00
C145   C     0.83243   0.29060   0.24972   0.00000  Uiso   1.00
C146   C     0.96755   0.19591   0.27676   0.00000  Uiso   1.00
C147   C     0.68377   0.19573   0.27704   0.00000  Uiso   1.00
C148   C     0.81394   0.16999   0.48834   0.00000  Uiso   1.00
C149   C     0.69912   0.13737   0.22331   0.00000  Uiso   1.00
C150   C     0.98289   0.13757   0.22300   0.00000  Uiso   1.00
C151   C     0.83371   0.08734   0.24984   0.00000  Uiso   1.00
C152   C     0.85903   0.16854   0.15023   0.00000  Uiso   1.00
C153   C     0.93447   0.18275   0.01241   0.00000  Uiso   1.00
C154   C     0.87257   0.17297   0.09398   0.00000  Uiso   1.00
C155   C     0.74707   0.15224   0.43255   0.00000  Uiso   1.00
C156   C     0.73648   0.14151   0.48415   0.00000  Uiso   1.00
C157   C     0.77058   0.14841   0.01096   0.00000  Uiso   1.00
C158   C     0.94077   0.03544   0.27694   0.00000  Uiso   1.00
C159   C     0.82586   0.17976   0.43521   0.00000  Uiso   1.00
C160   C     0.72711   0.29731   0.22119   0.00000  Uiso   1.00
C161   C     0.75322   0.19421   0.11477   0.00000  Uiso   1.00
C162   C     0.84843   0.17786   0.01574   0.00000  Uiso   1.00
C163   C     0.89759   0.18565   0.48778   0.00000  Uiso   1.00
C164   C     0.90835   0.19779   0.43645   0.00000  Uiso   1.00
C165   C     0.87149   0.19838   0.41207   0.00000  Uiso   1.00
C166   C     0.83529   0.18066   0.06996   0.00000  Uiso   1.00
C167   C     0.92210   0.17338   0.06476   0.00000  Uiso   1.00
Cu168  Cu    0.78645   0.16666   0.25000   0.00000  Uiso   1.00
Cu169  Cu    0.88022   0.16667   0.25000   0.00000  Uiso   1.00
H170   H     0.95108   0.16943   0.08302   0.00000  Uiso   1.00
H171   H     0.76395   0.13459   0.04839   0.00000  Uiso   1.00
H172   H     0.70283   0.12568   0.00267   0.00000  Uiso   1.00
H173   H     0.87991   0.21256   0.37469   0.00000  Uiso   1.00
H174   H     0.91108   0.29385   0.23542   0.00000  Uiso   1.00
H175   H     0.91397   0.04798   0.31248   0.00000  Uiso   1.00
H176   H     0.97486   0.05338   0.27017   0.00000  Uiso   1.00
H177   H     0.95031   0.00302   0.28284   0.00000  Uiso   1.00
H178   H     0.69317   0.27923   0.22745   0.00000  Uiso   1.00
H179   H     0.75453   0.28457   0.18622   0.00000  Uiso   1.00
H180   H     0.71769   0.32963   0.21459   0.00000  Uiso   1.00
H181   H     0.75568   0.03942   0.26386   0.00000  Uiso   1.00
H182   H     0.73550   0.21116   0.15113   0.00000  Uiso   1.00
H183   H     0.75333   0.16119   0.12472   0.00000  Uiso   1.00
H184   H     0.73021   0.19985   0.08857   0.00000  Uiso   1.00
H185   H     0.94293   0.21960   0.29776   0.00000  Uiso   1.00
H186   H     0.69628   0.21891   0.29883   0.00000  Uiso   1.00
H187   H     0.72398   0.11396   0.20180   0.00000  Uiso   1.00
H188   H     0.97042   0.11447   0.20108   0.00000  Uiso   1.00
H189   H     0.94473   0.20809   0.41573   0.00000  Uiso   1.00
H190   H     0.97260   0.18697   0.49110   0.00000  Uiso   1.00
H191   H     0.72105   0.14420   0.41184   0.00000  Uiso   1.00
N192   N     0.71598   0.16666   0.24999   0.00000  Uiso   1.00
N193   N     0.95069   0.16669   0.25000   0.00000  Uiso   1.00
O194   O     0.79375   0.22678   0.25001   0.00000  Uiso   1.00
O195   O     0.74379   0.29386   0.26539   0.00000  Uiso   1.00
O196   O     0.80031   0.21044   0.09316   0.00000  Uiso   1.00
O197   O     0.87294   0.22679   0.25001   0.00000  Uiso   1.00
O198   O     0.77441   0.16665   0.32549   0.00000  Uiso   1.00
O199   O     0.85360   0.16666   0.32549   0.00000  Uiso   1.00
O200   O     0.79373   0.10654   0.25000   0.00000  Uiso   1.00
O201   O     0.87292   0.10655   0.25000   0.00000  Uiso   1.00
O202   O     0.81306   0.16667   0.17451   0.00000  Uiso   1.00
O203   O     0.89225   0.16668   0.17451   0.00000  Uiso   1.00
O204   O     0.92304   0.03949   0.23350   0.00000  Uiso   1.00
C205   C     0.16632   0.57933   0.25002   0.00000  Uiso   1.00
C206   C     0.12604   0.50237   0.40674   0.00000  Uiso   1.00
C207   C     0.21024   0.64426   0.24238   0.00000  Uiso   1.00
C208   C     0.14080   0.50215   0.34989   0.00000  Uiso   1.00
C209   C     0.21161   0.35349   0.24336   0.00000  Uiso   1.00
C210   C     0.16766   0.37605   0.24987   0.00000  Uiso   1.00
C211   C     0.12319   0.35571   0.25707   0.00000  Uiso   1.00
C212   C     0.12185   0.64649   0.25604   0.00000  Uiso   1.00
C213   C     0.16576   0.62393   0.24972   0.00000  Uiso   1.00
C214   C     0.30089   0.52924   0.27676   0.00000  Uiso   1.00
C215   C     0.01711   0.52906   0.27704   0.00000  Uiso   1.00
C216   C     0.14727   0.50333   0.48834   0.00000  Uiso   1.00
C217   C     0.03245   0.47070   0.22331   0.00000  Uiso   1.00
C218   C     0.31622   0.47090   0.22300   0.00000  Uiso   1.00
C219   C     0.16705   0.42067   0.24984   0.00000  Uiso   1.00
C220   C     0.19236   0.50187   0.15023   0.00000  Uiso   1.00
C221   C     0.26781   0.51608   0.01241   0.00000  Uiso   1.00
C222   C     0.20590   0.50630   0.09398   0.00000  Uiso   1.00
C223   C     0.08041   0.48558   0.43255   0.00000  Uiso   1.00
C224   C     0.06981   0.47484   0.48415   0.00000  Uiso   1.00
C225   C     0.10391   0.48174   0.01096   0.00000  Uiso   1.00
C226   C     0.27410   0.36877   0.27694   0.00000  Uiso   1.00
C227   C     0.15919   0.51309   0.43521   0.00000  Uiso   1.00
C228   C     0.06045   0.63064   0.22119   0.00000  Uiso   1.00
C229   C     0.08655   0.52754   0.11477   0.00000  Uiso   1.00
C230   C     0.18176   0.51119   0.01574   0.00000  Uiso   1.00
C231   C     0.23093   0.51898   0.48778   0.00000  Uiso   1.00
C232   C     0.24168   0.53113   0.43645   0.00000  Uiso   1.00
C233   C     0.20482   0.53171   0.41207   0.00000  Uiso   1.00
C234   C     0.16862   0.51399   0.06996   0.00000  Uiso   1.00
C235   C     0.25544   0.50672   0.06476   0.00000  Uiso   1.00
Cu236  Cu    0.11978   0.49999   0.25000   0.00000  Uiso   1.00
Cu237  Cu    0.21355   0.50001   0.25000   0.00000  Uiso   1.00
H238   H     0.28441   0.50276   0.08302   0.00000  Uiso   1.00
H239   H     0.09728   0.46792   0.04839   0.00000  Uiso   1.00
H240   H     0.03617   0.45901   0.00267   0.00000  Uiso   1.00
H241   H     0.21324   0.54589   0.37469   0.00000  Uiso   1.00
H242   H     0.24442   0.62718   0.23542   0.00000  Uiso   1.00
H243   H     0.24730   0.38131   0.31248   0.00000  Uiso   1.00
H244   H     0.30820   0.38671   0.27017   0.00000  Uiso   1.00
H245   H     0.28365   0.33635   0.28284   0.00000  Uiso   1.00
H246   H     0.02650   0.61257   0.22745   0.00000  Uiso   1.00
H247   H     0.08786   0.61790   0.18622   0.00000  Uiso   1.00
H248   H     0.05102   0.66296   0.21459   0.00000  Uiso   1.00
H249   H     0.08901   0.37275   0.26386   0.00000  Uiso   1.00
H250   H     0.06884   0.54449   0.15113   0.00000  Uiso   1.00
H251   H     0.08666   0.49452   0.12472   0.00000  Uiso   1.00
H252   H     0.06354   0.53318   0.08857   0.00000  Uiso   1.00
H253   H     0.27626   0.55294   0.29776   0.00000  Uiso   1.00
H254   H     0.02961   0.55225   0.29883   0.00000  Uiso   1.00
H255   H     0.05732   0.44729   0.20180   0.00000  Uiso   1.00
H256   H     0.30376   0.44780   0.20108   0.00000  Uiso   1.00
H257   H     0.27806   0.54143   0.41573   0.00000  Uiso   1.00
H258   H     0.30593   0.52031   0.49110   0.00000  Uiso   1.00
H259   H     0.05439   0.47753   0.41184   0.00000  Uiso   1.00
N260   N     0.04931   0.49999   0.24999   0.00000  Uiso   1.00
N261   N     0.28402   0.50002   0.25000   0.00000  Uiso   1.00
O262   O     0.12708   0.56011   0.25001   0.00000  Uiso   1.00
O263   O     0.07713   0.62719   0.26539   0.00000  Uiso   1.00
O264   O     0.13365   0.54377   0.09316   0.00000  Uiso   1.00
O265   O     0.20627   0.56012   0.25001   0.00000  Uiso   1.00
O266   O     0.10775   0.49998   0.32549   0.00000  Uiso   1.00
O267   O     0.18694   0.49999   0.32549   0.00000  Uiso   1.00
O268   O     0.12706   0.43988   0.25000   0.00000  Uiso   1.00
O269   O     0.20625   0.43989   0.25000   0.00000  Uiso   1.00
O270   O     0.14640   0.50001   0.17451   0.00000  Uiso   1.00
O271   O     0.22559   0.50002   0.17451   0.00000  Uiso   1.00
O272   O     0.25637   0.37282   0.23350   0.00000  Uiso   1.00
C273   C     0.49965   0.57933   0.25002   0.00000  Uiso   1.00
C274   C     0.45937   0.50237   0.40674   0.00000  Uiso   1.00
C275   C     0.54358   0.64426   0.24238   0.00000  Uiso   1.00
C276   C     0.47413   0.50215   0.34989   0.00000  Uiso   1.00
C277   C     0.54495   0.35349   0.24336   0.00000  Uiso   1.00
C278   C     0.50099   0.37605   0.24987   0.00000  Uiso   1.00
C279   C     0.45653   0.35571   0.25707   0.00000  Uiso   1.00
C280   C     0.45519   0.64649   0.25604   0.00000  Uiso   1.00
C281   C     0.49910   0.62393   0.24972   0.00000  Uiso   1.00
C282   C     0.63422   0.52924   0.27676   0.00000  Uiso   1.00
C283   C     0.35044   0.52906   0.27704   0.00000  Uiso   1.00
C284   C     0.48060   0.50333   0.48834   0.00000  Uiso   1.00
C285   C     0.36578   0.47070   0.22331   0.00000  Uiso   1.00
C286   C     0.64956   0.47090   0.22300   0.00000  Uiso   1.00
C287   C     0.50038   0.42067   0.24984   0.00000  Uiso   1.00
C288   C     0.52569   0.50187   0.15023   0.00000  Uiso   1.00
C289   C     0.60114   0.51608   0.01241   0.00000  Uiso   1.00
C290   C     0.53923   0.50630   0.09398   0.00000  Uiso   1.00
C291   C     0.41374   0.48558   0.43255   0.00000  Uiso   1.00
C292   C     0.40315   0.47484   0.48415   0.00000  Uiso   1.00
C293   C     0.43725   0.48174   0.01096   0.00000  Uiso   1.00
C294   C     0.60743   0.36877   0.27694   0.00000  Uiso   1.00
C295   C     0.49252   0.51309   0.43521   0.00000  Uiso   1.00
C296   C     0.39378   0.63064   0.22119   0.00000  Uiso   1.00
C297   C     0.41989   0.52754   0.11477   0.00000  Uiso   1.00
C298   C     0.51509   0.51119   0.01574   0.00000  Uiso   1.00
C299   C     0.56426   0.51898   0.48778   0.00000  Uiso   1.00
C300   C     0.57501   0.53113   0.43645   0.00000  Uiso   1.00
C301   C     0.53815   0.53171   0.41207   0.00000  Uiso   1.00
C302   C     0.50196   0.51399   0.06996   0.00000  Uiso   1.00
C303   C     0.58877   0.50672   0.06476   0.00000  Uiso   1.00
Cu304  Cu    0.45311   0.49999   0.25000   0.00000  Uiso   1.00
Cu305  Cu    0.54689   0.50001   0.25000   0.00000  Uiso   1.00
H306   H     0.61775   0.50276   0.08302   0.00000  Uiso   1.00
H307   H     0.43062   0.46792   0.04839   0.00000  Uiso   1.00
H308   H     0.36950   0.45901   0.00267   0.00000  Uiso   1.00
H309   H     0.54657   0.54589   0.37469   0.00000  Uiso   1.00
H310   H     0.57775   0.62718   0.23542   0.00000  Uiso   1.00
H311   H     0.58063   0.38131   0.31248   0.00000  Uiso   1.00
H312   H     0.64153   0.38671   0.27017   0.00000  Uiso   1.00
H313   H     0.61698   0.33635   0.28284   0.00000  Uiso   1.00
H314   H     0.35983   0.61257   0.22745   0.00000  Uiso   1.00
H315   H     0.42120   0.61790   0.18622   0.00000  Uiso   1.00
H316   H     0.38435   0.66296   0.21459   0.00000  Uiso   1.00
H317   H     0.42235   0.37275   0.26386   0.00000  Uiso   1.00
H318   H     0.40217   0.54449   0.15113   0.00000  Uiso   1.00
H319   H     0.42000   0.49452   0.12472   0.00000  Uiso   1.00
H320   H     0.39688   0.53318   0.08857   0.00000  Uiso   1.00
H321   H     0.60960   0.55294   0.29776   0.00000  Uiso   1.00
H322   H     0.36294   0.55225   0.29883   0.00000  Uiso   1.00
H323   H     0.39065   0.44729   0.20180   0.00000  Uiso   1.00
H324   H     0.63709   0.44780   0.20108   0.00000  Uiso   1.00
H325   H     0.61139   0.54143   0.41573   0.00000  Uiso   1.00
H326   H     0.63926   0.52031   0.49110   0.00000  Uiso   1.00
H327   H     0.38772   0.47753   0.41184   0.00000  Uiso   1.00
N328   N     0.38265   0.49999   0.24999   0.00000  Uiso   1.00
N329   N     0.61735   0.50002   0.25000   0.00000  Uiso   1.00
O330   O     0.46042   0.56011   0.25001   0.00000  Uiso   1.00
O331   O     0.41046   0.62719   0.26539   0.00000  Uiso   1.00
O332   O     0.46698   0.54377   0.09316   0.00000  Uiso   1.00
O333   O     0.53961   0.56012   0.25001   0.00000  Uiso   1.00
O334   O     0.44108   0.49998   0.32549   0.00000  Uiso   1.00
O335   O     0.52027   0.49999   0.32549   0.00000  Uiso   1.00
O336   O     0.46039   0.43988   0.25000   0.00000  Uiso   1.00
O337   O     0.53958   0.43989   0.25000   0.00000  Uiso   1.00
O338   O     0.47973   0.50001   0.17451   0.00000  Uiso   1.00
O339   O     0.55892   0.50002   0.17451   0.00000  Uiso   1.00
O340   O     0.58971   0.37282   0.23350   0.00000  Uiso   1.00
C341   C     0.83299   0.57933   0.25002   0.00000  Uiso   1.00
C342   C     0.79270   0.50237   0.40674   0.00000  Uiso   1.00
C343   C     0.87691   0.64426   0.24238   0.00000  Uiso   1.00
C344   C     0.80747   0.50215   0.34989   0.00000  Uiso   1.00
C345   C     0.87828   0.35349   0.24336   0.00000  Uiso   1.00
C346   C     0.83433   0.37605   0.24987   0.00000  Uiso   1.00
C347   C     0.78986   0.35571   0.25707   0.00000  Uiso   1.00
C348   C     0.78852   0.64649   0.25604   0.00000  Uiso   1.00
C349   C     0.83243   0.62393   0.24972   0.00000  Uiso   1.00
C350   C     0.96755   0.52924   0.27676   0.00000  Uiso   1.00
C351   C     0.68377   0.52906   0.27704   0.00000  Uiso   1.00
C352   C     0.81394   0.50333   0.48834   0.00000  Uiso   1.00
C353   C     0.69912   0.47070   0.22331   0.00000  Uiso   1.00
C354   C     0.98289   0.47090   0.22300   0.00000  Uiso   1.00
C355   C     0.83371   0.42067   0.24984   0.00000  Uiso   1.00
C356   C     0.85903   0.50187   0.15023   0.00000  Uiso   1.00
C357   C     0.93447   0.51608   0.01241   0.00000  Uiso   1.00
C358   C     0.87257   0.50630   0.09398   0.00000  Uiso   1.00
C359   C     0.74707   0.48558   0.43255   0.00000  Uiso   1.00
C360   C     0.73648   0.47484   0.48415   0.00000  Uiso   1.00
C361   C     0.77058   0.48174   0.01096   0.00000  Uiso   1.00
C362   C     0.94077   0.36877   0.27694   0.00000  Uiso   1.00
C363   C     0.82586   0.51309   0.43521   0.00000  Uiso   1.00
C364   C     0.72711   0.63064   0.22119   0.00000  Uiso   1.00
C365   C     0.75322   0.52754   0.11477   0.00000  Uiso   1.00
C366   C     0.84843   0.51119   0.01574   0.00000  Uiso   1.00
C367   C     0.89759   0.51898   0.48778   0.00000  Uiso   1.00
C368   C     0.90835   0.53113   0.43645   0.00000  Uiso   1.00
C369   C     0.87149   0.53171   0.41207   0.00000  Uiso   1.00
C370   C     0.83529   0.51399   0.06996   0.00000  Uiso   1.00
C371   C     0.92210   0.50672   0.06476   0.00000  Uiso   1.00
Cu372  Cu    0.78645   0.49999   0.25000   0.00000  Uiso   1.00
Cu373  Cu    0.88022   0.50001   0.25000   0.00000  Uiso   1.00
H374   H     0.95108   0.50276   0.08302   0.00000  Uiso   1.00
H375   H     0.76395   0.46792   0.04839   0.00000  Uiso   1.00
H376   H     0.70283   0.45901   0.00267   0.00000  Uiso   1.00
H377   H     0.87991   0.54589   0.37469   0.00000  Uiso   1.00
H378   H     0.91108   0.62718   0.23542   0.00000  Uiso   1.00
H379   H     0.91397   0.38131   0.31248   0.00000  Uiso   1.00
H380   H     0.97486   0.38671   0.27017   0.00000  Uiso   1.00
H381   H     0.95031   0.33635   0.28284   0.00000  Uiso   1.00
H382   H     0.69317   0.61257   0.22745   0.00000  Uiso   1.00
H383   H     0.75453   0.61790   0.18622   0.00000  Uiso   1.00
H384   H     0.71769   0.66296   0.21459   0.00000  Uiso   1.00
H385   H     0.75568   0.37275   0.26386   0.00000  Uiso   1.00
H386   H     0.73550   0.54449   0.15113   0.00000  Uiso   1.00
H387   H     0.75333   0.49452   0.12472   0.00000  Uiso   1.00
H388   H     0.73021   0.53318   0.08857   0.00000  Uiso   1.00
H389   H     0.94293   0.55294   0.29776   0.00000  Uiso   1.00
H390   H     0.69628   0.55225   0.29883   0.00000  Uiso   1.00
H391   H     0.72398   0.44729   0.20180   0.00000  Uiso   1.00
H392   H     0.97042   0.44780   0.20108   0.00000  Uiso   1.00
H393   H     0.94473   0.54143   0.41573   0.00000  Uiso   1.00
H394   H     0.97260   0.52031   0.49110   0.00000  Uiso   1.00
H395   H     0.72105   0.47753   0.41184   0.00000  Uiso   1.00
N396   N     0.71598   0.49999   0.24999   0.00000  Uiso   1.00
N397   N     0.95069   0.50002   0.25000   0.00000  Uiso   1.00
O398   O     0.79375   0.56011   0.25001   0.00000  Uiso   1.00
O399   O     0.74379   0.62719   0.26539   0.00000  Uiso   1.00
O400   O     0.80031   0.54377   0.09316   0.00000  Uiso   1.00
O401   O     0.87294   0.56012   0.25001   0.00000  Uiso   1.00
O402   O     0.77441   0.49998   0.32549   0.00000  Uiso   1.00
O403   O     0.85360   0.49999   0.32549   0.00000  Uiso   1.00
O404   O     0.79373   0.43988   0.25000   0.00000  Uiso   1.00
O405   O     0.87292   0.43989   0.25000   0.00000  Uiso   1.00
O406   O     0.81306   0.50001   0.17451   0.00000  Uiso   1.00
O407   O     0.89225   0.50002   0.17451   0.00000  Uiso   1.00
O408   O     0.92304   0.37282   0.23350   0.00000  Uiso   1.00
C409   C     0.16632   0.91266   0.25002   0.00000  Uiso   1.00
C410   C     0.12604   0.83570   0.40674   0.00000  Uiso   1.00
C411   C     0.21024   0.97760   0.24238   0.00000  Uiso   1.00
C412   C     0.14080   0.83548   0.34989   0.00000  Uiso   1.00
C413   C     0.21161   0.68683   0.24336   0.00000  Uiso   1.00
C414   C     0.16766   0.70938   0.24987   0.00000  Uiso   1.00
C415   C     0.12319   0.68904   0.25707   0.00000  Uiso   1.00
C416   C     0.12185   0.97983   0.25604   0.00000  Uiso   1.00
C417   C     0.16576   0.95727   0.24972   0.00000  Uiso   1.00
C418   C     0.30089   0.86258   0.27676   0.00000  Uiso   1.00
C419   C     0.01711   0.86240   0.27704   0.00000  Uiso   1.00
C420   C     0.14727   0.83666   0.48834   0.00000  Uiso   1.00
C421   C     0.03245   0.80403   0.22331   0.00000  Uiso   1.00
C422   C     0.31622   0.80424   0.22300   0.00000  Uiso   1.00
C423   C     0.16705   0.75400   0.24984   0.00000  Uiso   1.00
C424   C     0.19236   0.83520   0.15023   0.00000  Uiso   1.00
C425   C     0.26781   0.84942   0.01241   0.00000  Uiso   1.00
C426   C     0.20590   0.83964   0.09398   0.00000  Uiso   1.00
C427   C     0.08041   0.81891   0.43255   0.00000  Uiso   1.00
C428   C     0.06981   0.80817   0.48415   0.00000  Uiso   1.00
C429   C     0.10391   0.81507   0.01096   0.00000  Uiso   1.00
C430   C     0.27410   0.70211   0.27694   0.00000  Uiso   1.00
C431   C     0.15919   0.84642   0.43521   0.00000  Uiso   1.00
C432   C     0.06045   0.96398   0.22119   0.00000  Uiso   1.00
C433   C     0.08655   0.86088   0.11477   0.00000  Uiso   1.00
C434   C     0.18176   0.84453   0.01574   0.00000  Uiso   1.00
C435   C     0.23093   0.85231   0.48778   0.00000  Uiso   1.00
C436   C     0.24168   0.86446   0.43645   0.00000  Uiso   1.00
C437   C     0.20482   0.86504   0.41207   0.00000  Uiso   1.00
C438   C     0.16862   0.84733   0.06996   0.00000  Uiso   1.00
C439   C     0.25544   0.84005   0.06476   0.00000  Uiso   1.00
Cu440  Cu    0.11978   0.83333   0.25000   0.00000  Uiso   1.00
Cu441  Cu    0.21355   0.83334   0.25000   0.00000  Uiso   1.00
H442   H     0.28441   0.83609   0.08302   0.00000  Uiso   1.00
H443   H     0.09728   0.80125   0.04839   0.00000  Uiso   1.00
H444   H     0.03617   0.79235   0.00267   0.00000  Uiso   1.00
H445   H     0.21324   0.87922   0.37469   0.00000  Uiso   1.00
H446   H     0.24442   0.96052   0.23542   0.00000  Uiso   1.00
H447   H     0.24730   0.71464   0.31248   0.00000  Uiso   1.00
H448   H     0.30820   0.72005   0.27017   0.00000  Uiso   1.00
H449   H     0.28365   0.66968   0.28284   0.00000  Uiso   1.00
H450   H     0.02650   0.94590   0.22745   0.00000  Uiso   1.00
H451   H     0.08786   0.95123   0.18622   0.00000  Uiso   1.00
H452   H     0.05102   0.99630   0.21459   0.00000  Uiso   1.00
H453   H     0.08901   0.70609   0.26386   0.00000  Uiso   1.00
H454   H     0.06884   0.87782   0.15113   0.00000  Uiso   1.00
H455   H     0.08666   0.82786   0.12472   0.00000  Uiso   1.00
H456   H     0.06354   0.86651   0.08857   0.00000  Uiso   1.00
H457   H     0.27626   0.88627   0.29776   0.00000  Uiso   1.00
H458   H     0.02961   0.88558   0.29883   0.00000  Uiso   1.00
H459   H     0.05732   0.78062   0.20180   0.00000  Uiso   1.00
H460   H     0.30376   0.78113   0.20108   0.00000  Uiso   1.00
H461   H     0.27806   0.87476   0.41573   0.00000  Uiso   1.00
H462   H     0.30593   0.85364   0.49110   0.00000  Uiso   1.00
H463   H     0.05439   0.81087   0.41184   0.00000  Uiso   1.00
N464   N     0.04931   0.83332   0.24999   0.00000  Uiso   1.00
N465   N     0.28402   0.83335   0.25000   0.00000  Uiso   1.00
O466   O     0.12708   0.89345   0.25001   0.00000  Uiso   1.00
O467   O     0.07713   0.96052   0.26539   0.00000  Uiso   1.00
O468   O     0.13365   0.87710   0.09316   0.00000  Uiso   1.00
O469   O     0.20627   0.89346   0.25001   0.00000  Uiso   1.00
O470   O     0.10775   0.83332   0.32549   0.00000  Uiso   1.00
O471   O     0.18694   0.83333   0.32549   0.00000  Uiso   1.00
O472   O     0.12706   0.77321   0.25000   0.00000  Uiso   1.00
O473   O     0.20625   0.77322   0.25000   0.00000  Uiso   1.00
O474   O     0.14640   0.83334   0.17451   0.00000  Uiso   1.00
O475   O     0.22559   0.83335   0.17451   0.00000  Uiso   1.00
O476   O     0.25637   0.70616   0.23350   0.00000  Uiso   1.00
C477   C     0.49965   0.91266   0.25002   0.00000  Uiso   1.00
C478   C     0.45937   0.83570   0.40674   0.00000  Uiso   1.00
C479   C     0.54358   0.97760   0.24238   0.00000  Uiso   1.00
C480   C     0.47413   0.83548   0.34989   0.00000  Uiso   1.00
C481   C     0.54495   0.68683   0.24336   0.00000  Uiso   1.00
C482   C     0.50099   0.70938   0.24987   0.00000  Uiso   1.00
C483   C     0.45653   0.68904   0.25707   0.00000  Uiso   1.00
C484   C     0.45519   0.97983   0.25604   0.00000  Uiso   1.00
C485   C     0.49910   0.95727   0.24972   0.00000  Uiso   1.00
C486   C     0.63422   0.86258   0.27676   0.00000  Uiso   1.00
C487   C     0.35044   0.86240   0.27704   0.00000  Uiso   1.00
C488   C     0.48060   0.83666   0.48834   0.00000  Uiso   1.00
C489   C     0.36578   0.80403   0.22331   0.00000  Uiso   1.00
C490   C     0.64956   0.80424   0.22300   0.00000  Uiso   1.00
C491   C     0.50038   0.75400   0.24984   0.00000  Uiso   1.00
C492   C     0.52569   0.83520   0.15023   0.00000  Uiso   1.00
C493   C     0.60114   0.84942   0.01241   0.00000  Uiso   1.00
C494   C     0.53923   0.83964   0.09398   0.00000  Uiso   1.00
C495   C     0.41374   0.81891   0.43255   0.00000  Uiso   1.00
C496   C     0.40315   0.80817   0.48415   0.00000  Uiso   1.00
C497   C     0.43725   0.81507   0.01096   0.00000  Uiso   1.00
C498   C     0.60743   0.70211   0.27694   0.00000  Uiso   1.00
C499   C     0.49252   0.84642   0.43521   0.00000  Uiso   1.00
C500   C     0.39378   0.96398   0.22119   0.00000  Uiso   1.00
C501   C     0.41989   0.86088   0.11477   0.00000  Uiso   1.00
C502   C     0.51509   0.84453   0.01574   0.00000  Uiso   1.00
C503   C     0.56426   0.85231   0.48778   0.00000  Uiso   1.00
C504   C     0.57501   0.86446   0.43645   0.00000  Uiso   1.00
C505   C     0.53815   0.86504   0.41207   0.00000  Uiso   1.00
C506   C     0.50196   0.84733   0.06996   0.00000  Uiso   1.00
C507   C     0.58877   0.84005   0.06476   0.00000  Uiso   1.00
Cu508  Cu    0.45311   0.83333   0.25000   0.00000  Uiso   1.00
Cu509  Cu    0.54689   0.83334   0.25000   0.00000  Uiso   1.00
H510   H     0.61775   0.83609   0.08302   0.00000  Uiso   1.00
H511   H     0.43062   0.80125   0.04839   0.00000  Uiso   1.00
H512   H     0.36950   0.79235   0.00267   0.00000  Uiso   1.00
H513   H     0.54657   0.87922   0.37469   0.00000  Uiso   1.00
H514   H     0.57775   0.96052   0.23542   0.00000  Uiso   1.00
H515   H     0.58063   0.71464   0.31248   0.00000  Uiso   1.00
H516   H     0.64153   0.72005   0.27017   0.00000  Uiso   1.00
H517   H     0.61698   0.66968   0.28284   0.00000  Uiso   1.00
H518   H     0.35983   0.94590   0.22745   0.00000  Uiso   1.00
H519   H     0.42120   0.95123   0.18622   0.00000  Uiso   1.00
H520   H     0.38435   0.99630   0.21459   0.00000  Uiso   1.00
H521   H     0.42235   0.70609   0.26386   0.00000  Uiso   1.00
H522   H     0.40217   0.87782   0.15113   0.00000  Uiso   1.00
H523   H     0.42000   0.82786   0.12472   0.00000  Uiso   1.00
H524   H     0.39688   0.86651   0.08857   0.00000  Uiso   1.00
H525   H     0.60960   0.88627   0.29776   0.00000  Uiso   1.00
H526   H     0.36294   0.88558   0.29883   0.00000  Uiso   1.00
H527   H     0.39065   0.78062   0.20180   0.00000  Uiso   1.00
H528   H     0.63709   0.78113   0.20108   0.00000  Uiso   1.00
H529   H     0.61139   0.87476   0.41573   0.00000  Uiso   1.00
H530   H     0.63926   0.85364   0.49110   0.00000  Uiso   1.00
H531   H     0.38772   0.81087   0.41184   0.00000  Uiso   1.00
N532   N     0.38265   0.83332   0.24999   0.00000  Uiso   1.00
N533   N     0.61735   0.83335   0.25000   0.00000  Uiso   1.00
O534   O     0.46042   0.89345   0.25001   0.00000  Uiso   1.00
O535   O     0.41046   0.96052   0.26539   0.00000  Uiso   1.00
O536   O     0.46698   0.87710   0.09316   0.00000  Uiso   1.00
O537   O     0.53961   0.89346   0.25001   0.00000  Uiso   1.00
O538   O     0.44108   0.83332   0.32549   0.00000  Uiso   1.00
O539   O     0.52027   0.83333   0.32549   0.00000  Uiso   1.00
O540   O     0.46039   0.77321   0.25000   0.00000  Uiso   1.00
O541   O     0.53958   0.77322   0.25000   0.00000  Uiso   1.00
O542   O     0.47973   0.83334   0.17451   0.00000  Uiso   1.00
O543   O     0.55892   0.83335   0.17451   0.00000  Uiso   1.00
O544   O     0.58971   0.70616   0.23350   0.00000  Uiso   1.00
C545   C     0.83299   0.91266   0.25002   0.00000  Uiso   1.00
C546   C     0.79270   0.83570   0.40674   0.00000  Uiso   1.00
C547   C     0.87691   0.97760   0.24238   0.00000  Uiso   1.00
C548   C     0.80747   0.83548   0.34989   0.00000  Uiso   1.00
C549   C     0.87828   0.68683   0.24336   0.00000  Uiso   1.00
C550   C     0.83433   0.70938   0.24987   0.00000  Uiso   1.00
C551   C     0.78986   0.68904   0.25707   0.00000  Uiso   1.00
C552   C     0.78852   0.97983   0.25604   0.00000  Uiso   1.00
C553   C     0.83243   0.95727   0.24972   0.00000  Uiso   1.00
C554   C     0.96755   0.86258   0.27676   0.00000  Uiso   1.00
C555   C     0.68377   0.86240   0.27704   0.00000  Uiso   1.00
C556   C     0.81394   0.83666   0.48834   0.00000  Uiso   1.00
C557   C     0.69912   0.80403   0.22331   0.00000  Uiso   1.00
C558   C     0.98289   0.80424   0.22300   0.00000  Uiso   1.00
C559   C     0.83371   0.75400   0.24984   0.00000  Uiso   1.00
C560   C     0.85903   0.83520   0.15023   0.00000  Uiso   1.00
C561   C     0.93447   0.84942   0.01241   0.00000  Uiso   1.00
C562   C     0.87257   0.83964   0.09398   0.00000  Uiso   1.00
C563   C     0.74707   0.81891   0.43255   0.00000  Uiso   1.00
C564   C     0.73648   0.80817   0.48415   0.00000  Uiso   1.00
C565   C     0.77058   0.81507   0.01096   0.00000  Uiso   1.00
C566   C     0.94077   0.70211   0.27694   0.00000  Uiso   1.00
C567   C     0.82586   0.84642   0.43521   0.00000  Uiso   1.00
C568   C     0.72711   0.96398   0.22119   0.00000  Uiso   1.00
C569   C     0.75322   0.86088   0.11477   0.00000  Uiso   1.00
C570   C     0.84843   0.84453   0.01574   0.00000  Uiso   1.00
C571   C     0.89759   0.85231   0.48778   0.00000  Uiso   1.00
C572   C     0.90835   0.86446   0.43645   0.00000  Uiso   1.00
C573   C     0.87149   0.86504   0.41207   0.00000  Uiso   1.00
C574   C     0.83529   0.84733   0.06996   0.00000  Uiso   1.00
C575   C     0.92210   0.84005   0.06476   0.00000  Uiso   1.00
Cu576  Cu    0.78645   0.83333   0.25000   0.00000  Uiso   1.00
Cu577  Cu    0.88022   0.83334   0.25000   0.00000  Uiso   1.00
H578   H     0.95108   0.83609   0.08302   0.00000  Uiso   1.00
H579   H     0.76395   0.80125   0.04839   0.00000  Uiso   1.00
H580   H     0.70283   0.79235   0.00267   0.00000  Uiso   1.00
H581   H     0.87991   0.87922   0.37469   0.00000  Uiso   1.00
H582   H     0.91108   0.96052   0.23542   0.00000  Uiso   1.00
H583   H     0.91397   0.71464   0.31248   0.00000  Uiso   1.00
H584   H     0.97486   0.72005   0.27017   0.00000  Uiso   1.00
H585   H     0.95031   0.66968   0.28284   0.00000  Uiso   1.00
H586   H     0.69317   0.94590   0.22745   0.00000  Uiso   1.00
H587   H     0.75453   0.95123   0.18622   0.00000  Uiso   1.00
H588   H     0.71769   0.99630   0.21459   0.00000  Uiso   1.00
H589   H     0.75568   0.70609   0.26386   0.00000  Uiso   1.00
H590   H     0.73550   0.87782   0.15113   0.00000  Uiso   1.00
H591   H     0.75333   0.82786   0.12472   0.00000  Uiso   1.00
H592   H     0.73021   0.86651   0.08857   0.00000  Uiso   1.00
H593   H     0.94293   0.88627   0.29776   0.00000  Uiso   1.00
H594   H     0.69628   0.88558   0.29883   0.00000  Uiso   1.00
H595   H     0.72398   0.78062   0.20180   0.00000  Uiso   1.00
H596   H     0.97042   0.78113   0.20108   0.00000  Uiso   1.00
H597   H     0.94473   0.87476   0.41573   0.00000  Uiso   1.00
H598   H     0.97260   0.85364   0.49110   0.00000  Uiso   1.00
H599   H     0.72105   0.81087   0.41184   0.00000  Uiso   1.00
N600   N     0.71598   0.83332   0.24999   0.00000  Uiso   1.00
N601   N     0.95069   0.83335   0.25000   0.00000  Uiso   1.00
O602   O     0.79375   0.89345   0.25001   0.00000  Uiso   1.00
O603   O     0.74379   0.96052   0.26539   0.00000  Uiso   1.00
O604   O     0.80031   0.87710   0.09316   0.00000  Uiso   1.00
O605   O     0.87294   0.89346   0.25001   0.00000  Uiso   1.00
O606   O     0.77441   0.83332   0.32549   0.00000  Uiso   1.00
O607   O     0.85360   0.83333   0.32549   0.00000  Uiso   1.00
O608   O     0.79373   0.77321   0.25000   0.00000  Uiso   1.00
O609   O     0.87292   0.77322   0.25000   0.00000  Uiso   1.00
O610   O     0.81306   0.83334   0.17451   0.00000  Uiso   1.00
O611   O     0.89225   0.83335   0.17451   0.00000  Uiso   1.00
O612   O     0.92304   0.70616   0.23350   0.00000  Uiso   1.00
C613   C     0.16632   0.24599   0.75002   0.00000  Uiso   1.00
C614   C     0.12604   0.16904   0.90674   0.00000  Uiso   1.00
C615   C     0.21024   0.31093   0.74238   0.00000  Uiso   1.00
C616   C     0.14080   0.16881   0.84989   0.00000  Uiso   1.00
C617   C     0.21161   0.02016   0.74336   0.00000  Uiso   1.00
C618   C     0.16766   0.04272   0.74987   0.00000  Uiso   1.00
C619   C     0.12319   0.02238   0.75707   0.00000  Uiso   1.00
C620   C     0.12185   0.31316   0.75604   0.00000  Uiso   1.00
C621   C     0.16576   0.29060   0.74972   0.00000  Uiso   1.00
C622   C     0.30089   0.19591   0.77676   0.00000  Uiso   1.00
C623   C     0.01711   0.19573   0.77704   0.00000  Uiso   1.00
C624   C     0.14727   0.16999   0.98834   0.00000  Uiso   1.00
C625   C     0.03245   0.13737   0.72331   0.00000  Uiso   1.00
C626   C     0.31622   0.13757   0.72300   0.00000  Uiso   1.00
C627   C     0.16705   0.08734   0.74984   0.00000  Uiso   1.00
C628   C     0.19236   0.16854   0.65023   0.00000  Uiso   1.00
C629   C     0.26781   0.18275   0.51241   0.00000  Uiso   1.00
C630   C     0.20590   0.17297   0.59398   0.00000  Uiso   1.00
C631   C     0.08041   0.15224   0.93255   0.00000  Uiso   1.00
C632   C     0.06981   0.14151   0.98415   0.00000  Uiso   1.00
C633   C     0.10391   0.14841   0.51096   0.00000  Uiso   1.00
C634   C     0.27410   0.03544   0.77694   0.00000  Uiso   1.00
C635   C     0.15919   0.17976   0.93521   0.00000  Uiso   1.00
C636   C     0.06045   0.29731   0.72119   0.00000  Uiso   1.00
C637   C     0.08655   0.19421   0.61477   0.00000  Uiso   1.00
C638   C     0.18176   0.17786   0.51574   0.00000  Uiso   1.00
C639   C     0.23093   0.18565   0.98778   0.00000  Uiso   1.00
C640   C     0.24168   0.19779   0.93645   0.00000  Uiso   1.00
C641   C     0.20482   0.19838   0.91207   0.00000  Uiso   1.00
C642   C     0.16862   0.18066   0.56996   0.00000  Uiso   1.00
C643   C     0.25544   0.17338   0.56476   0.00000  Uiso   1.00
Cu644  Cu    0.11978   0.16666   0.75000   0.00000  Uiso   1.00
Cu645  Cu    0.21355   0.16667   0.75000   0.00000  Uiso   1.00
H646   H     0.28441   0.16943   0.58302   0.00000  Uiso   1.00
H647   H     0.09728   0.13459   0.54839   0.00000  Uiso   1.00
H648   H     0.03617   0.12568   0.50267   0.00000  Uiso   1.00
H649   H     0.21324   0.21256   0.87469   0.00000  Uiso   1.00
H650   H     0.24442   0.29385   0.73542   0.00000  Uiso   1.00
H651   H     0.24730   0.04798   0.81248   0.00000  Uiso   1.00
H652   H     0.30820   0.05338   0.77017   0.00000  Uiso   1.00
H653   H     0.28365   0.00302   0.78284   0.00000  Uiso   1.00
H654   H     0.02650   0.27923   0.72745   0.00000  Uiso   1.00
H655   H     0.08786   0.28457   0.68622   0.00000  Uiso   1.00
H656   H     0.05102   0.32963   0.71459   0.00000  Uiso   1.00
H657   H     0.08901   0.03942   0.76386   0.00000  Uiso   1.00
H658   H     0.06884   0.21116   0.65113   0.00000  Uiso   1.00
H659   H     0.08666   0.16119   0.62472   0.00000  Uiso   1.00
H660   H     0.06354   0.19985   0.58857   0.00000  Uiso   1.00
H661   H     0.27626   0.21960   0.79776   0.00000  Uiso   1.00
H662   H     0.02961   0.21891   0.79883   0.00000  Uiso   1.00
H663   H     0.05732   0.11396   0.70180   0.00000  Uiso   1.00
H664   H     0.30376   0.11447   0.70108   0.00000  Uiso   1.00
H665   H     0.27806   0.20809   0.91573   0.00000  Uiso   1.00
H666   H     0.30593   0.18697   0.99110   0.00000  Uiso   1.00
H667   H     0.05439   0.14420   0.91184   0.00000  Uiso   1.00
N668   N     0.04931   0.16666   0.74999   0.00000  Uiso   1.00
N669   N     0.28402   0.16669   0.75000   0.00000  Uiso   1.00
O670   O     0.12708   0.22678   0.75001   0.00000  Uiso   1.00
O671   O     0.07713   0.29386   0.76539   0.00000  Uiso   1.00
O672   O     0.13365   0.21044   0.59316   0.00000  Uiso   1.00
O673   O     0.20627   0.22679   0.75001   0.00000  Uiso   1.00
O674   O     0.10775   0.16665   0.82549   0.00000  Uiso   1.00
O675   O     0.18694   0.16666   0.82549   0.00000  Uiso   1.00
O676   O     0.12706   0.10654   0.75000   0.00000  Uiso   1.00
O677   O     0.20625   0.10655   0.75000   0.00000  Uiso   1.00
O678   O     0.14640   0.16667   0.67451   0.00000  Uiso   1.00
O679   O     0.22559   0.16668   0.67451   0.00000  Uiso   1.00
O680   O     0.25637   0.03949   0.73350   0.00000  Uiso   1.00
C681   C     0.49965   0.24599   0.75002   0.00000  Uiso   1.00
C682   C     0.45937   0.16904   0.90674   0.00000  Uiso   1.00
C683   C     0.54358   0.31093   0.74238   0.00000  Uiso   1.00
C684   C     0.47413   0.16881   0.84989   0.00000  Uiso   1.00
C685   C     0.54495   0.02016   0.74336   0.00000  Uiso   1.00
C686   C     0.50099   0.04272   0.74987   0.00000  Uiso   1.00
C687   C     0.45653   0.02238   0.75707   0.00000  Uiso   1.00
C688   C     0.45519   0.31316   0.75604   0.00000  Uiso   1.00
C689   C     0.49910   0.29060   0.74972   0.00000  Uiso   1.00
C690   C     0.63422   0.19591   0.77676   0.00000  Uiso   1.00
C691   C     0.35044   0.19573   0.77704   0.00000  Uiso   1.00
C692   C     0.48060   0.16999   0.98834   0.00000  Uiso   1.00
C693   C     0.36578   0.13737   0.72331   0.00000  Uiso   1.00
C694   C     0.64956   0.13757   0.72300   0.00000  Uiso   1.00
C695   C     0.50038   0.08734   0.74984   0.00000  Uiso   1.00
C696   C     0.52569   0.16854   0.65023   0.00000  Uiso   1.00
C697   C     0.60114   0.18275   0.51241   0.00000  Uiso   1.00
C698   C     0.53923   0.17297   0.59398   0.00000  Uiso   1.00
C699   C     0.41374   0.15224   0.93255   0.00000  Uiso   1.00
C700   C     0.40315   0.14151   0.98415   0.00000  Uiso   1.00
C701   C     0.43725   0.14841   0.51096   0.00000  Uiso   1.00
C702   C     0.60743   0.03544   0.77694   0.00000  Uiso   1.00
C703   C     0.49252   0.17976   0.93521   0.00000  Uiso   1.00
C704   C     0.39378   0.29731   0.72119   0.00000  Uiso   1.00
C705   C     0.41989   0.19421   0.61477   0.00000  Uiso   1.00
C706   C     0.51509   0.17786   0.51574   0.00000  Uiso   1.00
C707   C     0.56426   0.18565   0.98778   0.00000  Uiso   1.00
C708   C     0.57501   0.19779   0.93645   0.00000  Uiso   1.00
C709   C     0.53815   0.19838   0.91207   0.00000  Uiso   1.00
C710   C     0.50196   0.18066   0.56996   0.00000  Uiso   1.00
C711   C     0.58877   0.17338   0.56476   0.00000  Uiso   1.00
Cu712  Cu    0.45311   0.16666   0.75000   0.00000  Uiso   1.00
Cu713  Cu    0.54689   0.16667   0.75000   0.00000  Uiso   1.00
H714   H     0.61775   0.16943   0.58302   0.00000  Uiso   1.00
H715   H     0.43062   0.13459   0.54839   0.00000  Uiso   1.00
H716   H     0.36950   0.12568   0.50267   0.00000  Uiso   1.00
H717   H     0.54657   0.21256   0.87469   0.00000  Uiso   1.00
H718   H     0.57775   0.29385   0.73542   0.00000  Uiso   1.00
H719   H     0.58063   0.04798   0.81248   0.00000  Uiso   1.00
H720   H     0.64153   0.05338   0.77017   0.00000  Uiso   1.00
H721   H     0.61698   0.00302   0.78284   0.00000  Uiso   1.00
H722   H     0.35983   0.27923   0.72745   0.00000  Uiso   1.00
H723   H     0.42120   0.28457   0.68622   0.00000  Uiso   1.00
H724   H     0.38435   0.32963   0.71459   0.00000  Uiso   1.00
H725   H     0.42235   0.03942   0.76386   0.00000  Uiso   1.00
H726   H     0.40217   0.21116   0.65113   0.00000  Uiso   1.00
H727   H     0.42000   0.16119   0.62472   0.00000  Uiso   1.00
H728   H     0.39688   0.19985   0.58857   0.00000  Uiso   1.00
H729   H     0.60960   0.21960   0.79776   0.00000  Uiso   1.00
H730   H     0.36294   0.21891   0.79883   0.00000  Uiso   1.00
H731   H     0.39065   0.11396   0.70180   0.00000  Uiso   1.00
H732   H     0.63709   0.11447   0.70108   0.00000  Uiso   1.00
H733   H     0.61139   0.20809   0.91573   0.00000  Uiso   1.00
H734   H     0.63926   0.18697   0.99110   0.00000  Uiso   1.00
H735   H     0.38772   0.14420   0.91184   0.00000  Uiso   1.00
N736   N     0.38265   0.16666   0.74999   0.00000  Uiso   1.00
N737   N     0.61735   0.16669   0.75000   0.00000  Uiso   1.00
O738   O     0.46042   0.22678   0.75001   0.00000  Uiso   1.00
O739   O     0.41046   0.29386   0.76539   0.00000  Uiso   1.00
O740   O     0.46698   0.21044   0.59316   0.00000  Uiso   1.00
O741   O     0.53961   0.22679   0.75001   0.00000  Uiso   1.00
O742   O     0.44108   0.16665   0.82549   0.00000  Uiso   1.00
O743   O     0.52027   0.16666   0.82549   0.00000  Uiso   1.00
O744   O     0.46039   0.10654   0.75000   0.00000  Uiso   1.00
O745   O     0.53958   0.10655   0.75000   0.00000  Uiso   1.00
O746   O     0.47973   0.16667   0.67451   0.00000  Uiso   1.00
O747   O     0.55892   0.16668   0.67451   0.00000  Uiso   1.00
O748   O     0.58971   0.03949   0.73350   0.00000  Uiso   1.00
C749   C     0.83299   0.24599   0.75002   0.00000  Uiso   1.00
C750   C     0.79270   0.16904   0.90674   0.00000  Uiso   1.00
C751   C     0.87691   0.31093   0.74238   0.00000  Uiso   1.00
C752   C     0.80747   0.16881   0.84989   0.00000  Uiso   1.00
C753   C     0.87828   0.02016   0.74336   0.00000  Uiso   1.00
C754   C     0.83433   0.04272   0.74987   0.00000  Uiso   1.00
C755   C     0.78986   0.02238   0.75707   0.00000  Uiso   1.00
C756   C     0.78852   0.31316   0.75604   0.00000  Uiso   1.00
C757   C     0.83243   0.29060   0.74972   0.00000  Uiso   1.00
C758   C     0.96755   0.19591   0.77676   0.00000  Uiso   1.00
C759   C     0.68377   0.19573   0.77704   0.00000  Uiso   1.00
C760   C     0.81394   0.16999   0.98834   0.00000  Uiso   1.00
C761   C     0.69912   0.13737   0.72331   0.00000  Uiso   1.00
C762   C     0.98289   0.13757   0.72300   0.00000  Uiso   1.00
C763   C     0.83371   0.08734   0.74984   0.00000  Uiso   1.00
C764   C     0.85903   0.16854   0.65023   0.00000  Uiso   1.00
C765   C     0.93447   0.18275   0.51241   0.00000  Uiso   1.00
C766   C     0.87257   0.17297   0.59398   0.00000  Uiso   1.00
C767   C     0.74707   0.15224   0.93255   0.00000  Uiso   1.00
C768   C     0.73648   0.14151   0.98415   0.00000  Uiso   1.00
C769   C     0.77058   0.14841   0.51096   0.00000  Uiso   1.00
C770   C     0.94077   0.03544   0.77694   0.00000  Uiso   1.00
C771   C     0.82586   0.17976   0.93521   0.00000  Uiso   1.00
C772   C     0.72711   0.29731   0.72119   0.00000  Uiso   1.00
C773   C     0.75322   0.19421   0.61477   0.00000  Uiso   1.00
C774   C     0.84843   0.17786   0.51574   0.00000  Uiso   1.00
C775   C     0.89759   0.18565   0.98778   0.00000  Uiso   1.00
C776   C     0.90835   0.19779   0.93645   0.00000  Uiso   1.00
C777   C     0.87149   0.19838   0.91207   0.00000  Uiso   1.00
C778   C     0.83529   0.18066   0.56996   0.00000  Uiso   1.00
C779   C     0.92210   0.17338   0.56476   0.00000  Uiso   1.00
Cu780  Cu    0.78645   0.16666   0.75000   0.00000  Uiso   1.00
Cu781  Cu    0.88022   0.16667   0.75000   0.00000  Uiso   1.00
H782   H     0.95108   0.16943   0.58302   0.00000  Uiso   1.00
H783   H     0.76395   0.13459   0.54839   0.00000  Uiso   1.00
H784   H     0.70283   0.12568   0.50267   0.00000  Uiso   1.00
H785   H     0.87991   0.21256   0.87469   0.00000  Uiso   1.00
H786   H     0.91108   0.29385   0.73542   0.00000  Uiso   1.00
H787   H     0.91397   0.04798   0.81248   0.00000  Uiso   1.00
H788   H     0.97486   0.05338   0.77017   0.00000  Uiso   1.00
H789   H     0.95031   0.00302   0.78284   0.00000  Uiso   1.00
H790   H     0.69317   0.27923   0.72745   0.00000  Uiso   1.00
H791   H     0.75453   0.28457   0.68622   0.00000  Uiso   1.00
H792   H     0.71769   0.32963   0.71459   0.00000  Uiso   1.00
H793   H     0.75568   0.03942   0.76386   0.00000  Uiso   1.00
H794   H     0.73550   0.21116   0.65113   0.00000  Uiso   1.00
H795   H     0.75333   0.16119   0.62472   0.00000  Uiso   1.00
H796   H     0.73021   0.19985   0.58857   0.00000  Uiso   1.00
H797   H     0.94293   0.21960   0.79776   0.00000  Uiso   1.00
H798   H     0.69628   0.21891   0.79883   0.00000  Uiso   1.00
H799   H     0.72398   0.11396   0.70180   0.00000  Uiso   1.00
H800   H     0.97042   0.11447   0.70108   0.00000  Uiso   1.00
H801   H     0.94473   0.20809   0.91573   0.00000  Uiso   1.00
H802   H     0.97260   0.18697   0.99110   0.00000  Uiso   1.00
H803   H     0.72105   0.14420   0.91184   0.00000  Uiso   1.00
N804   N     0.71598   0.16666   0.74999   0.00000  Uiso   1.00
N805   N     0.95069   0.16669   0.75000   0.00000  Uiso   1.00
O806   O     0.79375   0.22678   0.75001   0.00000  Uiso   1.00
O807   O     0.74379   0.29386   0.76539   0.00000  Uiso   1.00
O808   O     0.80031   0.21044   0.59316   0.00000  Uiso   1.00
O809   O     0.87294   0.22679   0.75001   0.00000  Uiso   1.00
O810   O     0.77441   0.16665   0.82549   0.00000  Uiso   1.00
O811   O     0.85360   0.16666   0.82549   0.00000  Uiso   1.00
O812   O     0.79373   0.10654   0.75000   0.00000  Uiso   1.00
O813   O     0.87292   0.10655   0.75000   0.00000  Uiso   1.00
O814   O     0.81306   0.16667   0.67451   0.00000  Uiso   1.00
O815   O     0.89225   0.16668   0.67451   0.00000  Uiso   1.00
O816   O     0.92304   0.03949   0.73350   0.00000  Uiso   1.00
C817   C     0.16632   0.57933   0.75002   0.00000  Uiso   1.00
C818   C     0.12604   0.50237   0.90674   0.00000  Uiso   1.00
C819   C     0.21024   0.64426   0.74238   0.00000  Uiso   1.00
C820   C     0.14080   0.50215   0.84989   0.00000  Uiso   1.00
C821   C     0.21161   0.35349   0.74336   0.00000  Uiso   1.00
C822   C     0.16766   0.37605   0.74987   0.00000  Uiso   1.00
C823   C     0.12319   0.35571   0.75707   0.00000  Uiso   1.00
C824   C     0.12185   0.64649   0.75604   0.00000  Uiso   1.00
C825   C     0.16576   0.62393   0.74972   0.00000  Uiso   1.00
C826   C     0.30089   0.52924   0.77676   0.00000  Uiso   1.00
C827   C     0.01711   0.52906   0.77704   0.00000  Uiso   1.00
C828   C     0.14727   0.50333   0.98834   0.00000  Uiso   1.00
C829   C     0.03245   0.47070   0.72331   0.00000  Uiso   1.00
C830   C     0.31622   0.47090   0.72300   0.00000  Uiso   1.00
C831   C     0.16705   0.42067   0.74984   0.00000  Uiso   1.00
C832   C     0.19236   0.50187   0.65023   0.00000  Uiso   1.00
C833   C     0.26781   0.51608   0.51241   0.00000  Uiso   1.00
C834   C     0.20590   0.50630   0.59398   0.00000  Uiso   1.00
C835   C     0.08041   0.48558   0.93255   0.00000  Uiso   1.00
C836   C     0.06981   0.47484   0.98415   0.00000  Uiso   1.00
C837   C     0.10391   0.48174   0.51096   0.00000  Uiso   1.00
C838   C     0.27410   0.36877   0.77694   0.00000  Uiso   1.00
C839   C     0.15919   0.51309   0.93521   0.00000  Uiso   1.00
C840   C     0.06045   0.63064   0.72119   0.00000  Uiso   1.00
C841   C     0.08655   0.52754   0.61477   0.00000  Uiso   1.00
C842   C     0.18176   0.51119   0.51574   0.00000  Uiso   1.00
C843   C     0.23093   0.51898   0.98778   0.00000  Uiso   1.00
C844   C     0.24168   0.53113   0.93645   0.00000  Uiso   1.00
C845   C     0.20482   0.53171   0.91207   0.00000  Uiso   1.00
C846   C     0.16862   0.51399   0.56996   0.00000  Uiso   1.00
C847   C     0.25544   0.50672   0.56476   0.00000  Uiso   1.00
Cu848  Cu    0.11978   0.49999   0.75000   0.00000  Uiso   1.00
Cu849  Cu    0.21355   0.50001   0.75000   0.00000  Uiso   1.00
H850   H     0.28441   0.50276   0.58302   0.00000  Uiso   1.00
H851   H     0.09728   0.46792   0.54839   0.00000  Uiso   1.00
H852   H     0.03617   0.45901   0.50267   0.00000  Uiso   1.00
H853   H     0.21324   0.54589   0.87469   0.00000  Uiso   1.00
H854   H     0.24442   0.62718   0.73542   0.00000  Uiso   1.00
H855   H     0.24730   0.38131   0.81248   0.00000  Uiso   1.00
H856   H     0.30820   0.38671   0.77017   0.00000  Uiso   1.00
H857   H     0.28365   0.33635   0.78284   0.00000  Uiso   1.00
H858   H     0.02650   0.61257   0.72745   0.00000  Uiso   1.00
H859   H     0.08786   0.61790   0.68622   0.00000  Uiso   1.00
H860   H     0.05102   0.66296   0.71459   0.00000  Uiso   1.00
H861   H     0.08901   0.37275   0.76386   0.00000  Uiso   1.00
H862   H     0.06884   0.54449   0.65113   0.00000  Uiso   1.00
H863   H     0.08666   0.49452   0.62472   0.00000  Uiso   1.00
H864   H     0.06354   0.53318   0.58857   0.00000  Uiso   1.00
H865   H     0.27626   0.55294   0.79776   0.00000  Uiso   1.00
H866   H     0.02961   0.55225   0.79883   0.00000  Uiso   1.00
H867   H     0.05732   0.44729   0.70180   0.00000  Uiso   1.00
H868   H     0.30376   0.44780   0.70108   0.00000  Uiso   1.00
H869   H     0.27806   0.54143   0.91573   0.00000  Uiso   1.00
H870   H     0.30593   0.52031   0.99110   0.00000  Uiso   1.00
H871   H     0.05439   0.47753   0.91184   0.00000  Uiso   1.00
N872   N     0.04931   0.49999   0.74999   0.00000  Uiso   1.00
N873   N     0.28402   0.50002   0.75000   0.00000  Uiso   1.00
O874   O     0.12708   0.56011   0.75001   0.00000  Uiso   1.00
O875   O     0.07713   0.62719   0.76539   0.00000  Uiso   1.00
O876   O     0.13365   0.54377   0.59316   0.00000  Uiso   1.00
O877   O     0.20627   0.56012   0.75001   0.00000  Uiso   1.00
O878   O     0.10775   0.49998   0.82549   0.00000  Uiso   1.00
O879   O     0.18694   0.49999   0.82549   0.00000  Uiso   1.00
O880   O     0.12706   0.43988   0.75000   0.00000  Uiso   1.00
O881   O     0.20625   0.43989   0.75000   0.00000  Uiso   1.00
O882   O     0.14640   0.50001   0.67451   0.00000  Uiso   1.00
O883   O     0.22559   0.50002   0.67451   0.00000  Uiso   1.00
O884   O     0.25637   0.37282   0.73350   0.00000  Uiso   1.00
C885   C     0.49965   0.57933   0.75002   0.00000  Uiso   1.00
C886   C     0.45937   0.50237   0.90674   0.00000  Uiso   1.00
C887   C     0.54358   0.64426   0.74238   0.00000  Uiso   1.00
C888   C     0.47413   0.50215   0.84989   0.00000  Uiso   1.00
C889   C     0.54495   0.35349   0.74336   0.00000  Uiso   1.00
C890   C     0.50099   0.37605   0.74987   0.00000  Uiso   1.00
C891   C     0.45653   0.35571   0.75707   0.00000  Uiso   1.00
C892   C     0.45519   0.64649   0.75604   0.00000  Uiso   1.00
C893   C     0.49910   0.62393   0.74972   0.00000  Uiso   1.00
C894   C     0.63422   0.52924   0.77676   0.00000  Uiso   1.00
C895   C     0.35044   0.52906   0.77704   0.00000  Uiso   1.00
C896   C     0.48060   0.50333   0.98834   0.00000  Uiso   1.00
C897   C     0.36578   0.47070   0.72331   0.00000  Uiso   1.00
C898   C     0.64956   0.47090   0.72300   0.00000  Uiso   1.00
C899   C     0.50038   0.42067   0.74984   0.00000  Uiso   1.00
C900   C     0.52569   0.50187   0.65023   0.00000  Uiso   1.00
C901   C     0.60114   0.51608   0.51241   0.00000  Uiso   1.00
C902   C     0.53923   0.50630   0.59398   0.00000  Uiso   1.00
C903   C     0.41374   0.48558   0.93255   0.00000  Uiso   1.00
C904   C     0.40315   0.47484   0.98415   0.00000  Uiso   1.00
C905   C     0.43725   0.48174   0.51096   0.00000  Uiso   1.00
C906   C     0.60743   0.36877   0.77694   0.00000  Uiso   1.00
C907   C     0.49252   0.51309   0.93521   0.00000  Uiso   1.00
C908   C     0.39378   0.63064   0.72119   0.00000  Uiso   1.00
C909   C     0.41989   0.52754   0.61477   0.00000  Uiso   1.00
C910   C     0.51509   0.51119   0.51574   0.00000  Uiso   1.00
C911   C     0.56426   0.51898   0.98778   0.00000  Uiso   1.00
C912   C     0.57501   0.53113   0.93645   0.00000  Uiso   1.00
C913   C     0.53815   0.53171   0.91207   0.00000  Uiso   1.00
C914   C     0.50196   0.51399   0.56996   0.00000  Uiso   1.00
C915   C     0.58877   0.50672   0.56476   0.00000  Uiso   1.00
Cu916  Cu    0.45311   0.49999   0.75000   0.00000  Uiso   1.00
Cu917  Cu    0.54689   0.50001   0.75000   0.00000  Uiso   1.00
H918   H     0.61775   0.50276   0.58302   0.00000  Uiso   1.00
H919   H     0.43062   0.46792   0.54839   0.00000  Uiso   1.00
H920   H     0.36950   0.45901   0.50267   0.00000  Uiso   1.00
H921   H     0.54657   0.54589   0.87469   0.00000  Uiso   1.00
H922   H     0.57775   0.62718   0.73542   0.00000  Uiso   1.00
H923   H     0.58063   0.38131   0.81248   0.00000  Uiso   1.00
H924   H     0.64153   0.38671   0.77017   0.00000  Uiso   1.00
H925   H     0.61698   0.33635   0.78284   0.00000  Uiso   1.00
H926   H     0.35983   0.61257   0.72745   0.00000  Uiso   1.00
H927   H     0.42120   0.61790   0.68622   0.00000  Uiso   1.00
H928   H     0.38435   0.66296   0.71459   0.00000  Uiso   1.00
H929   H     0.42235   0.37275   0.76386   0.00000  Uiso   1.00
H930   H     0.40217   0.54449   0.65113   0.00000  Uiso   1.00
H931   H     0.42000   0.49452   0.62472   0.00000  Uiso   1.00
H932   H     0.39688   0.53318   0.58857   0.00000  Uiso   1.00
H933   H     0.60960   0.55294   0.79776   0.00000  Uiso   1.00
H934   H     0.36294   0.55225   0.79883   0.00000  Uiso   1.00
H935   H     0.39065   0.44729   0.70180   0.00000  Uiso   1.00
H936   H     0.63709   0.44780   0.70108   0.00000  Uiso   1.00
H937   H     0.61139   0.54143   0.91573   0.00000  Uiso   1.00
H938   H     0.63926   0.52031   0.99110   0.00000  Uiso   1.00
H939   H     0.38772   0.47753   0.91184   0.00000  Uiso   1.00
N940   N     0.38265   0.49999   0.74999   0.00000  Uiso   1.00
N941   N     0.61735   0.50002   0.75000   0.00000  Uiso   1.00
O942   O     0.46042   0.56011   0.75001   0.00000  Uiso   1.00
O943   O     0.41046   0.62719   0.76539   0.00000  Uiso   1.00
O944   O     0.46698   0.54377   0.59316   0.00000  Uiso   1.00
O945   O     0.53961   0.56012   0.75001   0.00000  Uiso   1.00
O946   O     0.44108   0.49998   0.82549   0.00000  Uiso   1.00
O947   O     0.52027   0.49999   0.82549   0.00000  Uiso   1.00
O948   O     0.46039   0.43988   0.75000   0.00000  Uiso   1.00
O949   O     0.53958   0.43989   0.75000   0.00000  Uiso   1.00
O950   O     0.47973   0.50001   0.67451   0.00000  Uiso   1.00
O951   O     0.55892   0.50002   0.67451   0.00000  Uiso   1.00
O952   O     0.58971   0.37282   0.73350   0.00000  Uiso   1.00
C953   C     0.83299   0.57933   0.75002   0.00000  Uiso   1.00
C954   C     0.79270   0.50237   0.90674   0.00000  Uiso   1.00
C955   C     0.87691   0.64426   0.74238   0.00000  Uiso   1.00
C956   C     0.80747   0.50215   0.84989   0.00000  Uiso   1.00
C957   C     0.87828   0.35349   0.74336   0.00000  Uiso   1.00
C958   C     0.83433   0.37605   0.74987   0.00000  Uiso   1.00
C959   C     0.78986   0.35571   0.75707   0.00000  Uiso   1.00
C960   C     0.78852   0.64649   0.75604   0.00000  Uiso   1.00
C961   C     0.83243   0.62393   0.74972   0.00000  Uiso   1.00
C962   C     0.96755   0.52924   0.77676   0.00000  Uiso   1.00
C963   C     0.68377   0.52906   0.77704   0.00000  Uiso   1.00
C964   C     0.81394   0.50333   0.98834   0.00000  Uiso   1.00
C965   C     0.69912   0.47070   0.72331   0.00000  Uiso   1.00
C966   C     0.98289   0.47090   0.72300   0.00000  Uiso   1.00
C967   C     0.83371   0.42067   0.74984   0.00000  Uiso   1.00
C968   C     0.85903   0.50187   0.65023   0.00000  Uiso   1.00
C969   C     0.93447   0.51608   0.51241   0.00000  Uiso   1.00
C970   C     0.87257   0.50630   0.59398   0.00000  Uiso   1.00
C971   C     0.74707   0.48558   0.93255   0.00000  Uiso   1.00
C972   C     0.73648   0.47484   0.98415   0.00000  Uiso   1.00
C973   C     0.77058   0.48174   0.51096   0.00000  Uiso   1.00
C974   C     0.94077   0.36877   0.77694   0.00000  Uiso   1.00
C975   C     0.82586   0.51309   0.93521   0.00000  Uiso   1.00
C976   C     0.72711   0.63064   0.72119   0.00000  Uiso   1.00
C977   C     0.75322   0.52754   0.61477   0.00000  Uiso   1.00
C978   C     0.84843   0.51119   0.51574   0.00000  Uiso   1.00
C979   C     0.89759   0.51898   0.98778   0.00000  Uiso   1.00
C980   C     0.90835   0.53113   0.93645   0.00000  Uiso   1.00
C981   C     0.87149   0.53171   0.91207   0.00000  Uiso   1.00
C982   C     0.83529   0.51399   0.56996   0.00000  Uiso   1.00
C983   C     0.92210   0.50672   0.56476   0.00000  Uiso   1.00
Cu984  Cu    0.78645   0.49999   0.75000   0.00000  Uiso   1.00
Cu985  Cu    0.88022   0.50001   0.75000   0.00000  Uiso   1.00
H986   H     0.95108   0.50276   0.58302   0.00000  Uiso   1.00
H987   H     0.76395   0.46792   0.54839   0.00000  Uiso   1.00
H988   H     0.70283   0.45901   0.50267   0.00000  Uiso   1.00
H989   H     0.87991   0.54589   0.87469   0.00000  Uiso   1.00
H990   H     0.91108   0.62718   0.73542   0.00000  Uiso   1.00
H991   H     0.91397   0.38131   0.81248   0.00000  Uiso   1.00
H992   H     0.97486   0.38671   0.77017   0.00000  Uiso   1.00
H993   H     0.95031   0.33635   0.78284   0.00000  Uiso   1.00
H994   H     0.69317   0.61257   0.72745   0.00000  Uiso   1.00
H995   H     0.75453   0.61790   0.68622   0.00000  Uiso   1.00
H996   H     0.71769   0.66296   0.71459   0.00000  Uiso   1.00
H997   H     0.75568   0.37275   0.76386   0.00000  Uiso   1.00
H998   H     0.73550   0.54449   0.65113   0.00000  Uiso   1.00
H999   H     0.75333   0.49452   0.62472   0.00000  Uiso   1.00
H1000  H     0.73021   0.53318   0.58857   0.00000  Uiso   1.00
H1001  H     0.94293   0.55294   0.79776   0.00000  Uiso   1.00
H1002  H     0.69628   0.55225   0.79883   0.00000  Uiso   1.00
H1003  H     0.72398   0.44729   0.70180   0.00000  Uiso   1.00
H1004  H     0.97042   0.44780   0.70108   0.00000  Uiso   1.00
H1005  H     0.94473   0.54143   0.91573   0.00000  Uiso   1.00
H1006  H     0.97260   0.52031   0.99110   0.00000  Uiso   1.00
H1007  H     0.72105   0.47753   0.91184   0.00000  Uiso   1.00
N1008  N     0.71598   0.49999   0.74999   0.00000  Uiso   1.00
N1009  N     0.95069   0.50002   0.75000   0.00000  Uiso   1.00
O1010  O     0.79375   0.56011   0.75001   0.00000  Uiso   1.00
O1011  O     0.74379   0.62719   0.76539   0.00000  Uiso   1.00
O1012  O     0.80031   0.54377   0.59316   0.00000  Uiso   1.00
O1013  O     0.87294   0.56012   0.75001   0.00000  Uiso   1.00
O1014  O     0.77441   0.49998   0.82549   0.00000  Uiso   1.00
O1015  O     0.85360   0.49999   0.82549   0.00000  Uiso   1.00
O1016  O     0.79373   0.43988   0.75000   0.00000  Uiso   1.00
O1017  O     0.87292   0.43989   0.75000   0.00000  Uiso   1.00
O1018  O     0.81306   0.50001   0.67451   0.00000  Uiso   1.00
O1019  O     0.89225   0.50002   0.67451   0.00000  Uiso   1.00
O1020  O     0.92304   0.37282   0.73350   0.00000  Uiso   1.00
C1021  C     0.16632   0.91266   0.75002   0.00000  Uiso   1.00
C1022  C     0.12604   0.83570   0.90674   0.00000  Uiso   1.00
C1023  C     0.21024   0.97760   0.74238   0.00000  Uiso   1.00
C1024  C     0.14080   0.83548   0.84989   0.00000  Uiso   1.00
C1025  C     0.21161   0.68683   0.74336   0.00000  Uiso   1.00
C1026  C     0.16766   0.70938   0.74987   0.00000  Uiso   1.00
C1027  C     0.12319   0.68904   0.75707   0.00000  Uiso   1.00
C1028  C     0.12185   0.97983   0.75604   0.00000  Uiso   1.00
C1029  C     0.16576   0.95727   0.74972   0.00000  Uiso   1.00
C1030  C     0.30089   0.86258   0.77676   0.00000  Uiso   1.00
C1031  C     0.01711   0.86240   0.77704   0.00000  Uiso   1.00
C1032  C     0.14727   0.83666   0.98834   0.00000  Uiso   1.00
C1033  C     0.03245   0.80403   0.72331   0.00000  Uiso   1.00
C1034  C     0.31622   0.80424   0.72300   0.00000  Uiso   1.00
C1035  C     0.16705   0.75400   0.74984   0.00000  Uiso   1.00
C1036  C     0.19236   0.83520   0.65023   0.00000  Uiso   1.00
C1037  C     0.26781   0.84942   0.51241   0.00000  Uiso   1.00
C1038  C     0.20590   0.83964   0.59398   0.00000  Uiso   1.00
C1039  C     0.08041   0.81891   0.93255   0.00000  Uiso   1.00
C1040  C     0.06981   0.80817   0.98415   0.00000  Uiso   1.00
C1041  C     0.10391   0.81507   0.51096   0.00000  Uiso   1.00
C1042  C     0.27410   0.70211   0.77694   0.00000  Uiso   1.00
C1043  C     0.15919   0.84642   0.93521   0.00000  Uiso   1.00
C1044  C     0.06045   0.96398   0.72119   0.00000  Uiso   1.00
C1045  C     0.08655   0.86088   0.61477   0.00000  Uiso   1.00
C1046  C     0.18176   0.84453   0.51574   0.00000  Uiso   1.00
C1047  C     0.23093   0.85231   0.98778   0.00000  Uiso   1.00
C1048  C     0.24168   0.86446   0.93645   0.00000  Uiso   1.00
C1049  C     0.20482   0.86504   0.91207   0.00000  Uiso   1.00
C1050  C     0.16862   0.84733   0.56996   0.00000  Uiso   1.00
C1051  C     0.25544   0.84005   0.56476   0.00000  Uiso   1.00
Cu1052 Cu    0.11978   0.83333   0.75000   0.00000  Uiso   1.00
Cu1053 Cu    0.21355   0.83334   0.75000   0.00000  Uiso   1.00
H1054  H     0.28441   0.83609   0.58302   0.00000  Uiso   1.00
H1055  H     0.09728   0.80125   0.54839   0.00000  Uiso   1.00
H1056  H     0.03617   0.79235   0.50267   0.00000  Uiso   1.00
H1057  H     0.21324   0.87922   0.87469   0.00000  Uiso   1.00
H1058  H     0.24442   0.96052   0.73542   0.00000  Uiso   1.00
H1059  H     0.24730   0.71464   0.81248   0.00000  Uiso   1.00
H1060  H     0.30820   0.72005   0.77017   0.00000  Uiso   1.00
H1061  H     0.28365   0.66968   0.78284   0.00000  Uiso   1.00
H1062  H     0.02650   0.94590   0.72745   0.00000  Uiso   1.00
H1063  H     0.08786   0.95123   0.68622   0.00000  Uiso   1.00
H1064  H     0.05102   0.99630   0.71459   0.00000  Uiso   1.00
H1065  H     0.08901   0.70609   0.76386   0.00000  Uiso   1.00
H1066  H     0.06884   0.87782   0.65113   0.00000  Uiso   1.00
H1067  H     0.08666   0.82786   0.62472   0.00000  Uiso   1.00
H1068  H     0.06354   0.86651   0.58857   0.00000  Uiso   1.00
H1069  H     0.27626   0.88627   0.79776   0.00000  Uiso   1.00
H1070  H     0.02961   0.88558   0.79883   0.00000  Uiso   1.00
H1071  H     0.05732   0.78062   0.70180   0.00000  Uiso   1.00
H1072  H     0.30376   0.78113   0.70108   0.00000  Uiso   1.00
H1073  H     0.27806   0.87476   0.91573   0.00000  Uiso   1.00
H1074  H     0.30593   0.85364   0.99110   0.00000  Uiso   1.00
H1075  H     0.05439   0.81087   0.91184   0.00000  Uiso   1.00
N1076  N     0.04931   0.83332   0.74999   0.00000  Uiso   1.00
N1077  N     0.28402   0.83335   0.75000   0.00000  Uiso   1.00
O1078  O     0.12708   0.89345   0.75001   0.00000  Uiso   1.00
O1079  O     0.07713   0.96052   0.76539   0.00000  Uiso   1.00
O1080  O     0.13365   0.87710   0.59316   0.00000  Uiso   1.00
O1081  O     0.20627   0.89346   0.75001   0.00000  Uiso   1.00
O1082  O     0.10775   0.83332   0.82549   0.00000  Uiso   1.00
O1083  O     0.18694   0.83333   0.82549   0.00000  Uiso   1.00
O1084  O     0.12706   0.77321   0.75000   0.00000  Uiso   1.00
O1085  O     0.20625   0.77322   0.75000   0.00000  Uiso   1.00
O1086  O     0.14640   0.83334   0.67451   0.00000  Uiso   1.00
O1087  O     0.22559   0.83335   0.67451   0.00000  Uiso   1.00
O1088  O     0.25637   0.70616   0.73350   0.00000  Uiso   1.00
C1089  C     0.49965   0.91266   0.75002   0.00000  Uiso   1.00
C1090  C     0.45937   0.83570   0.90674   0.00000  Uiso   1.00
C1091  C     0.54358   0.97760   0.74238   0.00000  Uiso   1.00
C1092  C     0.47413   0.83548   0.84989   0.00000  Uiso   1.00
C1093  C     0.54495   0.68683   0.74336   0.00000  Uiso   1.00
C1094  C     0.50099   0.70938   0.74987   0.00000  Uiso   1.00
C1095  C     0.45653   0.68904   0.75707   0.00000  Uiso   1.00
C1096  C     0.45519   0.97983   0.75604   0.00000  Uiso   1.00
C1097  C     0.49910   0.95727   0.74972   0.00000  Uiso   1.00
C1098  C     0.63422   0.86258   0.77676   0.00000  Uiso   1.00
C1099  C     0.35044   0.86240   0.77704   0.00000  Uiso   1.00
C1100  C     0.48060   0.83666   0.98834   0.00000  Uiso   1.00
C1101  C     0.36578   0.80403   0.72331   0.00000  Uiso   1.00
C1102  C     0.64956   0.80424   0.72300   0.00000  Uiso   1.00
C1103  C     0.50038   0.75400   0.74984   0.00000  Uiso   1.00
C1104  C     0.52569   0.83520   0.65023   0.00000  Uiso   1.00
C1105  C     0.60114   0.84942   0.51241   0.00000  Uiso   1.00
C1106  C     0.53923   0.83964   0.59398   0.00000  Uiso   1.00
C1107  C     0.41374   0.81891   0.93255   0.00000  Uiso   1.00
C1108  C     0.40315   0.80817   0.98415   0.00000  Uiso   1.00
C1109  C     0.43725   0.81507   0.51096   0.00000  Uiso   1.00
C1110  C     0.60743   0.70211   0.77694   0.00000  Uiso   1.00
C1111  C     0.49252   0.84642   0.93521   0.00000  Uiso   1.00
C1112  C     0.39378   0.96398   0.72119   0.00000  Uiso   1.00
C1113  C     0.41989   0.86088   0.61477   0.00000  Uiso   1.00
C1114  C     0.51509   0.84453   0.51574   0.00000  Uiso   1.00
C1115  C     0.56426   0.85231   0.98778   0.00000  Uiso   1.00
C1116  C     0.57501   0.86446   0.93645   0.00000  Uiso   1.00
C1117  C     0.53815   0.86504   0.91207   0.00000  Uiso   1.00
C1118  C     0.50196   0.84733   0.56996   0.00000  Uiso   1.00
C1119  C     0.58877   0.84005   0.56476   0.00000  Uiso   1.00
Cu1120 Cu    0.45311   0.83333   0.75000   0.00000  Uiso   1.00
Cu1121 Cu    0.54689   0.83334   0.75000   0.00000  Uiso   1.00
H1122  H     0.61775   0.83609   0.58302   0.00000  Uiso   1.00
H1123  H     0.43062   0.80125   0.54839   0.00000  Uiso   1.00
H1124  H     0.36950   0.79235   0.50267   0.00000  Uiso   1.00
H1125  H     0.54657   0.87922   0.87469   0.00000  Uiso   1.00
H1126  H     0.57775   0.96052   0.73542   0.00000  Uiso   1.00
H1127  H     0.58063   0.71464   0.81248   0.00000  Uiso   1.00
H1128  H     0.64153   0.72005   0.77017   0.00000  Uiso   1.00
H1129  H     0.61698   0.66968   0.78284   0.00000  Uiso   1.00
H1130  H     0.35983   0.94590   0.72745   0.00000  Uiso   1.00
H1131  H     0.42120   0.95123   0.68622   0.00000  Uiso   1.00
H1132  H     0.38435   0.99630   0.71459   0.00000  Uiso   1.00
H1133  H     0.42235   0.70609   0.76386   0.00000  Uiso   1.00
H1134  H     0.40217   0.87782   0.65113   0.00000  Uiso   1.00
H1135  H     0.42000   0.82786   0.62472   0.00000  Uiso   1.00
H1136  H     0.39688   0.86651   0.58857   0.00000  Uiso   1.00
H1137  H     0.60960   0.88627   0.79776   0.00000  Uiso   1.00
H1138  H     0.36294   0.88558   0.79883   0.00000  Uiso   1.00
H1139  H     0.39065   0.78062   0.70180   0.00000  Uiso   1.00
H1140  H     0.63709   0.78113   0.70108   0.00000  Uiso   1.00
H1141  H     0.61139   0.87476   0.91573   0.00000  Uiso   1.00
H1142  H     0.63926   0.85364   0.99110   0.00000  Uiso   1.00
H1143  H     0.38772   0.81087   0.91184   0.00000  Uiso   1.00
N1144  N     0.38265   0.83332   0.74999   0.00000  Uiso   1.00
N1145  N     0.61735   0.83335   0.75000   0.00000  Uiso   1.00
O1146  O     0.46042   0.89345   0.75001   0.00000  Uiso   1.00
O1147  O     0.41046   0.96052   0.76539   0.00000  Uiso   1.00
O1148  O     0.46698   0.87710   0.59316   0.00000  Uiso   1.00
O1149  O     0.53961   0.89346   0.75001   0.00000  Uiso   1.00
O1150  O     0.44108   0.83332   0.82549   0.00000  Uiso   1.00
O1151  O     0.52027   0.83333   0.82549   0.00000  Uiso   1.00
O1152  O     0.46039   0.77321   0.75000   0.00000  Uiso   1.00
O1153  O     0.53958   0.77322   0.75000   0.00000  Uiso   1.00
O1154  O     0.47973   0.83334   0.67451   0.00000  Uiso   1.00
O1155  O     0.55892   0.83335   0.67451   0.00000  Uiso   1.00
O1156  O     0.58971   0.70616   0.73350   0.00000  Uiso   1.00
C1157  C     0.83299   0.91266   0.75002   0.00000  Uiso   1.00
C1158  C     0.79270   0.83570   0.90674   0.00000  Uiso   1.00
C1159  C     0.87691   0.97760   0.74238   0.00000  Uiso   1.00
C1160  C     0.80747   0.83548   0.84989   0.00000  Uiso   1.00
C1161  C     0.87828   0.68683   0.74336   0.00000  Uiso   1.00
C1162  C     0.83433   0.70938   0.74987   0.00000  Uiso   1.00
C1163  C     0.78986   0.68904   0.75707   0.00000  Uiso   1.00
C1164  C     0.78852   0.97983   0.75604   0.00000  Uiso   1.00
C1165  C     0.83243   0.95727   0.74972   0.00000  Uiso   1.00
C1166  C     0.96755   0.86258   0.77676   0.00000  Uiso   1.00
C1167  C     0.68377   0.86240   0.77704   0.00000  Uiso   1.00
C1168  C     0.81394   0.83666   0.98834   0.00000  Uiso   1.00
C1169  C     0.69912   0.80403   0.72331   0.00000  Uiso   1.00
C1170  C     0.98289   0.80424   0.72300   0.00000  Uiso   1.00
C1171  C     0.83371   0.75400   0.74984   0.00000  Uiso   1.00
C1172  C     0.85903   0.83520   0.65023   0.00000  Uiso   1.00
C1173  C     0.93447   0.84942   0.51241   0.00000  Uiso   1.00
C1174  C     0.87257   0.83964   0.59398   0.00000  Uiso   1.00
C1175  C     0.74707   0.81891   0.93255   0.00000  Uiso   1.00
C1176  C     0.73648   0.80817   0.98415   0.00000  Uiso   1.00
C1177  C     0.77058   0.81507   0.51096   0.00000  Uiso   1.00
C1178  C     0.94077   0.70211   0.77694   0.00000  Uiso   1.00
C1179  C     0.82586   0.84642   0.93521   0.00000  Uiso   1.00
C1180  C     0.72711   0.96398   0.72119   0.00000  Uiso   1.00
C1181  C     0.75322   0.86088   0.61477   0.00000  Uiso   1.00
C1182  C     0.84843   0.84453   0.51574   0.00000  Uiso   1.00
C1183  C     0.89759   0.85231   0.98778   0.00000  Uiso   1.00
C1184  C     0.90835   0.86446   0.93645   0.00000  Uiso   1.00
C1185  C     0.87149   0.86504   0.91207   0.00000  Uiso   1.00
C1186  C     0.83529   0.84733   0.56996   0.00000  Uiso   1.00
C1187  C     0.92210   0.84005   0.56476   0.00000  Uiso   1.00
Cu1188 Cu    0.78645   0.83333   0.75000   0.00000  Uiso   1.00
Cu1189 Cu    0.88022   0.83334   0.75000   0.00000  Uiso   1.00
H1190  H     0.95108   0.83609   0.58302   0.00000  Uiso   1.00
H1191  H     0.76395   0.80125   0.54839   0.00000  Uiso   1.00
H1192  H     0.70283   0.79235   0.50267   0.00000  Uiso   1.00
H1193  H     0.87991   0.87922   0.87469   0.00000  Uiso   1.00
H1194  H     0.91108   0.96052   0.73542   0.00000  Uiso   1.00
H1195  H     0.91397   0.71464   0.81248   0.00000  Uiso   1.00
H1196  H     0.97486   0.72005   0.77017   0.00000  Uiso   1.00
H1197  H     0.95031   0.66968   0.78284   0.00000  Uiso   1.00
H1198  H     0.69317   0.94590   0.72745   0.00000  Uiso   1.00
H1199  H     0.75453   0.95123   0.68622   0.00000  Uiso   1.00
H1200  H     0.71769   0.99630   0.71459   0.00000  Uiso   1.00
H1201  H     0.75568   0.70609   0.76386   0.00000  Uiso   1.00
H1202  H     0.73550   0.87782   0.65113   0.00000  Uiso   1.00
H1203  H     0.75333   0.82786   0.62472   0.00000  Uiso   1.00
H1204  H     0.73021   0.86651   0.58857   0.00000  Uiso   1.00
H1205  H     0.94293   0.88627   0.79776   0.00000  Uiso   1.00
H1206  H     0.69628   0.88558   0.79883   0.00000  Uiso   1.00
H1207  H     0.72398   0.78062   0.70180   0.00000  Uiso   1.00
H1208  H     0.97042   0.78113   0.70108   0.00000  Uiso   1.00
H1209  H     0.94473   0.87476   0.91573   0.00000  Uiso   1.00
H1210  H     0.97260   0.85364   0.99110   0.00000  Uiso   1.00
H1211  H     0.72105   0.81087   0.91184   0.00000  Uiso   1.00
N1212  N     0.71598   0.83332   0.74999   0.00000  Uiso   1.00
N1213  N     0.95069   0.83335   0.75000   0.00000  Uiso   1.00
O1214  O     0.79375   0.89345   0.75001   0.00000  Uiso   1.00
O1215  O     0.74379   0.96052   0.76539   0.00000  Uiso   1.00
O1216  O     0.80031   0.87710   0.59316   0.00000  Uiso   1.00
O1217  O     0.87294   0.89346   0.75001   0.00000  Uiso   1.00
O1218  O     0.77441   0.83332   0.82549   0.00000  Uiso   1.00
O1219  O     0.85360   0.83333   0.82549   0.00000  Uiso   1.00
O1220  O     0.79373   0.77321   0.75000   0.00000  Uiso   1.00
O1221  O     0.87292   0.77322   0.75000   0.00000  Uiso   1.00
O1222  O     0.81306   0.83334   0.67451   0.00000  Uiso   1.00
O1223  O     0.89225   0.83335   0.67451   0.00000  Uiso   1.00
O1224  O     0.92304   0.70616   0.73350   0.00000  Uiso   1.00
loop_
_geom_bond_atom_site_label_1
_geom_bond_atom_site_label_2
_geom_bond_distance
_geom_bond_site_symmetry_2
_ccdc_geom_bond_type
C1     O58     1.287   .     A
C1     C9      1.454   .     S
C1     O61     1.292   .     A
C2     C4      1.472   .     S
C2     C19     1.405   .     A
C2     C23     1.425   .     A
C3     C9      1.400   .     A
C3     H38     1.084   .     S
C3     C209    1.389   .     S
C4     O62     1.298   .     A
C4     O63     1.290   .     A
C5     O68     1.385   .     S
C5     C6      1.411   .     A
C5     C411    1.389   1_545 S
C6     C7      1.400   .     A
C6     C15     1.455   .     S
C7     H45     1.084   .     S
C7     C416    1.389   1_545 S
C8     O59     1.384   .     S
C8     C9      1.410   .     A
C8     C211    1.389   .     S
C10    N57     1.367   .     A
C10    H49     1.080   .     S
C10    C79     1.413   .     S
C11    H50     1.081   .     S
C11    N56     1.365   .     A
C11    C146    1.413   1_455 S
C12    C23     1.416   .     A
C12    C633    1.408   .     S
C12    C638    1.415   .     S
C13    N56     1.367   .     A
C13    H51     1.082   .     S
C13    C150    1.414   1_455 S
C14    N57     1.366   .     A
C14    H52     1.081   .     S
C14    C81     1.414   .     S
C15    O64     1.292   .     A
C15    O65     1.288   .     A
C16    O67     1.298   .     A
C16    O66     1.287   .     A
C16    C18     1.465   .     S
C17    C31     1.393   .     A
C17    C639    1.398   1_554 S
C17    H666    1.083   1_554 S
C18    C30     1.415   .     A
C18    C31     1.405   .     A
C19    C20     1.387   .     A
C19    H55     1.083   .     S
C20    C633    1.388   .     S
C20    H648    1.083   .     S
C21    H35     1.076   .     S
C21    C632    1.388   1_554 S
C21    C624    1.408   1_554 S
C22    H40     1.109   .     S
C22    O68     1.412   .     S
C22    H39     1.114   .     S
C22    H41     1.112   .     S
C23    C29     1.415   .     A
C24    H42     1.109   .     S
C24    H43     1.114   .     S
C24    H44     1.112   .     S
C24    O59     1.411   .     S
C25    O60     1.410   .     S
C25    H47     1.111   .     S
C25    H46     1.109   .     S
C25    H48     1.109   .     S
C26    C30     1.407   .     A
C26    C624    1.415   1_554 S
C26    C639    1.413   1_554 S
C27    C28     1.392   .     A
C27    C629    1.398   .     S
C27    C638    1.413   .     S
C28    H53     1.084   .     S
C28    C29     1.391   .     A
C29    H37     1.076   .     S
C30    O60     1.394   .     S
C31    H34     1.083   .     S
Cu32   O64     1.969   .     S
Cu32   O58     1.974   .     S
Cu32   Cu33    2.671   .     S
Cu32   O62     1.970   .     S
Cu32   O66     1.962   .     S
Cu32   N56     2.007   .     S
Cu33   O61     1.969   .     S
Cu33   O63     1.962   .     S
Cu33   O67     1.970   .     S
Cu33   N57     2.007   .     S
Cu33   O65     1.974   .     S
H36    C632    1.083   1_554 S
H54    C629    1.083   .     S
C69    O126    1.287   .     A
C69    C77     1.454   .     S
C69    O129    1.292   .     A
C70    C72     1.472   .     S
C70    C87     1.405   .     A
C70    C91     1.425   .     A
C71    C77     1.400   .     A
C71    H106    1.084   .     S
C71    C277    1.389   .     S
C72    O130    1.298   .     A
C72    O131    1.290   .     A
C73    O136    1.385   .     S
C73    C74     1.411   .     A
C73    C479    1.389   1_545 S
C74    C75     1.400   .     A
C74    C83     1.455   .     S
C75    H113    1.084   .     S
C75    C484    1.389   1_545 S
C76    O127    1.384   .     S
C76    C77     1.410   .     A
C76    C279    1.389   .     S
C78    N125    1.367   .     A
C78    H117    1.080   .     S
C78    C147    1.413   .     S
C79    H118    1.081   .     S
C79    N124    1.365   .     A
C80    C91     1.416   .     A
C80    C701    1.408   .     S
C80    C706    1.415   .     S
C81    N124    1.367   .     A
C81    H119    1.082   .     S
C82    N125    1.366   .     A
C82    H120    1.081   .     S
C82    C149    1.414   .     S
C83    O132    1.292   .     A
C83    O133    1.288   .     A
C84    O135    1.298   .     A
C84    O134    1.287   .     A
C84    C86     1.465   .     S
C85    C99     1.393   .     A
C85    C707    1.398   1_554 S
C85    H734    1.083   1_554 S
C86    C98     1.415   .     A
C86    C99     1.405   .     A
C87    C88     1.387   .     A
C87    H123    1.083   .     S
C88    C701    1.388   .     S
C88    H716    1.083   .     S
C89    H103    1.076   .     S
C89    C700    1.388   1_554 S
C89    C692    1.408   1_554 S
C90    H108    1.109   .     S
C90    O136    1.412   .     S
C90    H107    1.114   .     S
C90    H109    1.112   .     S
C91    C97     1.415   .     A
C92    H110    1.109   .     S
C92    H111    1.114   .     S
C92    H112    1.112   .     S
C92    O127    1.411   .     S
C93    O128    1.410   .     S
C93    H115    1.111   .     S
C93    H114    1.109   .     S
C93    H116    1.109   .     S
C94    C98     1.407   .     A
C94    C692    1.415   1_554 S
C94    C707    1.413   1_554 S
C95    C96     1.392   .     A
C95    C697    1.398   .     S
C95    C706    1.413   .     S
C96    H121    1.084   .     S
C96    C97     1.391   .     A
C97    H105    1.076   .     S
C98    O128    1.394   .     S
C99    H102    1.083   .     S
Cu100  O132    1.969   .     S
Cu100  O126    1.974   .     S
Cu100  Cu101   2.671   .     S
Cu100  O130    1.970   .     S
Cu100  O134    1.962   .     S
Cu100  N124    2.007   .     S
Cu101  O129    1.969   .     S
Cu101  O131    1.962   .     S
Cu101  O135    1.970   .     S
Cu101  N125    2.007   .     S
Cu101  O133    1.974   .     S
H104   C700    1.083   1_554 S
H122   C697    1.083   .     S
C137   O194    1.287   .     A
C137   C145    1.454   .     S
C137   O197    1.292   .     A
C138   C140    1.472   .     S
C138   C155    1.405   .     A
C138   C159    1.425   .     A
C139   C145    1.400   .     A
C139   H174    1.084   .     S
C139   C345    1.389   .     S
C140   O198    1.298   .     A
C140   O199    1.290   .     A
C141   O204    1.385   .     S
C141   C142    1.411   .     A
C141   C547    1.389   1_545 S
C142   C143    1.400   .     A
C142   C151    1.455   .     S
C143   H181    1.084   .     S
C143   C552    1.389   1_545 S
C144   O195    1.384   .     S
C144   C145    1.410   .     A
C144   C347    1.389   .     S
C146   N193    1.367   .     A
C146   H185    1.080   .     S
C146   C11     1.413   1_655 S
C147   H186    1.081   .     S
C147   N192    1.365   .     A
C148   C159    1.416   .     A
C148   C769    1.408   .     S
C148   C774    1.415   .     S
C149   N192    1.367   .     A
C149   H187    1.082   .     S
C150   N193    1.366   .     A
C150   H188    1.081   .     S
C150   C13     1.414   1_655 S
C151   O200    1.292   .     A
C151   O201    1.288   .     A
C152   O203    1.298   .     A
C152   O202    1.287   .     A
C152   C154    1.465   .     S
C153   C167    1.393   .     A
C153   C775    1.398   1_554 S
C153   H802    1.083   1_554 S
C154   C166    1.415   .     A
C154   C167    1.405   .     A
C155   C156    1.387   .     A
C155   H191    1.083   .     S
C156   C769    1.388   .     S
C156   H784    1.083   .     S
C157   H171    1.076   .     S
C157   C768    1.388   1_554 S
C157   C760    1.408   1_554 S
C158   H176    1.109   .     S
C158   O204    1.412   .     S
C158   H175    1.114   .     S
C158   H177    1.112   .     S
C159   C165    1.415   .     A
C160   H178    1.109   .     S
C160   H179    1.114   .     S
C160   H180    1.112   .     S
C160   O195    1.411   .     S
C161   O196    1.410   .     S
C161   H183    1.111   .     S
C161   H182    1.109   .     S
C161   H184    1.109   .     S
C162   C166    1.407   .     A
C162   C760    1.415   1_554 S
C162   C775    1.413   1_554 S
C163   C164    1.392   .     A
C163   C765    1.398   .     S
C163   C774    1.413   .     S
C164   H189    1.084   .     S
C164   C165    1.391   .     A
C165   H173    1.076   .     S
C166   O196    1.394   .     S
C167   H170    1.083   .     S
Cu168  O200    1.969   .     S
Cu168  O194    1.974   .     S
Cu168  Cu169   2.671   .     S
Cu168  O198    1.970   .     S
Cu168  O202    1.962   .     S
Cu168  N192    2.007   .     S
Cu169  O197    1.969   .     S
Cu169  O199    1.962   .     S
Cu169  O203    1.970   .     S
Cu169  N193    2.007   .     S
Cu169  O201    1.974   .     S
H172   C768    1.083   1_554 S
H190   C765    1.083   .     S
C205   O262    1.287   .     A
C205   C213    1.454   .     S
C205   O265    1.292   .     A
C206   C208    1.472   .     S
C206   C223    1.405   .     A
C206   C227    1.425   .     A
C207   C213    1.400   .     A
C207   H242    1.084   .     S
C207   C413    1.389   .     S
C208   O266    1.298   .     A
C208   O267    1.290   .     A
C209   O272    1.385   .     S
C209   C210    1.411   .     A
C210   C211    1.400   .     A
C210   C219    1.455   .     S
C211   H249    1.084   .     S
C212   O263    1.384   .     S
C212   C213    1.410   .     A
C212   C415    1.389   .     S
C214   N261    1.367   .     A
C214   H253    1.080   .     S
C214   C283    1.413   .     S
C215   H254    1.081   .     S
C215   N260    1.365   .     A
C215   C350    1.413   1_455 S
C216   C227    1.416   .     A
C216   C837    1.408   .     S
C216   C842    1.415   .     S
C217   N260    1.367   .     A
C217   H255    1.082   .     S
C217   C354    1.414   1_455 S
C218   N261    1.366   .     A
C218   H256    1.081   .     S
C218   C285    1.414   .     S
C219   O268    1.292   .     A
C219   O269    1.288   .     A
C220   O271    1.298   .     A
C220   O270    1.287   .     A
C220   C222    1.465   .     S
C221   C235    1.393   .     A
C221   C843    1.398   1_554 S
C221   H870    1.083   1_554 S
C222   C234    1.415   .     A
C222   C235    1.405   .     A
C223   C224    1.387   .     A
C223   H259    1.083   .     S
C224   C837    1.388   .     S
C224   H852    1.083   .     S
C225   H239    1.076   .     S
C225   C836    1.388   1_554 S
C225   C828    1.408   1_554 S
C226   H244    1.109   .     S
C226   O272    1.412   .     S
C226   H243    1.114   .     S
C226   H245    1.112   .     S
C227   C233    1.415   .     A
C228   H246    1.109   .     S
C228   H247    1.114   .     S
C228   H248    1.112   .     S
C228   O263    1.411   .     S
C229   O264    1.410   .     S
C229   H251    1.111   .     S
C229   H250    1.109   .     S
C229   H252    1.109   .     S
C230   C234    1.407   .     A
C230   C828    1.415   1_554 S
C230   C843    1.413   1_554 S
C231   C232    1.392   .     A
C231   C833    1.398   .     S
C231   C842    1.413   .     S
C232   H257    1.084   .     S
C232   C233    1.391   .     A
C233   H241    1.076   .     S
C234   O264    1.394   .     S
C235   H238    1.083   .     S
Cu236  O268    1.969   .     S
Cu236  O262    1.974   .     S
Cu236  Cu237   2.671   .     S
Cu236  O266    1.970   .     S
Cu236  O270    1.962   .     S
Cu236  N260    2.007   .     S
Cu237  O265    1.969   .     S
Cu237  O267    1.962   .     S
Cu237  O271    1.970   .     S
Cu237  N261    2.007   .     S
Cu237  O269    1.974   .     S
H240   C836    1.083   1_554 S
H258   C833    1.083   .     S
C273   O330    1.287   .     A
C273   C281    1.454   .     S
C273   O333    1.292   .     A
C274   C276    1.472   .     S
C274   C291    1.405   .     A
C274   C295    1.425   .     A
C275   C281    1.400   .     A
C275   H310    1.084   .     S
C275   C481    1.389   .     S
C276   O334    1.298   .     A
C276   O335    1.290   .     A
C277   O340    1.385   .     S
C277   C278    1.411   .     A
C278   C279    1.400   .     A
C278   C287    1.455   .     S
C279   H317    1.084   .     S
C280   O331    1.384   .     S
C280   C281    1.410   .     A
C280   C483    1.389   .     S
C282   N329    1.367   .     A
C282   H321    1.080   .     S
C282   C351    1.413   .     S
C283   H322    1.081   .     S
C283   N328    1.365   .     A
C284   C295    1.416   .     A
C284   C905    1.408   .     S
C284   C910    1.415   .     S
C285   N328    1.367   .     A
C285   H323    1.082   .     S
C286   N329    1.366   .     A
C286   H324    1.081   .     S
C286   C353    1.414   .     S
C287   O336    1.292   .     A
C287   O337    1.288   .     A
C288   O339    1.298   .     A
C288   O338    1.287   .     A
C288   C290    1.465   .     S
C289   C303    1.393   .     A
C289   C911    1.398   1_554 S
C289   H938    1.083   1_554 S
C290   C302    1.415   .     A
C290   C303    1.405   .     A
C291   C292    1.387   .     A
C291   H327    1.083   .     S
C292   C905    1.388   .     S
C292   H920    1.083   .     S
C293   H307    1.076   .     S
C293   C904    1.388   1_554 S
C293   C896    1.408   1_554 S
C294   H312    1.109   .     S
C294   O340    1.412   .     S
C294   H311    1.114   .     S
C294   H313    1.112   .     S
C295   C301    1.415   .     A
C296   H314    1.109   .     S
C296   H315    1.114   .     S
C296   H316    1.112   .     S
C296   O331    1.411   .     S
C297   O332    1.410   .     S
C297   H319    1.111   .     S
C297   H318    1.109   .     S
C297   H320    1.109   .     S
C298   C302    1.407   .     A
C298   C896    1.415   1_554 S
C298   C911    1.413   1_554 S
C299   C300    1.392   .     A
C299   C901    1.398   .     S
C299   C910    1.413   .     S
C300   H325    1.084   .     S
C300   C301    1.391   .     A
C301   H309    1.076   .     S
C302   O332    1.394   .     S
C303   H306    1.083   .     S
Cu304  O336    1.969   .     S
Cu304  O330    1.974   .     S
Cu304  Cu305   2.671   .     S
Cu304  O334    1.970   .     S
Cu304  O338    1.962   .     S
Cu304  N328    2.007   .     S
Cu305  O333    1.969   .     S
Cu305  O335    1.962   .     S
Cu305  O339    1.970   .     S
Cu305  N329    2.007   .     S
Cu305  O337    1.974   .     S
H308   C904    1.083   1_554 S
H326   C901    1.083   .     S
C341   O398    1.287   .     A
C341   C349    1.454   .     S
C341   O401    1.292   .     A
C342   C344    1.472   .     S
C342   C359    1.405   .     A
C342   C363    1.425   .     A
C343   C349    1.400   .     A
C343   H378    1.084   .     S
C343   C549    1.389   .     S
C344   O402    1.298   .     A
C344   O403    1.290   .     A
C345   O408    1.385   .     S
C345   C346    1.411   .     A
C346   C347    1.400   .     A
C346   C355    1.455   .     S
C347   H385    1.084   .     S
C348   O399    1.384   .     S
C348   C349    1.410   .     A
C348   C551    1.389   .     S
C350   N397    1.367   .     A
C350   H389    1.080   .     S
C350   C215    1.413   1_655 S
C351   H390    1.081   .     S
C351   N396    1.365   .     A
C352   C363    1.416   .     A
C352   C973    1.408   .     S
C352   C978    1.415   .     S
C353   N396    1.367   .     A
C353   H391    1.082   .     S
C354   N397    1.366   .     A
C354   H392    1.081   .     S
C354   C217    1.414   1_655 S
C355   O404    1.292   .     A
C355   O405    1.288   .     A
C356   O407    1.298   .     A
C356   O406    1.287   .     A
C356   C358    1.465   .     S
C357   C371    1.393   .     A
C357   C979    1.398   1_554 S
C357   H1006   1.083   1_554 S
C358   C370    1.415   .     A
C358   C371    1.405   .     A
C359   C360    1.387   .     A
C359   H395    1.083   .     S
C360   C973    1.388   .     S
C360   H988    1.083   .     S
C361   H375    1.076   .     S
C361   C972    1.388   1_554 S
C361   C964    1.408   1_554 S
C362   H380    1.109   .     S
C362   O408    1.412   .     S
C362   H379    1.114   .     S
C362   H381    1.112   .     S
C363   C369    1.415   .     A
C364   H382    1.109   .     S
C364   H383    1.114   .     S
C364   H384    1.112   .     S
C364   O399    1.411   .     S
C365   O400    1.410   .     S
C365   H387    1.111   .     S
C365   H386    1.109   .     S
C365   H388    1.109   .     S
C366   C370    1.407   .     A
C366   C964    1.415   1_554 S
C366   C979    1.413   1_554 S
C367   C368    1.392   .     A
C367   C969    1.398   .     S
C367   C978    1.413   .     S
C368   H393    1.084   .     S
C368   C369    1.391   .     A
C369   H377    1.076   .     S
C370   O400    1.394   .     S
C371   H374    1.083   .     S
Cu372  O404    1.969   .     S
Cu372  O398    1.974   .     S
Cu372  Cu373   2.671   .     S
Cu372  O402    1.970   .     S
Cu372  O406    1.962   .     S
Cu372  N396    2.007   .     S
Cu373  O401    1.969   .     S
Cu373  O403    1.962   .     S
Cu373  O407    1.970   .     S
Cu373  N397    2.007   .     S
Cu373  O405    1.974   .     S
H376   C972    1.083   1_554 S
H394   C969    1.083   .     S
C409   O466    1.287   .     A
C409   C417    1.454   .     S
C409   O469    1.292   .     A
C410   C412    1.472   .     S
C410   C427    1.405   .     A
C410   C431    1.425   .     A
C411   C417    1.400   .     A
C411   H446    1.084   .     S
C411   C5      1.389   1_565 S
C412   O470    1.298   .     A
C412   O471    1.290   .     A
C413   O476    1.385   .     S
C413   C414    1.411   .     A
C414   C415    1.400   .     A
C414   C423    1.455   .     S
C415   H453    1.084   .     S
C416   O467    1.384   .     S
C416   C417    1.410   .     A
C416   C7      1.389   1_565 S
C418   N465    1.367   .     A
C418   H457    1.080   .     S
C418   C487    1.413   .     S
C419   H458    1.081   .     S
C419   N464    1.365   .     A
C419   C554    1.413   1_455 S
C420   C431    1.416   .     A
C420   C1041   1.408   .     S
C420   C1046   1.415   .     S
C421   N464    1.367   .     A
C421   H459    1.082   .     S
C421   C558    1.414   1_455 S
C422   N465    1.366   .     A
C422   H460    1.081   .     S
C422   C489    1.414   .     S
C423   O472    1.292   .     A
C423   O473    1.288   .     A
C424   O475    1.298   .     A
C424   O474    1.287   .     A
C424   C426    1.465   .     S
C425   C439    1.393   .     A
C425   C1047   1.398   1_554 S
C425   H1074   1.083   1_554 S
C426   C438    1.415   .     A
C426   C439    1.405   .     A
C427   C428    1.387   .     A
C427   H463    1.083   .     S
C428   C1041   1.388   .     S
C428   H1056   1.083   .     S
C429   H443    1.076   .     S
C429   C1040   1.388   1_554 S
C429   C1032   1.408   1_554 S
C430   H448    1.109   .     S
C430   O476    1.412   .     S
C430   H447    1.114   .     S
C430   H449    1.112   .     S
C431   C437    1.415   .     A
C432   H450    1.109   .     S
C432   H451    1.114   .     S
C432   H452    1.112   .     S
C432   O467    1.411   .     S
C433   O468    1.410   .     S
C433   H455    1.111   .     S
C433   H454    1.109   .     S
C433   H456    1.109   .     S
C434   C438    1.407   .     A
C434   C1032   1.415   1_554 S
C434   C1047   1.413   1_554 S
C435   C436    1.392   .     A
C435   C1037   1.398   .     S
C435   C1046   1.413   .     S
C436   H461    1.084   .     S
C436   C437    1.391   .     A
C437   H445    1.076   .     S
C438   O468    1.394   .     S
C439   H442    1.083   .     S
Cu440  O472    1.969   .     S
Cu440  O466    1.974   .     S
Cu440  Cu441   2.671   .     S
Cu440  O470    1.970   .     S
Cu440  O474    1.962   .     S
Cu440  N464    2.007   .     S
Cu441  O469    1.969   .     S
Cu441  O471    1.962   .     S
Cu441  O475    1.970   .     S
Cu441  N465    2.007   .     S
Cu441  O473    1.974   .     S
H444   C1040   1.083   1_554 S
H462   C1037   1.083   .     S
C477   O534    1.287   .     A
C477   C485    1.454   .     S
C477   O537    1.292   .     A
C478   C480    1.472   .     S
C478   C495    1.405   .     A
C478   C499    1.425   .     A
C479   C485    1.400   .     A
C479   H514    1.084   .     S
C479   C73     1.389   1_565 S
C480   O538    1.298   .     A
C480   O539    1.290   .     A
C481   O544    1.385   .     S
C481   C482    1.411   .     A
C482   C483    1.400   .     A
C482   C491    1.455   .     S
C483   H521    1.084   .     S
C484   O535    1.384   .     S
C484   C485    1.410   .     A
C484   C75     1.389   1_565 S
C486   N533    1.367   .     A
C486   H525    1.080   .     S
C486   C555    1.413   .     S
C487   H526    1.081   .     S
C487   N532    1.365   .     A
C488   C499    1.416   .     A
C488   C1109   1.408   .     S
C488   C1114   1.415   .     S
C489   N532    1.367   .     A
C489   H527    1.082   .     S
C490   N533    1.366   .     A
C490   H528    1.081   .     S
C490   C557    1.414   .     S
C491   O540    1.292   .     A
C491   O541    1.288   .     A
C492   O543    1.298   .     A
C492   O542    1.287   .     A
C492   C494    1.465   .     S
C493   C507    1.393   .     A
C493   C1115   1.398   1_554 S
C493   H1142   1.083   1_554 S
C494   C506    1.415   .     A
C494   C507    1.405   .     A
C495   C496    1.387   .     A
C495   H531    1.083   .     S
C496   C1109   1.388   .     S
C496   H1124   1.083   .     S
C497   H511    1.076   .     S
C497   C1108   1.388   1_554 S
C497   C1100   1.408   1_554 S
C498   H516    1.109   .     S
C498   O544    1.412   .     S
C498   H515    1.114   .     S
C498   H517    1.112   .     S
C499   C505    1.415   .     A
C500   H518    1.109   .     S
C500   H519    1.114   .     S
C500   H520    1.112   .     S
C500   O535    1.411   .     S
C501   O536    1.410   .     S
C501   H523    1.111   .     S
C501   H522    1.109   .     S
C501   H524    1.109   .     S
C502   C506    1.407   .     A
C502   C1100   1.415   1_554 S
C502   C1115   1.413   1_554 S
C503   C504    1.392   .     A
C503   C1105   1.398   .     S
C503   C1114   1.413   .     S
C504   H529    1.084   .     S
C504   C505    1.391   .     A
C505   H513    1.076   .     S
C506   O536    1.394   .     S
C507   H510    1.083   .     S
Cu508  O540    1.969   .     S
Cu508  O534    1.974   .     S
Cu508  Cu509   2.671   .     S
Cu508  O538    1.970   .     S
Cu508  O542    1.962   .     S
Cu508  N532    2.007   .     S
Cu509  O537    1.969   .     S
Cu509  O539    1.962   .     S
Cu509  O543    1.970   .     S
Cu509  N533    2.007   .     S
Cu509  O541    1.974   .     S
H512   C1108   1.083   1_554 S
H530   C1105   1.083   .     S
C545   O602    1.287   .     A
C545   C553    1.454   .     S
C545   O605    1.292   .     A
C546   C548    1.472   .     S
C546   C563    1.405   .     A
C546   C567    1.425   .     A
C547   C553    1.400   .     A
C547   H582    1.084   .     S
C547   C141    1.389   1_565 S
C548   O606    1.298   .     A
C548   O607    1.290   .     A
C549   O612    1.385   .     S
C549   C550    1.411   .     A
C550   C551    1.400   .     A
C550   C559    1.455   .     S
C551   H589    1.084   .     S
C552   O603    1.384   .     S
C552   C553    1.410   .     A
C552   C143    1.389   1_565 S
C554   N601    1.367   .     A
C554   H593    1.080   .     S
C554   C419    1.413   1_655 S
C555   H594    1.081   .     S
C555   N600    1.365   .     A
C556   C567    1.416   .     A
C556   C1177   1.408   .     S
C556   C1182   1.415   .     S
C557   N600    1.367   .     A
C557   H595    1.082   .     S
C558   N601    1.366   .     A
C558   H596    1.081   .     S
C558   C421    1.414   1_655 S
C559   O608    1.292   .     A
C559   O609    1.288   .     A
C560   O611    1.298   .     A
C560   O610    1.287   .     A
C560   C562    1.465   .     S
C561   C575    1.393   .     A
C561   C1183   1.398   1_554 S
C561   H1210   1.083   1_554 S
C562   C574    1.415   .     A
C562   C575    1.405   .     A
C563   C564    1.387   .     A
C563   H599    1.083   .     S
C564   C1177   1.388   .     S
C564   H1192   1.083   .     S
C565   H579    1.076   .     S
C565   C1176   1.388   1_554 S
C565   C1168   1.408   1_554 S
C566   H584    1.109   .     S
C566   O612    1.412   .     S
C566   H583    1.114   .     S
C566   H585    1.112   .     S
C567   C573    1.415   .     A
C568   H586    1.109   .     S
C568   H587    1.114   .     S
C568   H588    1.112   .     S
C568   O603    1.411   .     S
C569   O604    1.410   .     S
C569   H591    1.111   .     S
C569   H590    1.109   .     S
C569   H592    1.109   .     S
C570   C574    1.407   .     A
C570   C1168   1.415   1_554 S
C570   C1183   1.413   1_554 S
C571   C572    1.392   .     A
C571   C1173   1.398   .     S
C571   C1182   1.413   .     S
C572   H597    1.084   .     S
C572   C573    1.391   .     A
C573   H581    1.076   .     S
C574   O604    1.394   .     S
C575   H578    1.083   .     S
Cu576  O608    1.969   .     S
Cu576  O602    1.974   .     S
Cu576  Cu577   2.671   .     S
Cu576  O606    1.970   .     S
Cu576  O610    1.962   .     S
Cu576  N600    2.007   .     S
Cu577  O605    1.969   .     S
Cu577  O607    1.962   .     S
Cu577  O611    1.970   .     S
Cu577  N601    2.007   .     S
Cu577  O609    1.974   .     S
H580   C1176   1.083   1_554 S
H598   C1173   1.083   .     S
C613   O670    1.287   .     A
C613   C621    1.454   .     S
C613   O673    1.292   .     A
C614   C616    1.472   .     S
C614   C631    1.405   .     A
C614   C635    1.425   .     A
C615   C621    1.400   .     A
C615   H650    1.084   .     S
C615   C821    1.389   .     S
C616   O674    1.298   .     A
C616   O675    1.290   .     A
C617   O680    1.385   .     S
C617   C618    1.411   .     A
C617   C1023   1.389   1_545 S
C618   C619    1.400   .     A
C618   C627    1.455   .     S
C619   H657    1.084   .     S
C619   C1028   1.389   1_545 S
C620   O671    1.384   .     S
C620   C621    1.410   .     A
C620   C823    1.389   .     S
C622   N669    1.367   .     A
C622   H661    1.080   .     S
C622   C691    1.413   .     S
C623   H662    1.081   .     S
C623   N668    1.365   .     A
C623   C758    1.413   1_455 S
C624   C635    1.416   .     A
C624   C21     1.408   1_556 S
C624   C26     1.415   1_556 S
C625   N668    1.367   .     A
C625   H663    1.082   .     S
C625   C762    1.414   1_455 S
C626   N669    1.366   .     A
C626   H664    1.081   .     S
C626   C693    1.414   .     S
C627   O676    1.292   .     A
C627   O677    1.288   .     A
C628   O679    1.298   .     A
C628   O678    1.287   .     A
C628   C630    1.465   .     S
C629   C643    1.393   .     A
C630   C642    1.415   .     A
C630   C643    1.405   .     A
C631   C632    1.387   .     A
C631   H667    1.083   .     S
C632   C21     1.388   1_556 S
C632   H36     1.083   1_556 S
C633   H647    1.076   .     S
C634   H652    1.109   .     S
C634   O680    1.412   .     S
C634   H651    1.114   .     S
C634   H653    1.112   .     S
C635   C641    1.415   .     A
C636   H654    1.109   .     S
C636   H655    1.114   .     S
C636   H656    1.112   .     S
C636   O671    1.411   .     S
C637   O672    1.410   .     S
C637   H659    1.111   .     S
C637   H658    1.109   .     S
C637   H660    1.109   .     S
C638   C642    1.407   .     A
C639   C640    1.392   .     A
C639   C17     1.398   1_556 S
C639   C26     1.413   1_556 S
C640   H665    1.084   .     S
C640   C641    1.391   .     A
C641   H649    1.076   .     S
C642   O672    1.394   .     S
C643   H646    1.083   .     S
Cu644  O676    1.969   .     S
Cu644  O670    1.974   .     S
Cu644  Cu645   2.671   .     S
Cu644  O674    1.970   .     S
Cu644  O678    1.962   .     S
Cu644  N668    2.007   .     S
Cu645  O673    1.969   .     S
Cu645  O675    1.962   .     S
Cu645  O679    1.970   .     S
Cu645  N669    2.007   .     S
Cu645  O677    1.974   .     S
H666   C17     1.083   1_556 S
C681   O738    1.287   .     A
C681   C689    1.454   .     S
C681   O741    1.292   .     A
C682   C684    1.472   .     S
C682   C699    1.405   .     A
C682   C703    1.425   .     A
C683   C689    1.400   .     A
C683   H718    1.084   .     S
C683   C889    1.389   .     S
C684   O742    1.298   .     A
C684   O743    1.290   .     A
C685   O748    1.385   .     S
C685   C686    1.411   .     A
C685   C1091   1.389   1_545 S
C686   C687    1.400   .     A
C686   C695    1.455   .     S
C687   H725    1.084   .     S
C687   C1096   1.389   1_545 S
C688   O739    1.384   .     S
C688   C689    1.410   .     A
C688   C891    1.389   .     S
C690   N737    1.367   .     A
C690   H729    1.080   .     S
C690   C759    1.413   .     S
C691   H730    1.081   .     S
C691   N736    1.365   .     A
C692   C703    1.416   .     A
C692   C89     1.408   1_556 S
C692   C94     1.415   1_556 S
C693   N736    1.367   .     A
C693   H731    1.082   .     S
C694   N737    1.366   .     A
C694   H732    1.081   .     S
C694   C761    1.414   .     S
C695   O744    1.292   .     A
C695   O745    1.288   .     A
C696   O747    1.298   .     A
C696   O746    1.287   .     A
C696   C698    1.465   .     S
C697   C711    1.393   .     A
C698   C710    1.415   .     A
C698   C711    1.405   .     A
C699   C700    1.387   .     A
C699   H735    1.083   .     S
C700   C89     1.388   1_556 S
C700   H104    1.083   1_556 S
C701   H715    1.076   .     S
C702   H720    1.109   .     S
C702   O748    1.412   .     S
C702   H719    1.114   .     S
C702   H721    1.112   .     S
C703   C709    1.415   .     A
C704   H722    1.109   .     S
C704   H723    1.114   .     S
C704   H724    1.112   .     S
C704   O739    1.411   .     S
C705   O740    1.410   .     S
C705   H727    1.111   .     S
C705   H726    1.109   .     S
C705   H728    1.109   .     S
C706   C710    1.407   .     A
C707   C708    1.392   .     A
C707   C85     1.398   1_556 S
C707   C94     1.413   1_556 S
C708   H733    1.084   .     S
C708   C709    1.391   .     A
C709   H717    1.076   .     S
C710   O740    1.394   .     S
C711   H714    1.083   .     S
Cu712  O744    1.969   .     S
Cu712  O738    1.974   .     S
Cu712  Cu713   2.671   .     S
Cu712  O742    1.970   .     S
Cu712  O746    1.962   .     S
Cu712  N736    2.007   .     S
Cu713  O741    1.969   .     S
Cu713  O743    1.962   .     S
Cu713  O747    1.970   .     S
Cu713  N737    2.007   .     S
Cu713  O745    1.974   .     S
H734   C85     1.083   1_556 S
C749   O806    1.287   .     A
C749   C757    1.454   .     S
C749   O809    1.292   .     A
C750   C752    1.472   .     S
C750   C767    1.405   .     A
C750   C771    1.425   .     A
C751   C757    1.400   .     A
C751   H786    1.084   .     S
C751   C957    1.389   .     S
C752   O810    1.298   .     A
C752   O811    1.290   .     A
C753   O816    1.385   .     S
C753   C754    1.411   .     A
C753   C1159   1.389   1_545 S
C754   C755    1.400   .     A
C754   C763    1.455   .     S
C755   H793    1.084   .     S
C755   C1164   1.389   1_545 S
C756   O807    1.384   .     S
C756   C757    1.410   .     A
C756   C959    1.389   .     S
C758   N805    1.367   .     A
C758   H797    1.080   .     S
C758   C623    1.413   1_655 S
C759   H798    1.081   .     S
C759   N804    1.365   .     A
C760   C771    1.416   .     A
C760   C157    1.408   1_556 S
C760   C162    1.415   1_556 S
C761   N804    1.367   .     A
C761   H799    1.082   .     S
C762   N805    1.366   .     A
C762   H800    1.081   .     S
C762   C625    1.414   1_655 S
C763   O812    1.292   .     A
C763   O813    1.288   .     A
C764   O815    1.298   .     A
C764   O814    1.287   .     A
C764   C766    1.465   .     S
C765   C779    1.393   .     A
C766   C778    1.415   .     A
C766   C779    1.405   .     A
C767   C768    1.387   .     A
C767   H803    1.083   .     S
C768   C157    1.388   1_556 S
C768   H172    1.083   1_556 S
C769   H783    1.076   .     S
C770   H788    1.109   .     S
C770   O816    1.412   .     S
C770   H787    1.114   .     S
C770   H789    1.112   .     S
C771   C777    1.415   .     A
C772   H790    1.109   .     S
C772   H791    1.114   .     S
C772   H792    1.112   .     S
C772   O807    1.411   .     S
C773   O808    1.410   .     S
C773   H795    1.111   .     S
C773   H794    1.109   .     S
C773   H796    1.109   .     S
C774   C778    1.407   .     A
C775   C776    1.392   .     A
C775   C153    1.398   1_556 S
C775   C162    1.413   1_556 S
C776   H801    1.084   .     S
C776   C777    1.391   .     A
C777   H785    1.076   .     S
C778   O808    1.394   .     S
C779   H782    1.083   .     S
Cu780  O812    1.969   .     S
Cu780  O806    1.974   .     S
Cu780  Cu781   2.671   .     S
Cu780  O810    1.970   .     S
Cu780  O814    1.962   .     S
Cu780  N804    2.007   .     S
Cu781  O809    1.969   .     S
Cu781  O811    1.962   .     S
Cu781  O815    1.970   .     S
Cu781  N805    2.007   .     S
Cu781  O813    1.974   .     S
H802   C153    1.083   1_556 S
C817   O874    1.287   .     A
C817   C825    1.454   .     S
C817   O877    1.292   .     A
C818   C820    1.472   .     S
C818   C835    1.405   .     A
C818   C839    1.425   .     A
C819   C825    1.400   .     A
C819   H854    1.084   .     S
C819   C1025   1.389   .     S
C820   O878    1.298   .     A
C820   O879    1.290   .     A
C821   O884    1.385   .     S
C821   C822    1.411   .     A
C822   C823    1.400   .     A
C822   C831    1.455   .     S
C823   H861    1.084   .     S
C824   O875    1.384   .     S
C824   C825    1.410   .     A
C824   C1027   1.389   .     S
C826   N873    1.367   .     A
C826   H865    1.080   .     S
C826   C895    1.413   .     S
C827   H866    1.081   .     S
C827   N872    1.365   .     A
C827   C962    1.413   1_455 S
C828   C839    1.416   .     A
C828   C225    1.408   1_556 S
C828   C230    1.415   1_556 S
C829   N872    1.367   .     A
C829   H867    1.082   .     S
C829   C966    1.414   1_455 S
C830   N873    1.366   .     A
C830   H868    1.081   .     S
C830   C897    1.414   .     S
C831   O880    1.292   .     A
C831   O881    1.288   .     A
C832   O883    1.298   .     A
C832   O882    1.287   .     A
C832   C834    1.465   .     S
C833   C847    1.393   .     A
C834   C846    1.415   .     A
C834   C847    1.405   .     A
C835   C836    1.387   .     A
C835   H871    1.083   .     S
C836   C225    1.388   1_556 S
C836   H240    1.083   1_556 S
C837   H851    1.076   .     S
C838   H856    1.109   .     S
C838   O884    1.412   .     S
C838   H855    1.114   .     S
C838   H857    1.112   .     S
C839   C845    1.415   .     A
C840   H858    1.109   .     S
C840   H859    1.114   .     S
C840   H860    1.112   .     S
C840   O875    1.411   .     S
C841   O876    1.410   .     S
C841   H863    1.111   .     S
C841   H862    1.109   .     S
C841   H864    1.109   .     S
C842   C846    1.407   .     A
C843   C844    1.392   .     A
C843   C221    1.398   1_556 S
C843   C230    1.413   1_556 S
C844   H869    1.084   .     S
C844   C845    1.391   .     A
C845   H853    1.076   .     S
C846   O876    1.394   .     S
C847   H850    1.083   .     S
Cu848  O880    1.969   .     S
Cu848  O874    1.974   .     S
Cu848  Cu849   2.671   .     S
Cu848  O878    1.970   .     S
Cu848  O882    1.962   .     S
Cu848  N872    2.007   .     S
Cu849  O877    1.969   .     S
Cu849  O879    1.962   .     S
Cu849  O883    1.970   .     S
Cu849  N873    2.007   .     S
Cu849  O881    1.974   .     S
H870   C221    1.083   1_556 S
C885   O942    1.287   .     A
C885   C893    1.454   .     S
C885   O945    1.292   .     A
C886   C888    1.472   .     S
C886   C903    1.405   .     A
C886   C907    1.425   .     A
C887   C893    1.400   .     A
C887   H922    1.084   .     S
C887   C1093   1.389   .     S
C888   O946    1.298   .     A
C888   O947    1.290   .     A
C889   O952    1.385   .     S
C889   C890    1.411   .     A
C890   C891    1.400   .     A
C890   C899    1.455   .     S
C891   H929    1.084   .     S
C892   O943    1.384   .     S
C892   C893    1.410   .     A
C892   C1095   1.389   .     S
C894   N941    1.367   .     A
C894   H933    1.080   .     S
C894   C963    1.413   .     S
C895   H934    1.081   .     S
C895   N940    1.365   .     A
C896   C907    1.416   .     A
C896   C293    1.408   1_556 S
C896   C298    1.415   1_556 S
C897   N940    1.367   .     A
C897   H935    1.082   .     S
C898   N941    1.366   .     A
C898   H936    1.081   .     S
C898   C965    1.414   .     S
C899   O948    1.292   .     A
C899   O949    1.288   .     A
C900   O951    1.298   .     A
C900   O950    1.287   .     A
C900   C902    1.465   .     S
C901   C915    1.393   .     A
C902   C914    1.415   .     A
C902   C915    1.405   .     A
C903   C904    1.387   .     A
C903   H939    1.083   .     S
C904   C293    1.388   1_556 S
C904   H308    1.083   1_556 S
C905   H919    1.076   .     S
C906   H924    1.109   .     S
C906   O952    1.412   .     S
C906   H923    1.114   .     S
C906   H925    1.112   .     S
C907   C913    1.415   .     A
C908   H926    1.109   .     S
C908   H927    1.114   .     S
C908   H928    1.112   .     S
C908   O943    1.411   .     S
C909   O944    1.410   .     S
C909   H931    1.111   .     S
C909   H930    1.109   .     S
C909   H932    1.109   .     S
C910   C914    1.407   .     A
C911   C912    1.392   .     A
C911   C289    1.398   1_556 S
C911   C298    1.413   1_556 S
C912   H937    1.084   .     S
C912   C913    1.391   .     A
C913   H921    1.076   .     S
C914   O944    1.394   .     S
C915   H918    1.083   .     S
Cu916  O948    1.969   .     S
Cu916  O942    1.974   .     S
Cu916  Cu917   2.671   .     S
Cu916  O946    1.970   .     S
Cu916  O950    1.962   .     S
Cu916  N940    2.007   .     S
Cu917  O945    1.969   .     S
Cu917  O947    1.962   .     S
Cu917  O951    1.970   .     S
Cu917  N941    2.007   .     S
Cu917  O949    1.974   .     S
H938   C289    1.083   1_556 S
C953   O1010   1.287   .     A
C953   C961    1.454   .     S
C953   O1013   1.292   .     A
C954   C956    1.472   .     S
C954   C971    1.405   .     A
C954   C975    1.425   .     A
C955   C961    1.400   .     A
C955   H990    1.084   .     S
C955   C1161   1.389   .     S
C956   O1014   1.298   .     A
C956   O1015   1.290   .     A
C957   O1020   1.385   .     S
C957   C958    1.411   .     A
C958   C959    1.400   .     A
C958   C967    1.455   .     S
C959   H997    1.084   .     S
C960   O1011   1.384   .     S
C960   C961    1.410   .     A
C960   C1163   1.389   .     S
C962   N1009   1.367   .     A
C962   H1001   1.080   .     S
C962   C827    1.413   1_655 S
C963   H1002   1.081   .     S
C963   N1008   1.365   .     A
C964   C975    1.416   .     A
C964   C361    1.408   1_556 S
C964   C366    1.415   1_556 S
C965   N1008   1.367   .     A
C965   H1003   1.082   .     S
C966   N1009   1.366   .     A
C966   H1004   1.081   .     S
C966   C829    1.414   1_655 S
C967   O1016   1.292   .     A
C967   O1017   1.288   .     A
C968   O1019   1.298   .     A
C968   O1018   1.287   .     A
C968   C970    1.465   .     S
C969   C983    1.393   .     A
C970   C982    1.415   .     A
C970   C983    1.405   .     A
C971   C972    1.387   .     A
C971   H1007   1.083   .     S
C972   C361    1.388   1_556 S
C972   H376    1.083   1_556 S
C973   H987    1.076   .     S
C974   H992    1.109   .     S
C974   O1020   1.412   .     S
C974   H991    1.114   .     S
C974   H993    1.112   .     S
C975   C981    1.415   .     A
C976   H994    1.109   .     S
C976   H995    1.114   .     S
C976   H996    1.112   .     S
C976   O1011   1.411   .     S
C977   O1012   1.410   .     S
C977   H999    1.111   .     S
C977   H998    1.109   .     S
C977   H1000   1.109   .     S
C978   C982    1.407   .     A
C979   C980    1.392   .     A
C979   C357    1.398   1_556 S
C979   C366    1.413   1_556 S
C980   H1005   1.084   .     S
C980   C981    1.391   .     A
C981   H989    1.076   .     S
C982   O1012   1.394   .     S
C983   H986    1.083   .     S
Cu984  O1016   1.969   .     S
Cu984  O1010   1.974   .     S
Cu984  Cu985   2.671   .     S
Cu984  O1014   1.970   .     S
Cu984  O1018   1.962   .     S
Cu984  N1008   2.007   .     S
Cu985  O1013   1.969   .     S
Cu985  O1015   1.962   .     S
Cu985  O1019   1.970   .     S
Cu985  N1009   2.007   .     S
Cu985  O1017   1.974   .     S
H1006  C357    1.083   1_556 S
C1021  O1078   1.287   .     A
C1021  C1029   1.454   .     S
C1021  O1081   1.292   .     A
C1022  C1024   1.472   .     S
C1022  C1039   1.405   .     A
C1022  C1043   1.425   .     A
C1023  C1029   1.400   .     A
C1023  H1058   1.084   .     S
C1023  C617    1.389   1_565 S
C1024  O1082   1.298   .     A
C1024  O1083   1.290   .     A
C1025  O1088   1.385   .     S
C1025  C1026   1.411   .     A
C1026  C1027   1.400   .     A
C1026  C1035   1.455   .     S
C1027  H1065   1.084   .     S
C1028  O1079   1.384   .     S
C1028  C1029   1.410   .     A
C1028  C619    1.389   1_565 S
C1030  N1077   1.367   .     A
C1030  H1069   1.080   .     S
C1030  C1099   1.413   .     S
C1031  H1070   1.081   .     S
C1031  N1076   1.365   .     A
C1031  C1166   1.413   1_455 S
C1032  C1043   1.416   .     A
C1032  C429    1.408   1_556 S
C1032  C434    1.415   1_556 S
C1033  N1076   1.367   .     A
C1033  H1071   1.082   .     S
C1033  C1170   1.414   1_455 S
C1034  N1077   1.366   .     A
C1034  H1072   1.081   .     S
C1034  C1101   1.414   .     S
C1035  O1084   1.292   .     A
C1035  O1085   1.288   .     A
C1036  O1087   1.298   .     A
C1036  O1086   1.287   .     A
C1036  C1038   1.465   .     S
C1037  C1051   1.393   .     A
C1038  C1050   1.415   .     A
C1038  C1051   1.405   .     A
C1039  C1040   1.387   .     A
C1039  H1075   1.083   .     S
C1040  C429    1.388   1_556 S
C1040  H444    1.083   1_556 S
C1041  H1055   1.076   .     S
C1042  H1060   1.109   .     S
C1042  O1088   1.412   .     S
C1042  H1059   1.114   .     S
C1042  H1061   1.112   .     S
C1043  C1049   1.415   .     A
C1044  H1062   1.109   .     S
C1044  H1063   1.114   .     S
C1044  H1064   1.112   .     S
C1044  O1079   1.411   .     S
C1045  O1080   1.410   .     S
C1045  H1067   1.111   .     S
C1045  H1066   1.109   .     S
C1045  H1068   1.109   .     S
C1046  C1050   1.407   .     A
C1047  C1048   1.392   .     A
C1047  C425    1.398   1_556 S
C1047  C434    1.413   1_556 S
C1048  H1073   1.084   .     S
C1048  C1049   1.391   .     A
C1049  H1057   1.076   .     S
C1050  O1080   1.394   .     S
C1051  H1054   1.083   .     S
Cu1052 O1084   1.969   .     S
Cu1052 O1078   1.974   .     S
Cu1052 Cu1053  2.671   .     S
Cu1052 O1082   1.970   .     S
Cu1052 O1086   1.962   .     S
Cu1052 N1076   2.007   .     S
Cu1053 O1081   1.969   .     S
Cu1053 O1083   1.962   .     S
Cu1053 O1087   1.970   .     S
Cu1053 N1077   2.007   .     S
Cu1053 O1085   1.974   .     S
H1074  C425    1.083   1_556 S
C1089  O1146   1.287   .     A
C1089  C1097   1.454   .     S
C1089  O1149   1.292   .     A
C1090  C1092   1.472   .     S
C1090  C1107   1.405   .     A
C1090  C1111   1.425   .     A
C1091  C1097   1.400   .     A
C1091  H1126   1.084   .     S
C1091  C685    1.389   1_565 S
C1092  O1150   1.298   .     A
C1092  O1151   1.290   .     A
C1093  O1156   1.385   .     S
C1093  C1094   1.411   .     A
C1094  C1095   1.400   .     A
C1094  C1103   1.455   .     S
C1095  H1133   1.084   .     S
C1096  O1147   1.384   .     S
C1096  C1097   1.410   .     A
C1096  C687    1.389   1_565 S
C1098  N1145   1.367   .     A
C1098  H1137   1.080   .     S
C1098  C1167   1.413   .     S
C1099  H1138   1.081   .     S
C1099  N1144   1.365   .     A
C1100  C1111   1.416   .     A
C1100  C497    1.408   1_556 S
C1100  C502    1.415   1_556 S
C1101  N1144   1.367   .     A
C1101  H1139   1.082   .     S
C1102  N1145   1.366   .     A
C1102  H1140   1.081   .     S
C1102  C1169   1.414   .     S
C1103  O1152   1.292   .     A
C1103  O1153   1.288   .     A
C1104  O1155   1.298   .     A
C1104  O1154   1.287   .     A
C1104  C1106   1.465   .     S
C1105  C1119   1.393   .     A
C1106  C1118   1.415   .     A
C1106  C1119   1.405   .     A
C1107  C1108   1.387   .     A
C1107  H1143   1.083   .     S
C1108  C497    1.388   1_556 S
C1108  H512    1.083   1_556 S
C1109  H1123   1.076   .     S
C1110  H1128   1.109   .     S
C1110  O1156   1.412   .     S
C1110  H1127   1.114   .     S
C1110  H1129   1.112   .     S
C1111  C1117   1.415   .     A
C1112  H1130   1.109   .     S
C1112  H1131   1.114   .     S
C1112  H1132   1.112   .     S
C1112  O1147   1.411   .     S
C1113  O1148   1.410   .     S
C1113  H1135   1.111   .     S
C1113  H1134   1.109   .     S
C1113  H1136   1.109   .     S
C1114  C1118   1.407   .     A
C1115  C1116   1.392   .     A
C1115  C493    1.398   1_556 S
C1115  C502    1.413   1_556 S
C1116  H1141   1.084   .     S
C1116  C1117   1.391   .     A
C1117  H1125   1.076   .     S
C1118  O1148   1.394   .     S
C1119  H1122   1.083   .     S
Cu1120 O1152   1.969   .     S
Cu1120 O1146   1.974   .     S
Cu1120 Cu1121  2.671   .     S
Cu1120 O1150   1.970   .     S
Cu1120 O1154   1.962   .     S
Cu1120 N1144   2.007   .     S
Cu1121 O1149   1.969   .     S
Cu1121 O1151   1.962   .     S
Cu1121 O1155   1.970   .     S
Cu1121 N1145   2.007   .     S
Cu1121 O1153   1.974   .     S
H1142  C493    1.083   1_556 S
C1157  O1214   1.287   .     A
C1157  C1165   1.454   .     S
C1157  O1217   1.292   .     A
C1158  C1160   1.472   .     S
C1158  C1175   1.405   .     A
C1158  C1179   1.425   .     A
C1159  C1165   1.400   .     A
C1159  H1194   1.084   .     S
C1159  C753    1.389   1_565 S
C1160  O1218   1.298   .     A
C1160  O1219   1.290   .     A
C1161  O1224   1.385   .     S
C1161  C1162   1.411   .     A
C1162  C1163   1.400   .     A
C1162  C1171   1.455   .     S
C1163  H1201   1.084   .     S
C1164  O1215   1.384   .     S
C1164  C1165   1.410   .     A
C1164  C755    1.389   1_565 S
C1166  N1213   1.367   .     A
C1166  H1205   1.080   .     S
C1166  C1031   1.413   1_655 S
C1167  H1206   1.081   .     S
C1167  N1212   1.365   .     A
C1168  C1179   1.416   .     A
C1168  C565    1.408   1_556 S
C1168  C570    1.415   1_556 S
C1169  N1212   1.367   .     A
C1169  H1207   1.082   .     S
C1170  N1213   1.366   .     A
C1170  H1208   1.081   .     S
C1170  C1033   1.414   1_655 S
C1171  O1220   1.292   .     A
C1171  O1221   1.288   .     A
C1172  O1223   1.298   .     A
C1172  O1222   1.287   .     A
C1172  C1174   1.465   .     S
C1173  C1187   1.393   .     A
C1174  C1186   1.415   .     A
C1174  C1187   1.405   .     A
C1175  C1176   1.387   .     A
C1175  H1211   1.083   .     S
C1176  C565    1.388   1_556 S
C1176  H580    1.083   1_556 S
C1177  H1191   1.076   .     S
C1178  H1196   1.109   .     S
C1178  O1224   1.412   .     S
C1178  H1195   1.114   .     S
C1178  H1197   1.112   .     S
C1179  C1185   1.415   .     A
C1180  H1198   1.109   .     S
C1180  H1199   1.114   .     S
C1180  H1200   1.112   .     S
C1180  O1215   1.411   .     S
C1181  O1216   1.410   .     S
C1181  H1203   1.111   .     S
C1181  H1202   1.109   .     S
C1181  H1204   1.109   .     S
C1182  C1186   1.407   .     A
C1183  C1184   1.392   .     A
C1183  C561    1.398   1_556 S
C1183  C570    1.413   1_556 S
C1184  H1209   1.084   .     S
C1184  C1185   1.391   .     A
C1185  H1193   1.076   .     S
C1186  O1216   1.394   .     S
C1187  H1190   1.083   .     S
Cu1188 O1220   1.969   .     S
Cu1188 O1214   1.974   .     S
Cu1188 Cu1189  2.671   .     S
Cu1188 O1218   1.970   .     S
Cu1188 O1222   1.962   .     S
Cu1188 N1212   2.007   .     S
Cu1189 O1217   1.969   .     S
Cu1189 O1219   1.962   .     S
Cu1189 O1223   1.970   .     S
Cu1189 N1213   2.007   .     S
Cu1189 O1221   1.974   .     S
H1210  C561    1.083   1_556 S
