data_str_m2_o10_o18_pcu_sym.153
_audit_creation_date              2020-01-03
_audit_creation_method            'Materials Studio'
_symmetry_space_group_name_H-M    'P1'
_symmetry_Int_Tables_number       1
_symmetry_cell_setting            triclinic
loop_
_symmetry_equiv_pos_as_xyz
  x,y,z
_cell_length_a                    22.2891
_cell_length_b                    26.0881
_cell_length_c                    31.3896
_cell_angle_alpha                 94.1375
_cell_angle_beta                  74.7274
_cell_angle_gamma                 103.2381
loop_
_atom_site_label
_atom_site_type_symbol
_atom_site_fract_x
_atom_site_fract_y
_atom_site_fract_z
_atom_site_U_iso_or_equiv
_atom_site_adp_type
_atom_site_occupancy
C1     C     0.18170   0.26673   0.25133   0.00000  Uiso   1.00
C2     C     0.15161   0.06660   0.24872   0.00000  Uiso   1.00
C3     C     0.10415   0.10146   0.03491   0.00000  Uiso   1.00
C4     C     0.24699   0.17460   0.45381   0.00000  Uiso   1.00
C5     C     0.06154   0.08622   0.00819   0.00000  Uiso   1.00
C6     C     0.28999   0.18846   0.47996   0.00000  Uiso   1.00
C7     C     0.19015   0.32270   0.25199   0.00000  Uiso   1.00
C8     C     0.14311   0.01063   0.24813   0.00000  Uiso   1.00
C9     C     0.12718   0.16006   0.33328   0.00000  Uiso   1.00
C10    C     0.20576   0.17075   0.16648   0.00000  Uiso   1.00
C11    C     0.10183   0.14646   0.38063   0.00000  Uiso   1.00
C12    C     0.23042   0.17326   0.11783   0.00000  Uiso   1.00
C13    C     0.03229   0.08945   0.43999   0.00000  Uiso   1.00
C14    C     0.31493   0.19545   0.05083   0.00000  Uiso   1.00
C15    C     0.04557   0.10737   0.39700   0.00000  Uiso   1.00
C16    C     0.29575   0.19058   0.09705   0.00000  Uiso   1.00
C17    C     0.14226   0.16576   0.40840   0.00000  Uiso   1.00
C18    C     0.18660   0.15846   0.09186   0.00000  Uiso   1.00
C19    C     0.13373   0.14203   0.44909   0.00000  Uiso   1.00
C20    C     0.20621   0.15794   0.04549   0.00000  Uiso   1.00
C21    C     0.07544   0.10645   0.46606   0.00000  Uiso   1.00
C22    C     0.27044   0.18079   0.02537   0.00000  Uiso   1.00
C23    C     0.18118   0.15269   0.47342   0.00000  Uiso   1.00
C24    C     0.16295   0.13807   0.01876   0.00000  Uiso   1.00
Cu25   Cu    0.10737   0.16108   0.24517   0.00000  Uiso   1.00
Cu26   Cu    0.22596   0.17225   0.25484   0.00000  Uiso   1.00
H27    H     0.01733   0.05770   0.02026   0.00000  Uiso   1.00
H28    H     0.00639   0.20451   0.46425   0.00000  Uiso   1.00
H29    H     0.13652   0.14962   0.10839   0.00000  Uiso   1.00
H30    H     0.18194   0.19838   0.39692   0.00000  Uiso   1.00
H31    H     0.32202   0.06043   0.45250   0.00000  Uiso   1.00
H32    H     0.03132   0.21095   0.03471   0.00000  Uiso   1.00
H33    H     0.23548   0.01319   0.25564   0.00000  Uiso   1.00
H34    H     0.09778   0.32015   0.24450   0.00000  Uiso   1.00
H35    H     0.00116   0.20495   0.28464   0.00000  Uiso   1.00
H36    H     0.33216   0.12836   0.21538   0.00000  Uiso   1.00
N37    N     0.31506   0.18068   0.26212   0.00000  Uiso   1.00
N38    N     0.01827   0.15265   0.23788   0.00000  Uiso   1.00
O39    O     0.12815   0.23809   0.24686   0.00000  Uiso   1.00
O40    O     0.20518   0.09524   0.25314   0.00000  Uiso   1.00
O41    O     0.22829   0.24753   0.25503   0.00000  Uiso   1.00
O42    O     0.10504   0.08580   0.24498   0.00000  Uiso   1.00
O43    O     0.08851   0.15930   0.30855   0.00000  Uiso   1.00
O44    O     0.24482   0.17403   0.19146   0.00000  Uiso   1.00
O45    O     0.18866   0.16874   0.31671   0.00000  Uiso   1.00
O46    O     0.14468   0.16460   0.18329   0.00000  Uiso   1.00
O47    O     0.00617   0.20449   0.12221   0.00000  Uiso   1.00
H48    H     0.04955   0.21499   0.10237   0.00000  Uiso   1.00
O49    O     0.00461   0.08269   0.37197   0.00000  Uiso   1.00
H50    H     0.00131   0.10827   0.35160   0.00000  Uiso   1.00
O51    O     0.09216   0.07610   0.07445   0.00000  Uiso   1.00
H52    H     0.04952   0.05197   0.08058   0.00000  Uiso   1.00
O53    O     0.27311   0.17754   0.40891   0.00000  Uiso   1.00
H54    H     0.25156   0.14557   0.39533   0.00000  Uiso   1.00
C55    C     0.51503   0.26673   0.25133   0.00000  Uiso   1.00
C56    C     0.48494   0.06660   0.24872   0.00000  Uiso   1.00
C57    C     0.43748   0.10146   0.03491   0.00000  Uiso   1.00
C58    C     0.58032   0.17460   0.45381   0.00000  Uiso   1.00
C59    C     0.39488   0.08622   0.00819   0.00000  Uiso   1.00
C60    C     0.62332   0.18846   0.47996   0.00000  Uiso   1.00
C61    C     0.52349   0.32270   0.25199   0.00000  Uiso   1.00
C62    C     0.47645   0.01063   0.24813   0.00000  Uiso   1.00
C63    C     0.46051   0.16006   0.33328   0.00000  Uiso   1.00
C64    C     0.53909   0.17075   0.16648   0.00000  Uiso   1.00
C65    C     0.43517   0.14646   0.38063   0.00000  Uiso   1.00
C66    C     0.56375   0.17326   0.11783   0.00000  Uiso   1.00
C67    C     0.36562   0.08945   0.43999   0.00000  Uiso   1.00
C68    C     0.64827   0.19545   0.05083   0.00000  Uiso   1.00
C69    C     0.37890   0.10737   0.39700   0.00000  Uiso   1.00
C70    C     0.62908   0.19058   0.09705   0.00000  Uiso   1.00
C71    C     0.47560   0.16576   0.40840   0.00000  Uiso   1.00
C72    C     0.51994   0.15846   0.09186   0.00000  Uiso   1.00
C73    C     0.46707   0.14203   0.44909   0.00000  Uiso   1.00
C74    C     0.53954   0.15794   0.04549   0.00000  Uiso   1.00
C75    C     0.40877   0.10645   0.46606   0.00000  Uiso   1.00
C76    C     0.60378   0.18079   0.02537   0.00000  Uiso   1.00
C77    C     0.51451   0.15269   0.47342   0.00000  Uiso   1.00
C78    C     0.49629   0.13807   0.01876   0.00000  Uiso   1.00
Cu79   Cu    0.44071   0.16108   0.24517   0.00000  Uiso   1.00
Cu80   Cu    0.55929   0.17225   0.25484   0.00000  Uiso   1.00
H81    H     0.35067   0.05770   0.02026   0.00000  Uiso   1.00
H82    H     0.33973   0.20451   0.46425   0.00000  Uiso   1.00
H83    H     0.46985   0.14962   0.10839   0.00000  Uiso   1.00
H84    H     0.51528   0.19838   0.39692   0.00000  Uiso   1.00
H85    H     0.65535   0.06043   0.45250   0.00000  Uiso   1.00
H86    H     0.36465   0.21095   0.03471   0.00000  Uiso   1.00
H87    H     0.56881   0.01319   0.25564   0.00000  Uiso   1.00
H88    H     0.43111   0.32015   0.24450   0.00000  Uiso   1.00
H89    H     0.33449   0.20495   0.28464   0.00000  Uiso   1.00
H90    H     0.66550   0.12836   0.21538   0.00000  Uiso   1.00
N91    N     0.64839   0.18068   0.26212   0.00000  Uiso   1.00
N92    N     0.35161   0.15265   0.23788   0.00000  Uiso   1.00
O93    O     0.46148   0.23809   0.24686   0.00000  Uiso   1.00
O94    O     0.53852   0.09524   0.25314   0.00000  Uiso   1.00
O95    O     0.56163   0.24753   0.25503   0.00000  Uiso   1.00
O96    O     0.43837   0.08580   0.24498   0.00000  Uiso   1.00
O97    O     0.42185   0.15930   0.30855   0.00000  Uiso   1.00
O98    O     0.57815   0.17403   0.19146   0.00000  Uiso   1.00
O99    O     0.52199   0.16874   0.31671   0.00000  Uiso   1.00
O100   O     0.47801   0.16460   0.18329   0.00000  Uiso   1.00
O101   O     0.33950   0.20449   0.12221   0.00000  Uiso   1.00
H102   H     0.38289   0.21499   0.10237   0.00000  Uiso   1.00
O103   O     0.33794   0.08269   0.37197   0.00000  Uiso   1.00
H104   H     0.33465   0.10827   0.35160   0.00000  Uiso   1.00
O105   O     0.42550   0.07610   0.07445   0.00000  Uiso   1.00
H106   H     0.38286   0.05197   0.08058   0.00000  Uiso   1.00
O107   O     0.60644   0.17754   0.40891   0.00000  Uiso   1.00
H108   H     0.58490   0.14557   0.39533   0.00000  Uiso   1.00
C109   C     0.84837   0.26673   0.25133   0.00000  Uiso   1.00
C110   C     0.81827   0.06660   0.24872   0.00000  Uiso   1.00
C111   C     0.77082   0.10146   0.03491   0.00000  Uiso   1.00
C112   C     0.91366   0.17460   0.45381   0.00000  Uiso   1.00
C113   C     0.72821   0.08622   0.00819   0.00000  Uiso   1.00
C114   C     0.95666   0.18846   0.47996   0.00000  Uiso   1.00
C115   C     0.85682   0.32270   0.25199   0.00000  Uiso   1.00
C116   C     0.80978   0.01063   0.24813   0.00000  Uiso   1.00
C117   C     0.79385   0.16006   0.33328   0.00000  Uiso   1.00
C118   C     0.87242   0.17075   0.16648   0.00000  Uiso   1.00
C119   C     0.76850   0.14646   0.38063   0.00000  Uiso   1.00
C120   C     0.89709   0.17326   0.11783   0.00000  Uiso   1.00
C121   C     0.69896   0.08945   0.43999   0.00000  Uiso   1.00
C122   C     0.98160   0.19545   0.05083   0.00000  Uiso   1.00
C123   C     0.71223   0.10737   0.39700   0.00000  Uiso   1.00
C124   C     0.96242   0.19058   0.09705   0.00000  Uiso   1.00
C125   C     0.80893   0.16576   0.40840   0.00000  Uiso   1.00
C126   C     0.85327   0.15846   0.09186   0.00000  Uiso   1.00
C127   C     0.80040   0.14203   0.44909   0.00000  Uiso   1.00
C128   C     0.87287   0.15794   0.04549   0.00000  Uiso   1.00
C129   C     0.74210   0.10645   0.46606   0.00000  Uiso   1.00
C130   C     0.93711   0.18079   0.02537   0.00000  Uiso   1.00
C131   C     0.84785   0.15269   0.47342   0.00000  Uiso   1.00
C132   C     0.82962   0.13807   0.01876   0.00000  Uiso   1.00
Cu133  Cu    0.77404   0.16108   0.24517   0.00000  Uiso   1.00
Cu134  Cu    0.89263   0.17225   0.25484   0.00000  Uiso   1.00
H135   H     0.68400   0.05770   0.02026   0.00000  Uiso   1.00
H136   H     0.67306   0.20451   0.46425   0.00000  Uiso   1.00
H137   H     0.80319   0.14962   0.10839   0.00000  Uiso   1.00
H138   H     0.84861   0.19838   0.39692   0.00000  Uiso   1.00
H139   H     0.98869   0.06043   0.45250   0.00000  Uiso   1.00
H140   H     0.69798   0.21095   0.03471   0.00000  Uiso   1.00
H141   H     0.90215   0.01319   0.25564   0.00000  Uiso   1.00
H142   H     0.76445   0.32015   0.24450   0.00000  Uiso   1.00
H143   H     0.66783   0.20495   0.28464   0.00000  Uiso   1.00
H144   H     0.99883   0.12836   0.21538   0.00000  Uiso   1.00
N145   N     0.98173   0.18068   0.26212   0.00000  Uiso   1.00
N146   N     0.68494   0.15265   0.23788   0.00000  Uiso   1.00
O147   O     0.79482   0.23809   0.24686   0.00000  Uiso   1.00
O148   O     0.87185   0.09524   0.25314   0.00000  Uiso   1.00
O149   O     0.89496   0.24753   0.25503   0.00000  Uiso   1.00
O150   O     0.77171   0.08580   0.24498   0.00000  Uiso   1.00
O151   O     0.75518   0.15930   0.30855   0.00000  Uiso   1.00
O152   O     0.91149   0.17403   0.19146   0.00000  Uiso   1.00
O153   O     0.85532   0.16874   0.31671   0.00000  Uiso   1.00
O154   O     0.81134   0.16460   0.18329   0.00000  Uiso   1.00
O155   O     0.67284   0.20449   0.12221   0.00000  Uiso   1.00
H156   H     0.71622   0.21499   0.10237   0.00000  Uiso   1.00
O157   O     0.67127   0.08269   0.37197   0.00000  Uiso   1.00
H158   H     0.66798   0.10827   0.35160   0.00000  Uiso   1.00
O159   O     0.75883   0.07610   0.07445   0.00000  Uiso   1.00
H160   H     0.71619   0.05197   0.08058   0.00000  Uiso   1.00
O161   O     0.93978   0.17754   0.40891   0.00000  Uiso   1.00
H162   H     0.91823   0.14557   0.39533   0.00000  Uiso   1.00
C163   C     0.18170   0.60007   0.25133   0.00000  Uiso   1.00
C164   C     0.15161   0.39993   0.24872   0.00000  Uiso   1.00
C165   C     0.10415   0.43480   0.03491   0.00000  Uiso   1.00
C166   C     0.24699   0.50794   0.45381   0.00000  Uiso   1.00
C167   C     0.06154   0.41955   0.00819   0.00000  Uiso   1.00
C168   C     0.28999   0.52179   0.47996   0.00000  Uiso   1.00
C169   C     0.19015   0.65604   0.25199   0.00000  Uiso   1.00
C170   C     0.14311   0.34397   0.24813   0.00000  Uiso   1.00
C171   C     0.12718   0.49339   0.33328   0.00000  Uiso   1.00
C172   C     0.20576   0.50409   0.16648   0.00000  Uiso   1.00
C173   C     0.10183   0.47979   0.38063   0.00000  Uiso   1.00
C174   C     0.23042   0.50659   0.11783   0.00000  Uiso   1.00
C175   C     0.03229   0.42278   0.43999   0.00000  Uiso   1.00
C176   C     0.31493   0.52878   0.05083   0.00000  Uiso   1.00
C177   C     0.04557   0.44070   0.39700   0.00000  Uiso   1.00
C178   C     0.29575   0.52392   0.09705   0.00000  Uiso   1.00
C179   C     0.14226   0.49909   0.40840   0.00000  Uiso   1.00
C180   C     0.18660   0.49179   0.09186   0.00000  Uiso   1.00
C181   C     0.13373   0.47537   0.44909   0.00000  Uiso   1.00
C182   C     0.20621   0.49128   0.04549   0.00000  Uiso   1.00
C183   C     0.07544   0.43978   0.46606   0.00000  Uiso   1.00
C184   C     0.27044   0.51412   0.02537   0.00000  Uiso   1.00
C185   C     0.18118   0.48603   0.47342   0.00000  Uiso   1.00
C186   C     0.16295   0.47141   0.01876   0.00000  Uiso   1.00
Cu187  Cu    0.10737   0.49441   0.24517   0.00000  Uiso   1.00
Cu188  Cu    0.22596   0.50559   0.25484   0.00000  Uiso   1.00
H189   H     0.01733   0.39103   0.02026   0.00000  Uiso   1.00
H190   H     0.00639   0.53785   0.46425   0.00000  Uiso   1.00
H191   H     0.13652   0.48295   0.10839   0.00000  Uiso   1.00
H192   H     0.18194   0.53171   0.39692   0.00000  Uiso   1.00
H193   H     0.32202   0.39377   0.45250   0.00000  Uiso   1.00
H194   H     0.03132   0.54428   0.03471   0.00000  Uiso   1.00
H195   H     0.23548   0.34652   0.25564   0.00000  Uiso   1.00
H196   H     0.09778   0.65348   0.24450   0.00000  Uiso   1.00
H197   H     0.00116   0.53829   0.28464   0.00000  Uiso   1.00
H198   H     0.33216   0.46169   0.21538   0.00000  Uiso   1.00
N199   N     0.31506   0.51401   0.26212   0.00000  Uiso   1.00
N200   N     0.01827   0.48599   0.23788   0.00000  Uiso   1.00
O201   O     0.12815   0.57142   0.24686   0.00000  Uiso   1.00
O202   O     0.20518   0.42858   0.25314   0.00000  Uiso   1.00
O203   O     0.22829   0.58086   0.25503   0.00000  Uiso   1.00
O204   O     0.10504   0.41914   0.24498   0.00000  Uiso   1.00
O205   O     0.08851   0.49263   0.30855   0.00000  Uiso   1.00
O206   O     0.24482   0.50737   0.19146   0.00000  Uiso   1.00
O207   O     0.18866   0.50207   0.31671   0.00000  Uiso   1.00
O208   O     0.14468   0.49793   0.18329   0.00000  Uiso   1.00
O209   O     0.00617   0.53782   0.12221   0.00000  Uiso   1.00
H210   H     0.04955   0.54833   0.10237   0.00000  Uiso   1.00
O211   O     0.00461   0.41602   0.37197   0.00000  Uiso   1.00
H212   H     0.00131   0.44161   0.35160   0.00000  Uiso   1.00
O213   O     0.09216   0.40943   0.07445   0.00000  Uiso   1.00
H214   H     0.04952   0.38530   0.08058   0.00000  Uiso   1.00
O215   O     0.27311   0.51088   0.40891   0.00000  Uiso   1.00
H216   H     0.25156   0.47891   0.39533   0.00000  Uiso   1.00
C217   C     0.51503   0.60007   0.25133   0.00000  Uiso   1.00
C218   C     0.48494   0.39993   0.24872   0.00000  Uiso   1.00
C219   C     0.43748   0.43480   0.03491   0.00000  Uiso   1.00
C220   C     0.58032   0.50794   0.45381   0.00000  Uiso   1.00
C221   C     0.39488   0.41955   0.00819   0.00000  Uiso   1.00
C222   C     0.62332   0.52179   0.47996   0.00000  Uiso   1.00
C223   C     0.52349   0.65604   0.25199   0.00000  Uiso   1.00
C224   C     0.47645   0.34397   0.24813   0.00000  Uiso   1.00
C225   C     0.46051   0.49339   0.33328   0.00000  Uiso   1.00
C226   C     0.53909   0.50409   0.16648   0.00000  Uiso   1.00
C227   C     0.43517   0.47979   0.38063   0.00000  Uiso   1.00
C228   C     0.56375   0.50659   0.11783   0.00000  Uiso   1.00
C229   C     0.36562   0.42278   0.43999   0.00000  Uiso   1.00
C230   C     0.64827   0.52878   0.05083   0.00000  Uiso   1.00
C231   C     0.37890   0.44070   0.39700   0.00000  Uiso   1.00
C232   C     0.62908   0.52392   0.09705   0.00000  Uiso   1.00
C233   C     0.47560   0.49909   0.40840   0.00000  Uiso   1.00
C234   C     0.51994   0.49179   0.09186   0.00000  Uiso   1.00
C235   C     0.46707   0.47537   0.44909   0.00000  Uiso   1.00
C236   C     0.53954   0.49128   0.04549   0.00000  Uiso   1.00
C237   C     0.40877   0.43978   0.46606   0.00000  Uiso   1.00
C238   C     0.60378   0.51412   0.02537   0.00000  Uiso   1.00
C239   C     0.51451   0.48603   0.47342   0.00000  Uiso   1.00
C240   C     0.49629   0.47141   0.01876   0.00000  Uiso   1.00
Cu241  Cu    0.44071   0.49441   0.24517   0.00000  Uiso   1.00
Cu242  Cu    0.55929   0.50559   0.25484   0.00000  Uiso   1.00
H243   H     0.35067   0.39103   0.02026   0.00000  Uiso   1.00
H244   H     0.33973   0.53785   0.46425   0.00000  Uiso   1.00
H245   H     0.46985   0.48295   0.10839   0.00000  Uiso   1.00
H246   H     0.51528   0.53171   0.39692   0.00000  Uiso   1.00
H247   H     0.65535   0.39377   0.45250   0.00000  Uiso   1.00
H248   H     0.36465   0.54428   0.03471   0.00000  Uiso   1.00
H249   H     0.56881   0.34652   0.25564   0.00000  Uiso   1.00
H250   H     0.43111   0.65348   0.24450   0.00000  Uiso   1.00
H251   H     0.33449   0.53829   0.28464   0.00000  Uiso   1.00
H252   H     0.66550   0.46169   0.21538   0.00000  Uiso   1.00
N253   N     0.64839   0.51401   0.26212   0.00000  Uiso   1.00
N254   N     0.35161   0.48599   0.23788   0.00000  Uiso   1.00
O255   O     0.46148   0.57142   0.24686   0.00000  Uiso   1.00
O256   O     0.53852   0.42858   0.25314   0.00000  Uiso   1.00
O257   O     0.56163   0.58086   0.25503   0.00000  Uiso   1.00
O258   O     0.43837   0.41914   0.24498   0.00000  Uiso   1.00
O259   O     0.42185   0.49263   0.30855   0.00000  Uiso   1.00
O260   O     0.57815   0.50737   0.19146   0.00000  Uiso   1.00
O261   O     0.52199   0.50207   0.31671   0.00000  Uiso   1.00
O262   O     0.47801   0.49793   0.18329   0.00000  Uiso   1.00
O263   O     0.33950   0.53782   0.12221   0.00000  Uiso   1.00
H264   H     0.38289   0.54833   0.10237   0.00000  Uiso   1.00
O265   O     0.33794   0.41602   0.37197   0.00000  Uiso   1.00
H266   H     0.33465   0.44161   0.35160   0.00000  Uiso   1.00
O267   O     0.42550   0.40943   0.07445   0.00000  Uiso   1.00
H268   H     0.38286   0.38530   0.08058   0.00000  Uiso   1.00
O269   O     0.60644   0.51088   0.40891   0.00000  Uiso   1.00
H270   H     0.58490   0.47891   0.39533   0.00000  Uiso   1.00
C271   C     0.84837   0.60007   0.25133   0.00000  Uiso   1.00
C272   C     0.81827   0.39993   0.24872   0.00000  Uiso   1.00
C273   C     0.77082   0.43480   0.03491   0.00000  Uiso   1.00
C274   C     0.91366   0.50794   0.45381   0.00000  Uiso   1.00
C275   C     0.72821   0.41955   0.00819   0.00000  Uiso   1.00
C276   C     0.95666   0.52179   0.47996   0.00000  Uiso   1.00
C277   C     0.85682   0.65604   0.25199   0.00000  Uiso   1.00
C278   C     0.80978   0.34397   0.24813   0.00000  Uiso   1.00
C279   C     0.79385   0.49339   0.33328   0.00000  Uiso   1.00
C280   C     0.87242   0.50409   0.16648   0.00000  Uiso   1.00
C281   C     0.76850   0.47979   0.38063   0.00000  Uiso   1.00
C282   C     0.89709   0.50659   0.11783   0.00000  Uiso   1.00
C283   C     0.69896   0.42278   0.43999   0.00000  Uiso   1.00
C284   C     0.98160   0.52878   0.05083   0.00000  Uiso   1.00
C285   C     0.71223   0.44070   0.39700   0.00000  Uiso   1.00
C286   C     0.96242   0.52392   0.09705   0.00000  Uiso   1.00
C287   C     0.80893   0.49909   0.40840   0.00000  Uiso   1.00
C288   C     0.85327   0.49179   0.09186   0.00000  Uiso   1.00
C289   C     0.80040   0.47537   0.44909   0.00000  Uiso   1.00
C290   C     0.87287   0.49128   0.04549   0.00000  Uiso   1.00
C291   C     0.74210   0.43978   0.46606   0.00000  Uiso   1.00
C292   C     0.93711   0.51412   0.02537   0.00000  Uiso   1.00
C293   C     0.84785   0.48603   0.47342   0.00000  Uiso   1.00
C294   C     0.82962   0.47141   0.01876   0.00000  Uiso   1.00
Cu295  Cu    0.77404   0.49441   0.24517   0.00000  Uiso   1.00
Cu296  Cu    0.89263   0.50559   0.25484   0.00000  Uiso   1.00
H297   H     0.68400   0.39103   0.02026   0.00000  Uiso   1.00
H298   H     0.67306   0.53785   0.46425   0.00000  Uiso   1.00
H299   H     0.80319   0.48295   0.10839   0.00000  Uiso   1.00
H300   H     0.84861   0.53171   0.39692   0.00000  Uiso   1.00
H301   H     0.98869   0.39377   0.45250   0.00000  Uiso   1.00
H302   H     0.69798   0.54428   0.03471   0.00000  Uiso   1.00
H303   H     0.90215   0.34652   0.25564   0.00000  Uiso   1.00
H304   H     0.76445   0.65348   0.24450   0.00000  Uiso   1.00
H305   H     0.66783   0.53829   0.28464   0.00000  Uiso   1.00
H306   H     0.99883   0.46169   0.21538   0.00000  Uiso   1.00
N307   N     0.98173   0.51401   0.26212   0.00000  Uiso   1.00
N308   N     0.68494   0.48599   0.23788   0.00000  Uiso   1.00
O309   O     0.79482   0.57142   0.24686   0.00000  Uiso   1.00
O310   O     0.87185   0.42858   0.25314   0.00000  Uiso   1.00
O311   O     0.89496   0.58086   0.25503   0.00000  Uiso   1.00
O312   O     0.77171   0.41914   0.24498   0.00000  Uiso   1.00
O313   O     0.75518   0.49263   0.30855   0.00000  Uiso   1.00
O314   O     0.91149   0.50737   0.19146   0.00000  Uiso   1.00
O315   O     0.85532   0.50207   0.31671   0.00000  Uiso   1.00
O316   O     0.81134   0.49793   0.18329   0.00000  Uiso   1.00
O317   O     0.67284   0.53782   0.12221   0.00000  Uiso   1.00
H318   H     0.71622   0.54833   0.10237   0.00000  Uiso   1.00
O319   O     0.67127   0.41602   0.37197   0.00000  Uiso   1.00
H320   H     0.66798   0.44161   0.35160   0.00000  Uiso   1.00
O321   O     0.75883   0.40943   0.07445   0.00000  Uiso   1.00
H322   H     0.71619   0.38530   0.08058   0.00000  Uiso   1.00
O323   O     0.93978   0.51088   0.40891   0.00000  Uiso   1.00
H324   H     0.91823   0.47891   0.39533   0.00000  Uiso   1.00
C325   C     0.18170   0.93340   0.25133   0.00000  Uiso   1.00
C326   C     0.15161   0.73327   0.24872   0.00000  Uiso   1.00
C327   C     0.10415   0.76813   0.03491   0.00000  Uiso   1.00
C328   C     0.24699   0.84127   0.45381   0.00000  Uiso   1.00
C329   C     0.06154   0.75288   0.00819   0.00000  Uiso   1.00
C330   C     0.28999   0.85512   0.47996   0.00000  Uiso   1.00
C331   C     0.19015   0.98937   0.25199   0.00000  Uiso   1.00
C332   C     0.14311   0.67730   0.24813   0.00000  Uiso   1.00
C333   C     0.12718   0.82672   0.33328   0.00000  Uiso   1.00
C334   C     0.20576   0.83742   0.16648   0.00000  Uiso   1.00
C335   C     0.10183   0.81312   0.38063   0.00000  Uiso   1.00
C336   C     0.23042   0.83993   0.11783   0.00000  Uiso   1.00
C337   C     0.03229   0.75611   0.43999   0.00000  Uiso   1.00
C338   C     0.31493   0.86211   0.05083   0.00000  Uiso   1.00
C339   C     0.04557   0.77403   0.39700   0.00000  Uiso   1.00
C340   C     0.29575   0.85725   0.09705   0.00000  Uiso   1.00
C341   C     0.14226   0.83243   0.40840   0.00000  Uiso   1.00
C342   C     0.18660   0.82512   0.09186   0.00000  Uiso   1.00
C343   C     0.13373   0.80870   0.44909   0.00000  Uiso   1.00
C344   C     0.20621   0.82461   0.04549   0.00000  Uiso   1.00
C345   C     0.07544   0.77311   0.46606   0.00000  Uiso   1.00
C346   C     0.27044   0.84746   0.02537   0.00000  Uiso   1.00
C347   C     0.18118   0.81936   0.47342   0.00000  Uiso   1.00
C348   C     0.16295   0.80474   0.01876   0.00000  Uiso   1.00
Cu349  Cu    0.10737   0.82775   0.24517   0.00000  Uiso   1.00
Cu350  Cu    0.22596   0.83892   0.25484   0.00000  Uiso   1.00
H351   H     0.01733   0.72437   0.02026   0.00000  Uiso   1.00
H352   H     0.00639   0.87118   0.46425   0.00000  Uiso   1.00
H353   H     0.13652   0.81628   0.10839   0.00000  Uiso   1.00
H354   H     0.18194   0.86505   0.39692   0.00000  Uiso   1.00
H355   H     0.32202   0.72710   0.45250   0.00000  Uiso   1.00
H356   H     0.03132   0.87762   0.03471   0.00000  Uiso   1.00
H357   H     0.23548   0.67986   0.25564   0.00000  Uiso   1.00
H358   H     0.09778   0.98681   0.24450   0.00000  Uiso   1.00
H359   H     0.00116   0.87162   0.28464   0.00000  Uiso   1.00
H360   H     0.33216   0.79503   0.21538   0.00000  Uiso   1.00
N361   N     0.31506   0.84735   0.26212   0.00000  Uiso   1.00
N362   N     0.01827   0.81932   0.23788   0.00000  Uiso   1.00
O363   O     0.12815   0.90476   0.24686   0.00000  Uiso   1.00
O364   O     0.20518   0.76191   0.25314   0.00000  Uiso   1.00
O365   O     0.22829   0.91420   0.25503   0.00000  Uiso   1.00
O366   O     0.10504   0.75247   0.24498   0.00000  Uiso   1.00
O367   O     0.08851   0.82597   0.30855   0.00000  Uiso   1.00
O368   O     0.24482   0.84070   0.19146   0.00000  Uiso   1.00
O369   O     0.18866   0.83540   0.31671   0.00000  Uiso   1.00
O370   O     0.14468   0.83126   0.18329   0.00000  Uiso   1.00
O371   O     0.00617   0.87116   0.12221   0.00000  Uiso   1.00
H372   H     0.04955   0.88166   0.10237   0.00000  Uiso   1.00
O373   O     0.00461   0.74936   0.37197   0.00000  Uiso   1.00
H374   H     0.00131   0.77494   0.35160   0.00000  Uiso   1.00
O375   O     0.09216   0.74277   0.07445   0.00000  Uiso   1.00
H376   H     0.04952   0.71863   0.08058   0.00000  Uiso   1.00
O377   O     0.27311   0.84421   0.40891   0.00000  Uiso   1.00
H378   H     0.25156   0.81224   0.39533   0.00000  Uiso   1.00
C379   C     0.51503   0.93340   0.25133   0.00000  Uiso   1.00
C380   C     0.48494   0.73327   0.24872   0.00000  Uiso   1.00
C381   C     0.43748   0.76813   0.03491   0.00000  Uiso   1.00
C382   C     0.58032   0.84127   0.45381   0.00000  Uiso   1.00
C383   C     0.39488   0.75288   0.00819   0.00000  Uiso   1.00
C384   C     0.62332   0.85512   0.47996   0.00000  Uiso   1.00
C385   C     0.52349   0.98937   0.25199   0.00000  Uiso   1.00
C386   C     0.47645   0.67730   0.24813   0.00000  Uiso   1.00
C387   C     0.46051   0.82672   0.33328   0.00000  Uiso   1.00
C388   C     0.53909   0.83742   0.16648   0.00000  Uiso   1.00
C389   C     0.43517   0.81312   0.38063   0.00000  Uiso   1.00
C390   C     0.56375   0.83993   0.11783   0.00000  Uiso   1.00
C391   C     0.36562   0.75611   0.43999   0.00000  Uiso   1.00
C392   C     0.64827   0.86211   0.05083   0.00000  Uiso   1.00
C393   C     0.37890   0.77403   0.39700   0.00000  Uiso   1.00
C394   C     0.62908   0.85725   0.09705   0.00000  Uiso   1.00
C395   C     0.47560   0.83243   0.40840   0.00000  Uiso   1.00
C396   C     0.51994   0.82512   0.09186   0.00000  Uiso   1.00
C397   C     0.46707   0.80870   0.44909   0.00000  Uiso   1.00
C398   C     0.53954   0.82461   0.04549   0.00000  Uiso   1.00
C399   C     0.40877   0.77311   0.46606   0.00000  Uiso   1.00
C400   C     0.60378   0.84746   0.02537   0.00000  Uiso   1.00
C401   C     0.51451   0.81936   0.47342   0.00000  Uiso   1.00
C402   C     0.49629   0.80474   0.01876   0.00000  Uiso   1.00
Cu403  Cu    0.44071   0.82775   0.24517   0.00000  Uiso   1.00
Cu404  Cu    0.55929   0.83892   0.25484   0.00000  Uiso   1.00
H405   H     0.35067   0.72437   0.02026   0.00000  Uiso   1.00
H406   H     0.33973   0.87118   0.46425   0.00000  Uiso   1.00
H407   H     0.46985   0.81628   0.10839   0.00000  Uiso   1.00
H408   H     0.51528   0.86505   0.39692   0.00000  Uiso   1.00
H409   H     0.65535   0.72710   0.45250   0.00000  Uiso   1.00
H410   H     0.36465   0.87762   0.03471   0.00000  Uiso   1.00
H411   H     0.56881   0.67986   0.25564   0.00000  Uiso   1.00
H412   H     0.43111   0.98681   0.24450   0.00000  Uiso   1.00
H413   H     0.33449   0.87162   0.28464   0.00000  Uiso   1.00
H414   H     0.66550   0.79503   0.21538   0.00000  Uiso   1.00
N415   N     0.64839   0.84735   0.26212   0.00000  Uiso   1.00
N416   N     0.35161   0.81932   0.23788   0.00000  Uiso   1.00
O417   O     0.46148   0.90476   0.24686   0.00000  Uiso   1.00
O418   O     0.53852   0.76191   0.25314   0.00000  Uiso   1.00
O419   O     0.56163   0.91420   0.25503   0.00000  Uiso   1.00
O420   O     0.43837   0.75247   0.24498   0.00000  Uiso   1.00
O421   O     0.42185   0.82597   0.30855   0.00000  Uiso   1.00
O422   O     0.57815   0.84070   0.19146   0.00000  Uiso   1.00
O423   O     0.52199   0.83540   0.31671   0.00000  Uiso   1.00
O424   O     0.47801   0.83126   0.18329   0.00000  Uiso   1.00
O425   O     0.33950   0.87116   0.12221   0.00000  Uiso   1.00
H426   H     0.38289   0.88166   0.10237   0.00000  Uiso   1.00
O427   O     0.33794   0.74936   0.37197   0.00000  Uiso   1.00
H428   H     0.33465   0.77494   0.35160   0.00000  Uiso   1.00
O429   O     0.42550   0.74277   0.07445   0.00000  Uiso   1.00
H430   H     0.38286   0.71863   0.08058   0.00000  Uiso   1.00
O431   O     0.60644   0.84421   0.40891   0.00000  Uiso   1.00
H432   H     0.58490   0.81224   0.39533   0.00000  Uiso   1.00
C433   C     0.84837   0.93340   0.25133   0.00000  Uiso   1.00
C434   C     0.81827   0.73327   0.24872   0.00000  Uiso   1.00
C435   C     0.77082   0.76813   0.03491   0.00000  Uiso   1.00
C436   C     0.91366   0.84127   0.45381   0.00000  Uiso   1.00
C437   C     0.72821   0.75288   0.00819   0.00000  Uiso   1.00
C438   C     0.95666   0.85512   0.47996   0.00000  Uiso   1.00
C439   C     0.85682   0.98937   0.25199   0.00000  Uiso   1.00
C440   C     0.80978   0.67730   0.24813   0.00000  Uiso   1.00
C441   C     0.79385   0.82672   0.33328   0.00000  Uiso   1.00
C442   C     0.87242   0.83742   0.16648   0.00000  Uiso   1.00
C443   C     0.76850   0.81312   0.38063   0.00000  Uiso   1.00
C444   C     0.89709   0.83993   0.11783   0.00000  Uiso   1.00
C445   C     0.69896   0.75611   0.43999   0.00000  Uiso   1.00
C446   C     0.98160   0.86211   0.05083   0.00000  Uiso   1.00
C447   C     0.71223   0.77403   0.39700   0.00000  Uiso   1.00
C448   C     0.96242   0.85725   0.09705   0.00000  Uiso   1.00
C449   C     0.80893   0.83243   0.40840   0.00000  Uiso   1.00
C450   C     0.85327   0.82512   0.09186   0.00000  Uiso   1.00
C451   C     0.80040   0.80870   0.44909   0.00000  Uiso   1.00
C452   C     0.87287   0.82461   0.04549   0.00000  Uiso   1.00
C453   C     0.74210   0.77311   0.46606   0.00000  Uiso   1.00
C454   C     0.93711   0.84746   0.02537   0.00000  Uiso   1.00
C455   C     0.84785   0.81936   0.47342   0.00000  Uiso   1.00
C456   C     0.82962   0.80474   0.01876   0.00000  Uiso   1.00
Cu457  Cu    0.77404   0.82775   0.24517   0.00000  Uiso   1.00
Cu458  Cu    0.89263   0.83892   0.25484   0.00000  Uiso   1.00
H459   H     0.68400   0.72437   0.02026   0.00000  Uiso   1.00
H460   H     0.67306   0.87118   0.46425   0.00000  Uiso   1.00
H461   H     0.80319   0.81628   0.10839   0.00000  Uiso   1.00
H462   H     0.84861   0.86505   0.39692   0.00000  Uiso   1.00
H463   H     0.98869   0.72710   0.45250   0.00000  Uiso   1.00
H464   H     0.69798   0.87762   0.03471   0.00000  Uiso   1.00
H465   H     0.90215   0.67986   0.25564   0.00000  Uiso   1.00
H466   H     0.76445   0.98681   0.24450   0.00000  Uiso   1.00
H467   H     0.66783   0.87162   0.28464   0.00000  Uiso   1.00
H468   H     0.99883   0.79503   0.21538   0.00000  Uiso   1.00
N469   N     0.98173   0.84735   0.26212   0.00000  Uiso   1.00
N470   N     0.68494   0.81932   0.23788   0.00000  Uiso   1.00
O471   O     0.79482   0.90476   0.24686   0.00000  Uiso   1.00
O472   O     0.87185   0.76191   0.25314   0.00000  Uiso   1.00
O473   O     0.89496   0.91420   0.25503   0.00000  Uiso   1.00
O474   O     0.77171   0.75247   0.24498   0.00000  Uiso   1.00
O475   O     0.75518   0.82597   0.30855   0.00000  Uiso   1.00
O476   O     0.91149   0.84070   0.19146   0.00000  Uiso   1.00
O477   O     0.85532   0.83540   0.31671   0.00000  Uiso   1.00
O478   O     0.81134   0.83126   0.18329   0.00000  Uiso   1.00
O479   O     0.67284   0.87116   0.12221   0.00000  Uiso   1.00
H480   H     0.71622   0.88166   0.10237   0.00000  Uiso   1.00
O481   O     0.67127   0.74936   0.37197   0.00000  Uiso   1.00
H482   H     0.66798   0.77494   0.35160   0.00000  Uiso   1.00
O483   O     0.75883   0.74277   0.07445   0.00000  Uiso   1.00
H484   H     0.71619   0.71863   0.08058   0.00000  Uiso   1.00
O485   O     0.93978   0.84421   0.40891   0.00000  Uiso   1.00
H486   H     0.91823   0.81224   0.39533   0.00000  Uiso   1.00
C487   C     0.18170   0.26673   0.75133   0.00000  Uiso   1.00
C488   C     0.15161   0.06660   0.74872   0.00000  Uiso   1.00
C489   C     0.10415   0.10146   0.53491   0.00000  Uiso   1.00
C490   C     0.24699   0.17460   0.95381   0.00000  Uiso   1.00
C491   C     0.06154   0.08622   0.50819   0.00000  Uiso   1.00
C492   C     0.28999   0.18846   0.97996   0.00000  Uiso   1.00
C493   C     0.19015   0.32270   0.75199   0.00000  Uiso   1.00
C494   C     0.14311   0.01063   0.74813   0.00000  Uiso   1.00
C495   C     0.12718   0.16006   0.83328   0.00000  Uiso   1.00
C496   C     0.20576   0.17075   0.66648   0.00000  Uiso   1.00
C497   C     0.10183   0.14646   0.88063   0.00000  Uiso   1.00
C498   C     0.23042   0.17326   0.61783   0.00000  Uiso   1.00
C499   C     0.03229   0.08945   0.93999   0.00000  Uiso   1.00
C500   C     0.31493   0.19545   0.55083   0.00000  Uiso   1.00
C501   C     0.04557   0.10737   0.89700   0.00000  Uiso   1.00
C502   C     0.29575   0.19058   0.59705   0.00000  Uiso   1.00
C503   C     0.14226   0.16576   0.90840   0.00000  Uiso   1.00
C504   C     0.18660   0.15846   0.59186   0.00000  Uiso   1.00
C505   C     0.13373   0.14203   0.94909   0.00000  Uiso   1.00
C506   C     0.20621   0.15794   0.54549   0.00000  Uiso   1.00
C507   C     0.07544   0.10645   0.96606   0.00000  Uiso   1.00
C508   C     0.27044   0.18079   0.52537   0.00000  Uiso   1.00
C509   C     0.18118   0.15269   0.97342   0.00000  Uiso   1.00
C510   C     0.16295   0.13807   0.51876   0.00000  Uiso   1.00
Cu511  Cu    0.10737   0.16108   0.74517   0.00000  Uiso   1.00
Cu512  Cu    0.22596   0.17225   0.75484   0.00000  Uiso   1.00
H513   H     0.01733   0.05770   0.52026   0.00000  Uiso   1.00
H514   H     0.00639   0.20451   0.96425   0.00000  Uiso   1.00
H515   H     0.13652   0.14962   0.60839   0.00000  Uiso   1.00
H516   H     0.18194   0.19838   0.89692   0.00000  Uiso   1.00
H517   H     0.32202   0.06043   0.95250   0.00000  Uiso   1.00
H518   H     0.03132   0.21095   0.53471   0.00000  Uiso   1.00
H519   H     0.23548   0.01319   0.75564   0.00000  Uiso   1.00
H520   H     0.09778   0.32015   0.74450   0.00000  Uiso   1.00
H521   H     0.00116   0.20495   0.78464   0.00000  Uiso   1.00
H522   H     0.33216   0.12836   0.71538   0.00000  Uiso   1.00
N523   N     0.31506   0.18068   0.76212   0.00000  Uiso   1.00
N524   N     0.01827   0.15265   0.73788   0.00000  Uiso   1.00
O525   O     0.12815   0.23809   0.74686   0.00000  Uiso   1.00
O526   O     0.20518   0.09524   0.75314   0.00000  Uiso   1.00
O527   O     0.22829   0.24753   0.75503   0.00000  Uiso   1.00
O528   O     0.10504   0.08580   0.74498   0.00000  Uiso   1.00
O529   O     0.08851   0.15930   0.80855   0.00000  Uiso   1.00
O530   O     0.24482   0.17403   0.69146   0.00000  Uiso   1.00
O531   O     0.18866   0.16874   0.81671   0.00000  Uiso   1.00
O532   O     0.14468   0.16460   0.68329   0.00000  Uiso   1.00
O533   O     0.00617   0.20449   0.62221   0.00000  Uiso   1.00
H534   H     0.04955   0.21499   0.60237   0.00000  Uiso   1.00
O535   O     0.00461   0.08269   0.87197   0.00000  Uiso   1.00
H536   H     0.00131   0.10827   0.85160   0.00000  Uiso   1.00
O537   O     0.09216   0.07610   0.57445   0.00000  Uiso   1.00
H538   H     0.04952   0.05197   0.58058   0.00000  Uiso   1.00
O539   O     0.27311   0.17754   0.90891   0.00000  Uiso   1.00
H540   H     0.25156   0.14557   0.89533   0.00000  Uiso   1.00
C541   C     0.51503   0.26673   0.75133   0.00000  Uiso   1.00
C542   C     0.48494   0.06660   0.74872   0.00000  Uiso   1.00
C543   C     0.43748   0.10146   0.53491   0.00000  Uiso   1.00
C544   C     0.58032   0.17460   0.95381   0.00000  Uiso   1.00
C545   C     0.39488   0.08622   0.50819   0.00000  Uiso   1.00
C546   C     0.62332   0.18846   0.97996   0.00000  Uiso   1.00
C547   C     0.52349   0.32270   0.75199   0.00000  Uiso   1.00
C548   C     0.47645   0.01063   0.74813   0.00000  Uiso   1.00
C549   C     0.46051   0.16006   0.83328   0.00000  Uiso   1.00
C550   C     0.53909   0.17075   0.66648   0.00000  Uiso   1.00
C551   C     0.43517   0.14646   0.88063   0.00000  Uiso   1.00
C552   C     0.56375   0.17326   0.61783   0.00000  Uiso   1.00
C553   C     0.36562   0.08945   0.93999   0.00000  Uiso   1.00
C554   C     0.64827   0.19545   0.55083   0.00000  Uiso   1.00
C555   C     0.37890   0.10737   0.89700   0.00000  Uiso   1.00
C556   C     0.62908   0.19058   0.59705   0.00000  Uiso   1.00
C557   C     0.47560   0.16576   0.90840   0.00000  Uiso   1.00
C558   C     0.51994   0.15846   0.59186   0.00000  Uiso   1.00
C559   C     0.46707   0.14203   0.94909   0.00000  Uiso   1.00
C560   C     0.53954   0.15794   0.54549   0.00000  Uiso   1.00
C561   C     0.40877   0.10645   0.96606   0.00000  Uiso   1.00
C562   C     0.60378   0.18079   0.52537   0.00000  Uiso   1.00
C563   C     0.51451   0.15269   0.97342   0.00000  Uiso   1.00
C564   C     0.49629   0.13807   0.51876   0.00000  Uiso   1.00
Cu565  Cu    0.44071   0.16108   0.74517   0.00000  Uiso   1.00
Cu566  Cu    0.55929   0.17225   0.75484   0.00000  Uiso   1.00
H567   H     0.35067   0.05770   0.52026   0.00000  Uiso   1.00
H568   H     0.33973   0.20451   0.96425   0.00000  Uiso   1.00
H569   H     0.46985   0.14962   0.60839   0.00000  Uiso   1.00
H570   H     0.51528   0.19838   0.89692   0.00000  Uiso   1.00
H571   H     0.65535   0.06043   0.95250   0.00000  Uiso   1.00
H572   H     0.36465   0.21095   0.53471   0.00000  Uiso   1.00
H573   H     0.56881   0.01319   0.75564   0.00000  Uiso   1.00
H574   H     0.43111   0.32015   0.74450   0.00000  Uiso   1.00
H575   H     0.33449   0.20495   0.78464   0.00000  Uiso   1.00
H576   H     0.66550   0.12836   0.71538   0.00000  Uiso   1.00
N577   N     0.64839   0.18068   0.76212   0.00000  Uiso   1.00
N578   N     0.35161   0.15265   0.73788   0.00000  Uiso   1.00
O579   O     0.46148   0.23809   0.74686   0.00000  Uiso   1.00
O580   O     0.53852   0.09524   0.75314   0.00000  Uiso   1.00
O581   O     0.56163   0.24753   0.75503   0.00000  Uiso   1.00
O582   O     0.43837   0.08580   0.74498   0.00000  Uiso   1.00
O583   O     0.42185   0.15930   0.80855   0.00000  Uiso   1.00
O584   O     0.57815   0.17403   0.69146   0.00000  Uiso   1.00
O585   O     0.52199   0.16874   0.81671   0.00000  Uiso   1.00
O586   O     0.47801   0.16460   0.68329   0.00000  Uiso   1.00
O587   O     0.33950   0.20449   0.62221   0.00000  Uiso   1.00
H588   H     0.38289   0.21499   0.60237   0.00000  Uiso   1.00
O589   O     0.33794   0.08269   0.87197   0.00000  Uiso   1.00
H590   H     0.33465   0.10827   0.85160   0.00000  Uiso   1.00
O591   O     0.42550   0.07610   0.57445   0.00000  Uiso   1.00
H592   H     0.38286   0.05197   0.58058   0.00000  Uiso   1.00
O593   O     0.60644   0.17754   0.90891   0.00000  Uiso   1.00
H594   H     0.58490   0.14557   0.89533   0.00000  Uiso   1.00
C595   C     0.84837   0.26673   0.75133   0.00000  Uiso   1.00
C596   C     0.81827   0.06660   0.74872   0.00000  Uiso   1.00
C597   C     0.77082   0.10146   0.53491   0.00000  Uiso   1.00
C598   C     0.91366   0.17460   0.95381   0.00000  Uiso   1.00
C599   C     0.72821   0.08622   0.50819   0.00000  Uiso   1.00
C600   C     0.95666   0.18846   0.97996   0.00000  Uiso   1.00
C601   C     0.85682   0.32270   0.75199   0.00000  Uiso   1.00
C602   C     0.80978   0.01063   0.74813   0.00000  Uiso   1.00
C603   C     0.79385   0.16006   0.83328   0.00000  Uiso   1.00
C604   C     0.87242   0.17075   0.66648   0.00000  Uiso   1.00
C605   C     0.76850   0.14646   0.88063   0.00000  Uiso   1.00
C606   C     0.89709   0.17326   0.61783   0.00000  Uiso   1.00
C607   C     0.69896   0.08945   0.93999   0.00000  Uiso   1.00
C608   C     0.98160   0.19545   0.55083   0.00000  Uiso   1.00
C609   C     0.71223   0.10737   0.89700   0.00000  Uiso   1.00
C610   C     0.96242   0.19058   0.59705   0.00000  Uiso   1.00
C611   C     0.80893   0.16576   0.90840   0.00000  Uiso   1.00
C612   C     0.85327   0.15846   0.59186   0.00000  Uiso   1.00
C613   C     0.80040   0.14203   0.94909   0.00000  Uiso   1.00
C614   C     0.87287   0.15794   0.54549   0.00000  Uiso   1.00
C615   C     0.74210   0.10645   0.96606   0.00000  Uiso   1.00
C616   C     0.93711   0.18079   0.52537   0.00000  Uiso   1.00
C617   C     0.84785   0.15269   0.97342   0.00000  Uiso   1.00
C618   C     0.82962   0.13807   0.51876   0.00000  Uiso   1.00
Cu619  Cu    0.77404   0.16108   0.74517   0.00000  Uiso   1.00
Cu620  Cu    0.89263   0.17225   0.75484   0.00000  Uiso   1.00
H621   H     0.68400   0.05770   0.52026   0.00000  Uiso   1.00
H622   H     0.67306   0.20451   0.96425   0.00000  Uiso   1.00
H623   H     0.80319   0.14962   0.60839   0.00000  Uiso   1.00
H624   H     0.84861   0.19838   0.89692   0.00000  Uiso   1.00
H625   H     0.98869   0.06043   0.95250   0.00000  Uiso   1.00
H626   H     0.69798   0.21095   0.53471   0.00000  Uiso   1.00
H627   H     0.90215   0.01319   0.75564   0.00000  Uiso   1.00
H628   H     0.76445   0.32015   0.74450   0.00000  Uiso   1.00
H629   H     0.66783   0.20495   0.78464   0.00000  Uiso   1.00
H630   H     0.99883   0.12836   0.71538   0.00000  Uiso   1.00
N631   N     0.98173   0.18068   0.76212   0.00000  Uiso   1.00
N632   N     0.68494   0.15265   0.73788   0.00000  Uiso   1.00
O633   O     0.79482   0.23809   0.74686   0.00000  Uiso   1.00
O634   O     0.87185   0.09524   0.75314   0.00000  Uiso   1.00
O635   O     0.89496   0.24753   0.75503   0.00000  Uiso   1.00
O636   O     0.77171   0.08580   0.74498   0.00000  Uiso   1.00
O637   O     0.75518   0.15930   0.80855   0.00000  Uiso   1.00
O638   O     0.91149   0.17403   0.69146   0.00000  Uiso   1.00
O639   O     0.85532   0.16874   0.81671   0.00000  Uiso   1.00
O640   O     0.81134   0.16460   0.68329   0.00000  Uiso   1.00
O641   O     0.67284   0.20449   0.62221   0.00000  Uiso   1.00
H642   H     0.71622   0.21499   0.60237   0.00000  Uiso   1.00
O643   O     0.67127   0.08269   0.87197   0.00000  Uiso   1.00
H644   H     0.66798   0.10827   0.85160   0.00000  Uiso   1.00
O645   O     0.75883   0.07610   0.57445   0.00000  Uiso   1.00
H646   H     0.71619   0.05197   0.58058   0.00000  Uiso   1.00
O647   O     0.93978   0.17754   0.90891   0.00000  Uiso   1.00
H648   H     0.91823   0.14557   0.89533   0.00000  Uiso   1.00
C649   C     0.18170   0.60007   0.75133   0.00000  Uiso   1.00
C650   C     0.15161   0.39993   0.74872   0.00000  Uiso   1.00
C651   C     0.10415   0.43480   0.53491   0.00000  Uiso   1.00
C652   C     0.24699   0.50794   0.95381   0.00000  Uiso   1.00
C653   C     0.06154   0.41955   0.50819   0.00000  Uiso   1.00
C654   C     0.28999   0.52179   0.97996   0.00000  Uiso   1.00
C655   C     0.19015   0.65604   0.75199   0.00000  Uiso   1.00
C656   C     0.14311   0.34397   0.74813   0.00000  Uiso   1.00
C657   C     0.12718   0.49339   0.83328   0.00000  Uiso   1.00
C658   C     0.20576   0.50409   0.66648   0.00000  Uiso   1.00
C659   C     0.10183   0.47979   0.88063   0.00000  Uiso   1.00
C660   C     0.23042   0.50659   0.61783   0.00000  Uiso   1.00
C661   C     0.03229   0.42278   0.93999   0.00000  Uiso   1.00
C662   C     0.31493   0.52878   0.55083   0.00000  Uiso   1.00
C663   C     0.04557   0.44070   0.89700   0.00000  Uiso   1.00
C664   C     0.29575   0.52392   0.59705   0.00000  Uiso   1.00
C665   C     0.14226   0.49909   0.90840   0.00000  Uiso   1.00
C666   C     0.18660   0.49179   0.59186   0.00000  Uiso   1.00
C667   C     0.13373   0.47537   0.94909   0.00000  Uiso   1.00
C668   C     0.20621   0.49128   0.54549   0.00000  Uiso   1.00
C669   C     0.07544   0.43978   0.96606   0.00000  Uiso   1.00
C670   C     0.27044   0.51412   0.52537   0.00000  Uiso   1.00
C671   C     0.18118   0.48603   0.97342   0.00000  Uiso   1.00
C672   C     0.16295   0.47141   0.51876   0.00000  Uiso   1.00
Cu673  Cu    0.10737   0.49441   0.74517   0.00000  Uiso   1.00
Cu674  Cu    0.22596   0.50559   0.75484   0.00000  Uiso   1.00
H675   H     0.01733   0.39103   0.52026   0.00000  Uiso   1.00
H676   H     0.00639   0.53785   0.96425   0.00000  Uiso   1.00
H677   H     0.13652   0.48295   0.60839   0.00000  Uiso   1.00
H678   H     0.18194   0.53171   0.89692   0.00000  Uiso   1.00
H679   H     0.32202   0.39377   0.95250   0.00000  Uiso   1.00
H680   H     0.03132   0.54428   0.53471   0.00000  Uiso   1.00
H681   H     0.23548   0.34652   0.75564   0.00000  Uiso   1.00
H682   H     0.09778   0.65348   0.74450   0.00000  Uiso   1.00
H683   H     0.00116   0.53829   0.78464   0.00000  Uiso   1.00
H684   H     0.33216   0.46169   0.71538   0.00000  Uiso   1.00
N685   N     0.31506   0.51401   0.76212   0.00000  Uiso   1.00
N686   N     0.01827   0.48599   0.73788   0.00000  Uiso   1.00
O687   O     0.12815   0.57142   0.74686   0.00000  Uiso   1.00
O688   O     0.20518   0.42858   0.75314   0.00000  Uiso   1.00
O689   O     0.22829   0.58086   0.75503   0.00000  Uiso   1.00
O690   O     0.10504   0.41914   0.74498   0.00000  Uiso   1.00
O691   O     0.08851   0.49263   0.80855   0.00000  Uiso   1.00
O692   O     0.24482   0.50737   0.69146   0.00000  Uiso   1.00
O693   O     0.18866   0.50207   0.81671   0.00000  Uiso   1.00
O694   O     0.14468   0.49793   0.68329   0.00000  Uiso   1.00
O695   O     0.00617   0.53782   0.62221   0.00000  Uiso   1.00
H696   H     0.04955   0.54833   0.60237   0.00000  Uiso   1.00
O697   O     0.00461   0.41602   0.87197   0.00000  Uiso   1.00
H698   H     0.00131   0.44161   0.85160   0.00000  Uiso   1.00
O699   O     0.09216   0.40943   0.57445   0.00000  Uiso   1.00
H700   H     0.04952   0.38530   0.58058   0.00000  Uiso   1.00
O701   O     0.27311   0.51088   0.90891   0.00000  Uiso   1.00
H702   H     0.25156   0.47891   0.89533   0.00000  Uiso   1.00
C703   C     0.51503   0.60007   0.75133   0.00000  Uiso   1.00
C704   C     0.48494   0.39993   0.74872   0.00000  Uiso   1.00
C705   C     0.43748   0.43480   0.53491   0.00000  Uiso   1.00
C706   C     0.58032   0.50794   0.95381   0.00000  Uiso   1.00
C707   C     0.39488   0.41955   0.50819   0.00000  Uiso   1.00
C708   C     0.62332   0.52179   0.97996   0.00000  Uiso   1.00
C709   C     0.52349   0.65604   0.75199   0.00000  Uiso   1.00
C710   C     0.47645   0.34397   0.74813   0.00000  Uiso   1.00
C711   C     0.46051   0.49339   0.83328   0.00000  Uiso   1.00
C712   C     0.53909   0.50409   0.66648   0.00000  Uiso   1.00
C713   C     0.43517   0.47979   0.88063   0.00000  Uiso   1.00
C714   C     0.56375   0.50659   0.61783   0.00000  Uiso   1.00
C715   C     0.36562   0.42278   0.93999   0.00000  Uiso   1.00
C716   C     0.64827   0.52878   0.55083   0.00000  Uiso   1.00
C717   C     0.37890   0.44070   0.89700   0.00000  Uiso   1.00
C718   C     0.62908   0.52392   0.59705   0.00000  Uiso   1.00
C719   C     0.47560   0.49909   0.90840   0.00000  Uiso   1.00
C720   C     0.51994   0.49179   0.59186   0.00000  Uiso   1.00
C721   C     0.46707   0.47537   0.94909   0.00000  Uiso   1.00
C722   C     0.53954   0.49128   0.54549   0.00000  Uiso   1.00
C723   C     0.40877   0.43978   0.96606   0.00000  Uiso   1.00
C724   C     0.60378   0.51412   0.52537   0.00000  Uiso   1.00
C725   C     0.51451   0.48603   0.97342   0.00000  Uiso   1.00
C726   C     0.49629   0.47141   0.51876   0.00000  Uiso   1.00
Cu727  Cu    0.44071   0.49441   0.74517   0.00000  Uiso   1.00
Cu728  Cu    0.55929   0.50559   0.75484   0.00000  Uiso   1.00
H729   H     0.35067   0.39103   0.52026   0.00000  Uiso   1.00
H730   H     0.33973   0.53785   0.96425   0.00000  Uiso   1.00
H731   H     0.46985   0.48295   0.60839   0.00000  Uiso   1.00
H732   H     0.51528   0.53171   0.89692   0.00000  Uiso   1.00
H733   H     0.65535   0.39377   0.95250   0.00000  Uiso   1.00
H734   H     0.36465   0.54428   0.53471   0.00000  Uiso   1.00
H735   H     0.56881   0.34652   0.75564   0.00000  Uiso   1.00
H736   H     0.43111   0.65348   0.74450   0.00000  Uiso   1.00
H737   H     0.33449   0.53829   0.78464   0.00000  Uiso   1.00
H738   H     0.66550   0.46169   0.71538   0.00000  Uiso   1.00
N739   N     0.64839   0.51401   0.76212   0.00000  Uiso   1.00
N740   N     0.35161   0.48599   0.73788   0.00000  Uiso   1.00
O741   O     0.46148   0.57142   0.74686   0.00000  Uiso   1.00
O742   O     0.53852   0.42858   0.75314   0.00000  Uiso   1.00
O743   O     0.56163   0.58086   0.75503   0.00000  Uiso   1.00
O744   O     0.43837   0.41914   0.74498   0.00000  Uiso   1.00
O745   O     0.42185   0.49263   0.80855   0.00000  Uiso   1.00
O746   O     0.57815   0.50737   0.69146   0.00000  Uiso   1.00
O747   O     0.52199   0.50207   0.81671   0.00000  Uiso   1.00
O748   O     0.47801   0.49793   0.68329   0.00000  Uiso   1.00
O749   O     0.33950   0.53782   0.62221   0.00000  Uiso   1.00
H750   H     0.38289   0.54833   0.60237   0.00000  Uiso   1.00
O751   O     0.33794   0.41602   0.87197   0.00000  Uiso   1.00
H752   H     0.33465   0.44161   0.85160   0.00000  Uiso   1.00
O753   O     0.42550   0.40943   0.57445   0.00000  Uiso   1.00
H754   H     0.38286   0.38530   0.58058   0.00000  Uiso   1.00
O755   O     0.60644   0.51088   0.90891   0.00000  Uiso   1.00
H756   H     0.58490   0.47891   0.89533   0.00000  Uiso   1.00
C757   C     0.84837   0.60007   0.75133   0.00000  Uiso   1.00
C758   C     0.81827   0.39993   0.74872   0.00000  Uiso   1.00
C759   C     0.77082   0.43480   0.53491   0.00000  Uiso   1.00
C760   C     0.91366   0.50794   0.95381   0.00000  Uiso   1.00
C761   C     0.72821   0.41955   0.50819   0.00000  Uiso   1.00
C762   C     0.95666   0.52179   0.97996   0.00000  Uiso   1.00
C763   C     0.85682   0.65604   0.75199   0.00000  Uiso   1.00
C764   C     0.80978   0.34397   0.74813   0.00000  Uiso   1.00
C765   C     0.79385   0.49339   0.83328   0.00000  Uiso   1.00
C766   C     0.87242   0.50409   0.66648   0.00000  Uiso   1.00
C767   C     0.76850   0.47979   0.88063   0.00000  Uiso   1.00
C768   C     0.89709   0.50659   0.61783   0.00000  Uiso   1.00
C769   C     0.69896   0.42278   0.93999   0.00000  Uiso   1.00
C770   C     0.98160   0.52878   0.55083   0.00000  Uiso   1.00
C771   C     0.71223   0.44070   0.89700   0.00000  Uiso   1.00
C772   C     0.96242   0.52392   0.59705   0.00000  Uiso   1.00
C773   C     0.80893   0.49909   0.90840   0.00000  Uiso   1.00
C774   C     0.85327   0.49179   0.59186   0.00000  Uiso   1.00
C775   C     0.80040   0.47537   0.94909   0.00000  Uiso   1.00
C776   C     0.87287   0.49128   0.54549   0.00000  Uiso   1.00
C777   C     0.74210   0.43978   0.96606   0.00000  Uiso   1.00
C778   C     0.93711   0.51412   0.52537   0.00000  Uiso   1.00
C779   C     0.84785   0.48603   0.97342   0.00000  Uiso   1.00
C780   C     0.82962   0.47141   0.51876   0.00000  Uiso   1.00
Cu781  Cu    0.77404   0.49441   0.74517   0.00000  Uiso   1.00
Cu782  Cu    0.89263   0.50559   0.75484   0.00000  Uiso   1.00
H783   H     0.68400   0.39103   0.52026   0.00000  Uiso   1.00
H784   H     0.67306   0.53785   0.96425   0.00000  Uiso   1.00
H785   H     0.80319   0.48295   0.60839   0.00000  Uiso   1.00
H786   H     0.84861   0.53171   0.89692   0.00000  Uiso   1.00
H787   H     0.98869   0.39377   0.95250   0.00000  Uiso   1.00
H788   H     0.69798   0.54428   0.53471   0.00000  Uiso   1.00
H789   H     0.90215   0.34652   0.75564   0.00000  Uiso   1.00
H790   H     0.76445   0.65348   0.74450   0.00000  Uiso   1.00
H791   H     0.66783   0.53829   0.78464   0.00000  Uiso   1.00
H792   H     0.99883   0.46169   0.71538   0.00000  Uiso   1.00
N793   N     0.98173   0.51401   0.76212   0.00000  Uiso   1.00
N794   N     0.68494   0.48599   0.73788   0.00000  Uiso   1.00
O795   O     0.79482   0.57142   0.74686   0.00000  Uiso   1.00
O796   O     0.87185   0.42858   0.75314   0.00000  Uiso   1.00
O797   O     0.89496   0.58086   0.75503   0.00000  Uiso   1.00
O798   O     0.77171   0.41914   0.74498   0.00000  Uiso   1.00
O799   O     0.75518   0.49263   0.80855   0.00000  Uiso   1.00
O800   O     0.91149   0.50737   0.69146   0.00000  Uiso   1.00
O801   O     0.85532   0.50207   0.81671   0.00000  Uiso   1.00
O802   O     0.81134   0.49793   0.68329   0.00000  Uiso   1.00
O803   O     0.67284   0.53782   0.62221   0.00000  Uiso   1.00
H804   H     0.71622   0.54833   0.60237   0.00000  Uiso   1.00
O805   O     0.67127   0.41602   0.87197   0.00000  Uiso   1.00
H806   H     0.66798   0.44161   0.85160   0.00000  Uiso   1.00
O807   O     0.75883   0.40943   0.57445   0.00000  Uiso   1.00
H808   H     0.71619   0.38530   0.58058   0.00000  Uiso   1.00
O809   O     0.93978   0.51088   0.90891   0.00000  Uiso   1.00
H810   H     0.91823   0.47891   0.89533   0.00000  Uiso   1.00
C811   C     0.18170   0.93340   0.75133   0.00000  Uiso   1.00
C812   C     0.15161   0.73327   0.74872   0.00000  Uiso   1.00
C813   C     0.10415   0.76813   0.53491   0.00000  Uiso   1.00
C814   C     0.24699   0.84127   0.95381   0.00000  Uiso   1.00
C815   C     0.06154   0.75288   0.50819   0.00000  Uiso   1.00
C816   C     0.28999   0.85512   0.97996   0.00000  Uiso   1.00
C817   C     0.19015   0.98937   0.75199   0.00000  Uiso   1.00
C818   C     0.14311   0.67730   0.74813   0.00000  Uiso   1.00
C819   C     0.12718   0.82672   0.83328   0.00000  Uiso   1.00
C820   C     0.20576   0.83742   0.66648   0.00000  Uiso   1.00
C821   C     0.10183   0.81312   0.88063   0.00000  Uiso   1.00
C822   C     0.23042   0.83993   0.61783   0.00000  Uiso   1.00
C823   C     0.03229   0.75611   0.93999   0.00000  Uiso   1.00
C824   C     0.31493   0.86211   0.55083   0.00000  Uiso   1.00
C825   C     0.04557   0.77403   0.89700   0.00000  Uiso   1.00
C826   C     0.29575   0.85725   0.59705   0.00000  Uiso   1.00
C827   C     0.14226   0.83243   0.90840   0.00000  Uiso   1.00
C828   C     0.18660   0.82512   0.59186   0.00000  Uiso   1.00
C829   C     0.13373   0.80870   0.94909   0.00000  Uiso   1.00
C830   C     0.20621   0.82461   0.54549   0.00000  Uiso   1.00
C831   C     0.07544   0.77311   0.96606   0.00000  Uiso   1.00
C832   C     0.27044   0.84746   0.52537   0.00000  Uiso   1.00
C833   C     0.18118   0.81936   0.97342   0.00000  Uiso   1.00
C834   C     0.16295   0.80474   0.51876   0.00000  Uiso   1.00
Cu835  Cu    0.10737   0.82775   0.74517   0.00000  Uiso   1.00
Cu836  Cu    0.22596   0.83892   0.75484   0.00000  Uiso   1.00
H837   H     0.01733   0.72437   0.52026   0.00000  Uiso   1.00
H838   H     0.00639   0.87118   0.96425   0.00000  Uiso   1.00
H839   H     0.13652   0.81628   0.60839   0.00000  Uiso   1.00
H840   H     0.18194   0.86505   0.89692   0.00000  Uiso   1.00
H841   H     0.32202   0.72710   0.95250   0.00000  Uiso   1.00
H842   H     0.03132   0.87762   0.53471   0.00000  Uiso   1.00
H843   H     0.23548   0.67986   0.75564   0.00000  Uiso   1.00
H844   H     0.09778   0.98681   0.74450   0.00000  Uiso   1.00
H845   H     0.00116   0.87162   0.78464   0.00000  Uiso   1.00
H846   H     0.33216   0.79503   0.71538   0.00000  Uiso   1.00
N847   N     0.31506   0.84735   0.76212   0.00000  Uiso   1.00
N848   N     0.01827   0.81932   0.73788   0.00000  Uiso   1.00
O849   O     0.12815   0.90476   0.74686   0.00000  Uiso   1.00
O850   O     0.20518   0.76191   0.75314   0.00000  Uiso   1.00
O851   O     0.22829   0.91420   0.75503   0.00000  Uiso   1.00
O852   O     0.10504   0.75247   0.74498   0.00000  Uiso   1.00
O853   O     0.08851   0.82597   0.80855   0.00000  Uiso   1.00
O854   O     0.24482   0.84070   0.69146   0.00000  Uiso   1.00
O855   O     0.18866   0.83540   0.81671   0.00000  Uiso   1.00
O856   O     0.14468   0.83126   0.68329   0.00000  Uiso   1.00
O857   O     0.00617   0.87116   0.62221   0.00000  Uiso   1.00
H858   H     0.04955   0.88166   0.60237   0.00000  Uiso   1.00
O859   O     0.00461   0.74936   0.87197   0.00000  Uiso   1.00
H860   H     0.00131   0.77494   0.85160   0.00000  Uiso   1.00
O861   O     0.09216   0.74277   0.57445   0.00000  Uiso   1.00
H862   H     0.04952   0.71863   0.58058   0.00000  Uiso   1.00
O863   O     0.27311   0.84421   0.90891   0.00000  Uiso   1.00
H864   H     0.25156   0.81224   0.89533   0.00000  Uiso   1.00
C865   C     0.51503   0.93340   0.75133   0.00000  Uiso   1.00
C866   C     0.48494   0.73327   0.74872   0.00000  Uiso   1.00
C867   C     0.43748   0.76813   0.53491   0.00000  Uiso   1.00
C868   C     0.58032   0.84127   0.95381   0.00000  Uiso   1.00
C869   C     0.39488   0.75288   0.50819   0.00000  Uiso   1.00
C870   C     0.62332   0.85512   0.97996   0.00000  Uiso   1.00
C871   C     0.52349   0.98937   0.75199   0.00000  Uiso   1.00
C872   C     0.47645   0.67730   0.74813   0.00000  Uiso   1.00
C873   C     0.46051   0.82672   0.83328   0.00000  Uiso   1.00
C874   C     0.53909   0.83742   0.66648   0.00000  Uiso   1.00
C875   C     0.43517   0.81312   0.88063   0.00000  Uiso   1.00
C876   C     0.56375   0.83993   0.61783   0.00000  Uiso   1.00
C877   C     0.36562   0.75611   0.93999   0.00000  Uiso   1.00
C878   C     0.64827   0.86211   0.55083   0.00000  Uiso   1.00
C879   C     0.37890   0.77403   0.89700   0.00000  Uiso   1.00
C880   C     0.62908   0.85725   0.59705   0.00000  Uiso   1.00
C881   C     0.47560   0.83243   0.90840   0.00000  Uiso   1.00
C882   C     0.51994   0.82512   0.59186   0.00000  Uiso   1.00
C883   C     0.46707   0.80870   0.94909   0.00000  Uiso   1.00
C884   C     0.53954   0.82461   0.54549   0.00000  Uiso   1.00
C885   C     0.40877   0.77311   0.96606   0.00000  Uiso   1.00
C886   C     0.60378   0.84746   0.52537   0.00000  Uiso   1.00
C887   C     0.51451   0.81936   0.97342   0.00000  Uiso   1.00
C888   C     0.49629   0.80474   0.51876   0.00000  Uiso   1.00
Cu889  Cu    0.44071   0.82775   0.74517   0.00000  Uiso   1.00
Cu890  Cu    0.55929   0.83892   0.75484   0.00000  Uiso   1.00
H891   H     0.35067   0.72437   0.52026   0.00000  Uiso   1.00
H892   H     0.33973   0.87118   0.96425   0.00000  Uiso   1.00
H893   H     0.46985   0.81628   0.60839   0.00000  Uiso   1.00
H894   H     0.51528   0.86505   0.89692   0.00000  Uiso   1.00
H895   H     0.65535   0.72710   0.95250   0.00000  Uiso   1.00
H896   H     0.36465   0.87762   0.53471   0.00000  Uiso   1.00
H897   H     0.56881   0.67986   0.75564   0.00000  Uiso   1.00
H898   H     0.43111   0.98681   0.74450   0.00000  Uiso   1.00
H899   H     0.33449   0.87162   0.78464   0.00000  Uiso   1.00
H900   H     0.66550   0.79503   0.71538   0.00000  Uiso   1.00
N901   N     0.64839   0.84735   0.76212   0.00000  Uiso   1.00
N902   N     0.35161   0.81932   0.73788   0.00000  Uiso   1.00
O903   O     0.46148   0.90476   0.74686   0.00000  Uiso   1.00
O904   O     0.53852   0.76191   0.75314   0.00000  Uiso   1.00
O905   O     0.56163   0.91420   0.75503   0.00000  Uiso   1.00
O906   O     0.43837   0.75247   0.74498   0.00000  Uiso   1.00
O907   O     0.42185   0.82597   0.80855   0.00000  Uiso   1.00
O908   O     0.57815   0.84070   0.69146   0.00000  Uiso   1.00
O909   O     0.52199   0.83540   0.81671   0.00000  Uiso   1.00
O910   O     0.47801   0.83126   0.68329   0.00000  Uiso   1.00
O911   O     0.33950   0.87116   0.62221   0.00000  Uiso   1.00
H912   H     0.38289   0.88166   0.60237   0.00000  Uiso   1.00
O913   O     0.33794   0.74936   0.87197   0.00000  Uiso   1.00
H914   H     0.33465   0.77494   0.85160   0.00000  Uiso   1.00
O915   O     0.42550   0.74277   0.57445   0.00000  Uiso   1.00
H916   H     0.38286   0.71863   0.58058   0.00000  Uiso   1.00
O917   O     0.60644   0.84421   0.90891   0.00000  Uiso   1.00
H918   H     0.58490   0.81224   0.89533   0.00000  Uiso   1.00
C919   C     0.84837   0.93340   0.75133   0.00000  Uiso   1.00
C920   C     0.81827   0.73327   0.74872   0.00000  Uiso   1.00
C921   C     0.77082   0.76813   0.53491   0.00000  Uiso   1.00
C922   C     0.91366   0.84127   0.95381   0.00000  Uiso   1.00
C923   C     0.72821   0.75288   0.50819   0.00000  Uiso   1.00
C924   C     0.95666   0.85512   0.97996   0.00000  Uiso   1.00
C925   C     0.85682   0.98937   0.75199   0.00000  Uiso   1.00
C926   C     0.80978   0.67730   0.74813   0.00000  Uiso   1.00
C927   C     0.79385   0.82672   0.83328   0.00000  Uiso   1.00
C928   C     0.87242   0.83742   0.66648   0.00000  Uiso   1.00
C929   C     0.76850   0.81312   0.88063   0.00000  Uiso   1.00
C930   C     0.89709   0.83993   0.61783   0.00000  Uiso   1.00
C931   C     0.69896   0.75611   0.93999   0.00000  Uiso   1.00
C932   C     0.98160   0.86211   0.55083   0.00000  Uiso   1.00
C933   C     0.71223   0.77403   0.89700   0.00000  Uiso   1.00
C934   C     0.96242   0.85725   0.59705   0.00000  Uiso   1.00
C935   C     0.80893   0.83243   0.90840   0.00000  Uiso   1.00
C936   C     0.85327   0.82512   0.59186   0.00000  Uiso   1.00
C937   C     0.80040   0.80870   0.94909   0.00000  Uiso   1.00
C938   C     0.87287   0.82461   0.54549   0.00000  Uiso   1.00
C939   C     0.74210   0.77311   0.96606   0.00000  Uiso   1.00
C940   C     0.93711   0.84746   0.52537   0.00000  Uiso   1.00
C941   C     0.84785   0.81936   0.97342   0.00000  Uiso   1.00
C942   C     0.82962   0.80474   0.51876   0.00000  Uiso   1.00
Cu943  Cu    0.77404   0.82775   0.74517   0.00000  Uiso   1.00
Cu944  Cu    0.89263   0.83892   0.75484   0.00000  Uiso   1.00
H945   H     0.68400   0.72437   0.52026   0.00000  Uiso   1.00
H946   H     0.67306   0.87118   0.96425   0.00000  Uiso   1.00
H947   H     0.80319   0.81628   0.60839   0.00000  Uiso   1.00
H948   H     0.84861   0.86505   0.89692   0.00000  Uiso   1.00
H949   H     0.98869   0.72710   0.95250   0.00000  Uiso   1.00
H950   H     0.69798   0.87762   0.53471   0.00000  Uiso   1.00
H951   H     0.90215   0.67986   0.75564   0.00000  Uiso   1.00
H952   H     0.76445   0.98681   0.74450   0.00000  Uiso   1.00
H953   H     0.66783   0.87162   0.78464   0.00000  Uiso   1.00
H954   H     0.99883   0.79503   0.71538   0.00000  Uiso   1.00
N955   N     0.98173   0.84735   0.76212   0.00000  Uiso   1.00
N956   N     0.68494   0.81932   0.73788   0.00000  Uiso   1.00
O957   O     0.79482   0.90476   0.74686   0.00000  Uiso   1.00
O958   O     0.87185   0.76191   0.75314   0.00000  Uiso   1.00
O959   O     0.89496   0.91420   0.75503   0.00000  Uiso   1.00
O960   O     0.77171   0.75247   0.74498   0.00000  Uiso   1.00
O961   O     0.75518   0.82597   0.80855   0.00000  Uiso   1.00
O962   O     0.91149   0.84070   0.69146   0.00000  Uiso   1.00
O963   O     0.85532   0.83540   0.81671   0.00000  Uiso   1.00
O964   O     0.81134   0.83126   0.68329   0.00000  Uiso   1.00
O965   O     0.67284   0.87116   0.62221   0.00000  Uiso   1.00
H966   H     0.71622   0.88166   0.60237   0.00000  Uiso   1.00
O967   O     0.67127   0.74936   0.87197   0.00000  Uiso   1.00
H968   H     0.66798   0.77494   0.85160   0.00000  Uiso   1.00
O969   O     0.75883   0.74277   0.57445   0.00000  Uiso   1.00
H970   H     0.71619   0.71863   0.58058   0.00000  Uiso   1.00
O971   O     0.93978   0.84421   0.90891   0.00000  Uiso   1.00
H972   H     0.91823   0.81224   0.89533   0.00000  Uiso   1.00
loop_
_geom_bond_atom_site_label_1
_geom_bond_atom_site_label_2
_geom_bond_distance
_geom_bond_site_symmetry_2
_ccdc_geom_bond_type
C1     O41     1.286   .     A
C1     O39     1.291   .     A
C1     C7      1.428   .     S
C2     O42     1.286   .     A
C2     O40     1.291   .     A
C2     C8      1.428   .     S
C3     C24     1.426   .     A
C3     O51     1.383   .     S
C3     C5      1.401   .     A
C4     O53     1.376   .     S
C4     C6      1.392   .     A
C4     C23     1.431   .     A
C5     H27     1.085   .     S
C5     C507    1.390   1_554 S
C6     C508    1.391   .     S
C6     H82     1.085   .     S
C7     C170    1.328   .     S
C7     H195    1.088   .     S
C8     C331    1.328   1_545 S
C8     H358    1.088   1_545 S
C9     O45     1.303   .     A
C9     C11     1.482   .     S
C9     O43     1.299   .     A
C10    O46     1.301   .     A
C10    C12     1.481   .     S
C10    O44     1.302   .     A
C11    C15     1.424   .     A
C11    C17     1.403   .     A
C12    C18     1.403   .     A
C12    C16     1.411   .     A
C13    C15     1.394   .     A
C13    C21     1.399   .     A
C13    H139    1.085   1_455 S
C14    C22     1.403   .     A
C14    C16     1.407   .     A
C14    H86     1.085   .     S
C15    O49     1.379   .     S
C16    O101    1.382   .     S
C17    H30     1.081   .     S
C17    C19     1.408   .     A
C18    H29     1.078   .     S
C18    C20     1.405   .     A
C19    C23     1.428   .     A
C19    C21     1.410   .     A
C20    C24     1.427   .     A
C20    C22     1.411   .     A
C21    C491    1.390   .     S
C22    C492    1.391   1_554 S
C23    C510    1.428   .     S
C24    C509    1.428   1_554 S
Cu25   O42     1.952   .     S
Cu25   O43     1.924   .     S
Cu25   O39     1.956   .     S
Cu25   N38     2.019   .     S
Cu25   Cu26    2.687   .     S
Cu25   O46     1.901   .     S
Cu26   N37     2.019   .     S
Cu26   O40     1.956   .     S
Cu26   O44     1.924   .     S
Cu26   O45     1.901   .     S
Cu26   O41     1.952   .     S
H28    C114    1.085   1_455 S
H31    C67     1.085   .     S
H32    C122    1.085   1_455 S
H33    C331    1.088   1_545 S
H34    C170    1.088   .     S
H35    N145    1.029   1_455 S
H36    N92     1.029   .     S
N37    H89     1.029   .     S
N37    N92     1.282   .     S
N38    H144    1.029   1_455 S
N38    N145    1.282   1_455 S
O47    H48     0.992   .     S
O47    C124    1.382   1_455 S
O49    H50     0.984   .     S
O51    H52     0.992   .     S
O53    H54     0.990   .     S
C55    O95     1.286   .     A
C55    O93     1.291   .     A
C55    C61     1.428   .     S
C56    O96     1.286   .     A
C56    O94     1.291   .     A
C56    C62     1.428   .     S
C57    C78     1.426   .     A
C57    O105    1.383   .     S
C57    C59     1.401   .     A
C58    O107    1.376   .     S
C58    C60     1.392   .     A
C58    C77     1.431   .     A
C59    H81     1.085   .     S
C59    C561    1.390   1_554 S
C60    C562    1.391   .     S
C60    H136    1.085   .     S
C61    C224    1.328   .     S
C61    H249    1.088   .     S
C62    C385    1.328   1_545 S
C62    H412    1.088   1_545 S
C63    O99     1.303   .     A
C63    C65     1.482   .     S
C63    O97     1.299   .     A
C64    O100    1.301   .     A
C64    C66     1.481   .     S
C64    O98     1.302   .     A
C65    C69     1.424   .     A
C65    C71     1.403   .     A
C66    C72     1.403   .     A
C66    C70     1.411   .     A
C67    C69     1.394   .     A
C67    C75     1.399   .     A
C68    C76     1.403   .     A
C68    C70     1.407   .     A
C68    H140    1.085   .     S
C69    O103    1.379   .     S
C70    O155    1.382   .     S
C71    H84     1.081   .     S
C71    C73     1.408   .     A
C72    H83     1.078   .     S
C72    C74     1.405   .     A
C73    C77     1.428   .     A
C73    C75     1.410   .     A
C74    C78     1.427   .     A
C74    C76     1.411   .     A
C75    C545    1.390   .     S
C76    C546    1.391   1_554 S
C77    C564    1.428   .     S
C78    C563    1.428   1_554 S
Cu79   O96     1.952   .     S
Cu79   O97     1.924   .     S
Cu79   O93     1.956   .     S
Cu79   N92     2.019   .     S
Cu79   Cu80    2.687   .     S
Cu79   O100    1.901   .     S
Cu80   N91     2.019   .     S
Cu80   O94     1.956   .     S
Cu80   O98     1.924   .     S
Cu80   O99     1.901   .     S
Cu80   O95     1.952   .     S
H85    C121    1.085   .     S
H87    C385    1.088   1_545 S
H88    C224    1.088   .     S
H90    N146    1.029   .     S
N91    H143    1.029   .     S
N91    N146    1.282   .     S
O101   H102    0.992   .     S
O103   H104    0.984   .     S
O105   H106    0.992   .     S
O107   H108    0.990   .     S
C109   O149    1.286   .     A
C109   O147    1.291   .     A
C109   C115    1.428   .     S
C110   O150    1.286   .     A
C110   O148    1.291   .     A
C110   C116    1.428   .     S
C111   C132    1.426   .     A
C111   O159    1.383   .     S
C111   C113    1.401   .     A
C112   O161    1.376   .     S
C112   C114    1.392   .     A
C112   C131    1.431   .     A
C113   H135    1.085   .     S
C113   C615    1.390   1_554 S
C114   C616    1.391   .     S
C114   H28     1.085   1_655 S
C115   C278    1.328   .     S
C115   H303    1.088   .     S
C116   C439    1.328   1_545 S
C116   H466    1.088   1_545 S
C117   O153    1.303   .     A
C117   C119    1.482   .     S
C117   O151    1.299   .     A
C118   O154    1.301   .     A
C118   C120    1.481   .     S
C118   O152    1.302   .     A
C119   C123    1.424   .     A
C119   C125    1.403   .     A
C120   C126    1.403   .     A
C120   C124    1.411   .     A
C121   C123    1.394   .     A
C121   C129    1.399   .     A
C122   C130    1.403   .     A
C122   C124    1.407   .     A
C122   H32     1.085   1_655 S
C123   O157    1.379   .     S
C124   O47     1.382   1_655 S
C125   H138    1.081   .     S
C125   C127    1.408   .     A
C126   H137    1.078   .     S
C126   C128    1.405   .     A
C127   C131    1.428   .     A
C127   C129    1.410   .     A
C128   C132    1.427   .     A
C128   C130    1.411   .     A
C129   C599    1.390   .     S
C130   C600    1.391   1_554 S
C131   C618    1.428   .     S
C132   C617    1.428   1_554 S
Cu133  O150    1.952   .     S
Cu133  O151    1.924   .     S
Cu133  O147    1.956   .     S
Cu133  N146    2.019   .     S
Cu133  Cu134   2.687   .     S
Cu133  O154    1.901   .     S
Cu134  N145    2.019   .     S
Cu134  O148    1.956   .     S
Cu134  O152    1.924   .     S
Cu134  O153    1.901   .     S
Cu134  O149    1.952   .     S
H139   C13     1.085   1_655 S
H141   C439    1.088   1_545 S
H142   C278    1.088   .     S
H144   N38     1.029   1_655 S
N145   H35     1.029   1_655 S
N145   N38     1.282   1_655 S
O155   H156    0.992   .     S
O157   H158    0.984   .     S
O159   H160    0.992   .     S
O161   H162    0.990   .     S
C163   O203    1.286   .     A
C163   O201    1.291   .     A
C163   C169    1.428   .     S
C164   O204    1.286   .     A
C164   O202    1.291   .     A
C164   C170    1.428   .     S
C165   C186    1.426   .     A
C165   O213    1.383   .     S
C165   C167    1.401   .     A
C166   O215    1.376   .     S
C166   C168    1.392   .     A
C166   C185    1.431   .     A
C167   H189    1.085   .     S
C167   C669    1.390   1_554 S
C168   C670    1.391   .     S
C168   H244    1.085   .     S
C169   C332    1.328   .     S
C169   H357    1.088   .     S
C171   O207    1.303   .     A
C171   C173    1.482   .     S
C171   O205    1.299   .     A
C172   O208    1.301   .     A
C172   C174    1.481   .     S
C172   O206    1.302   .     A
C173   C177    1.424   .     A
C173   C179    1.403   .     A
C174   C180    1.403   .     A
C174   C178    1.411   .     A
C175   C177    1.394   .     A
C175   C183    1.399   .     A
C175   H301    1.085   1_455 S
C176   C184    1.403   .     A
C176   C178    1.407   .     A
C176   H248    1.085   .     S
C177   O211    1.379   .     S
C178   O263    1.382   .     S
C179   H192    1.081   .     S
C179   C181    1.408   .     A
C180   H191    1.078   .     S
C180   C182    1.405   .     A
C181   C185    1.428   .     A
C181   C183    1.410   .     A
C182   C186    1.427   .     A
C182   C184    1.411   .     A
C183   C653    1.390   .     S
C184   C654    1.391   1_554 S
C185   C672    1.428   .     S
C186   C671    1.428   1_554 S
Cu187  O204    1.952   .     S
Cu187  O205    1.924   .     S
Cu187  O201    1.956   .     S
Cu187  N200    2.019   .     S
Cu187  Cu188   2.687   .     S
Cu187  O208    1.901   .     S
Cu188  N199    2.019   .     S
Cu188  O202    1.956   .     S
Cu188  O206    1.924   .     S
Cu188  O207    1.901   .     S
Cu188  O203    1.952   .     S
H190   C276    1.085   1_455 S
H193   C229    1.085   .     S
H194   C284    1.085   1_455 S
H196   C332    1.088   .     S
H197   N307    1.029   1_455 S
H198   N254    1.029   .     S
N199   H251    1.029   .     S
N199   N254    1.282   .     S
N200   H306    1.029   1_455 S
N200   N307    1.282   1_455 S
O209   H210    0.992   .     S
O209   C286    1.382   1_455 S
O211   H212    0.984   .     S
O213   H214    0.992   .     S
O215   H216    0.990   .     S
C217   O257    1.286   .     A
C217   O255    1.291   .     A
C217   C223    1.428   .     S
C218   O258    1.286   .     A
C218   O256    1.291   .     A
C218   C224    1.428   .     S
C219   C240    1.426   .     A
C219   O267    1.383   .     S
C219   C221    1.401   .     A
C220   O269    1.376   .     S
C220   C222    1.392   .     A
C220   C239    1.431   .     A
C221   H243    1.085   .     S
C221   C723    1.390   1_554 S
C222   C724    1.391   .     S
C222   H298    1.085   .     S
C223   C386    1.328   .     S
C223   H411    1.088   .     S
C225   O261    1.303   .     A
C225   C227    1.482   .     S
C225   O259    1.299   .     A
C226   O262    1.301   .     A
C226   C228    1.481   .     S
C226   O260    1.302   .     A
C227   C231    1.424   .     A
C227   C233    1.403   .     A
C228   C234    1.403   .     A
C228   C232    1.411   .     A
C229   C231    1.394   .     A
C229   C237    1.399   .     A
C230   C238    1.403   .     A
C230   C232    1.407   .     A
C230   H302    1.085   .     S
C231   O265    1.379   .     S
C232   O317    1.382   .     S
C233   H246    1.081   .     S
C233   C235    1.408   .     A
C234   H245    1.078   .     S
C234   C236    1.405   .     A
C235   C239    1.428   .     A
C235   C237    1.410   .     A
C236   C240    1.427   .     A
C236   C238    1.411   .     A
C237   C707    1.390   .     S
C238   C708    1.391   1_554 S
C239   C726    1.428   .     S
C240   C725    1.428   1_554 S
Cu241  O258    1.952   .     S
Cu241  O259    1.924   .     S
Cu241  O255    1.956   .     S
Cu241  N254    2.019   .     S
Cu241  Cu242   2.687   .     S
Cu241  O262    1.901   .     S
Cu242  N253    2.019   .     S
Cu242  O256    1.956   .     S
Cu242  O260    1.924   .     S
Cu242  O261    1.901   .     S
Cu242  O257    1.952   .     S
H247   C283    1.085   .     S
H250   C386    1.088   .     S
H252   N308    1.029   .     S
N253   H305    1.029   .     S
N253   N308    1.282   .     S
O263   H264    0.992   .     S
O265   H266    0.984   .     S
O267   H268    0.992   .     S
O269   H270    0.990   .     S
C271   O311    1.286   .     A
C271   O309    1.291   .     A
C271   C277    1.428   .     S
C272   O312    1.286   .     A
C272   O310    1.291   .     A
C272   C278    1.428   .     S
C273   C294    1.426   .     A
C273   O321    1.383   .     S
C273   C275    1.401   .     A
C274   O323    1.376   .     S
C274   C276    1.392   .     A
C274   C293    1.431   .     A
C275   H297    1.085   .     S
C275   C777    1.390   1_554 S
C276   C778    1.391   .     S
C276   H190    1.085   1_655 S
C277   C440    1.328   .     S
C277   H465    1.088   .     S
C279   O315    1.303   .     A
C279   C281    1.482   .     S
C279   O313    1.299   .     A
C280   O316    1.301   .     A
C280   C282    1.481   .     S
C280   O314    1.302   .     A
C281   C285    1.424   .     A
C281   C287    1.403   .     A
C282   C288    1.403   .     A
C282   C286    1.411   .     A
C283   C285    1.394   .     A
C283   C291    1.399   .     A
C284   C292    1.403   .     A
C284   C286    1.407   .     A
C284   H194    1.085   1_655 S
C285   O319    1.379   .     S
C286   O209    1.382   1_655 S
C287   H300    1.081   .     S
C287   C289    1.408   .     A
C288   H299    1.078   .     S
C288   C290    1.405   .     A
C289   C293    1.428   .     A
C289   C291    1.410   .     A
C290   C294    1.427   .     A
C290   C292    1.411   .     A
C291   C761    1.390   .     S
C292   C762    1.391   1_554 S
C293   C780    1.428   .     S
C294   C779    1.428   1_554 S
Cu295  O312    1.952   .     S
Cu295  O313    1.924   .     S
Cu295  O309    1.956   .     S
Cu295  N308    2.019   .     S
Cu295  Cu296   2.687   .     S
Cu295  O316    1.901   .     S
Cu296  N307    2.019   .     S
Cu296  O310    1.956   .     S
Cu296  O314    1.924   .     S
Cu296  O315    1.901   .     S
Cu296  O311    1.952   .     S
H301   C175    1.085   1_655 S
H304   C440    1.088   .     S
H306   N200    1.029   1_655 S
N307   H197    1.029   1_655 S
N307   N200    1.282   1_655 S
O317   H318    0.992   .     S
O319   H320    0.984   .     S
O321   H322    0.992   .     S
O323   H324    0.990   .     S
C325   O365    1.286   .     A
C325   O363    1.291   .     A
C325   C331    1.428   .     S
C326   O366    1.286   .     A
C326   O364    1.291   .     A
C326   C332    1.428   .     S
C327   C348    1.426   .     A
C327   O375    1.383   .     S
C327   C329    1.401   .     A
C328   O377    1.376   .     S
C328   C330    1.392   .     A
C328   C347    1.431   .     A
C329   H351    1.085   .     S
C329   C831    1.390   1_554 S
C330   C832    1.391   .     S
C330   H406    1.085   .     S
C331   C8      1.328   1_565 S
C331   H33     1.088   1_565 S
C333   O369    1.303   .     A
C333   C335    1.482   .     S
C333   O367    1.299   .     A
C334   O370    1.301   .     A
C334   C336    1.481   .     S
C334   O368    1.302   .     A
C335   C339    1.424   .     A
C335   C341    1.403   .     A
C336   C342    1.403   .     A
C336   C340    1.411   .     A
C337   C339    1.394   .     A
C337   C345    1.399   .     A
C337   H463    1.085   1_455 S
C338   C346    1.403   .     A
C338   C340    1.407   .     A
C338   H410    1.085   .     S
C339   O373    1.379   .     S
C340   O425    1.382   .     S
C341   H354    1.081   .     S
C341   C343    1.408   .     A
C342   H353    1.078   .     S
C342   C344    1.405   .     A
C343   C347    1.428   .     A
C343   C345    1.410   .     A
C344   C348    1.427   .     A
C344   C346    1.411   .     A
C345   C815    1.390   .     S
C346   C816    1.391   1_554 S
C347   C834    1.428   .     S
C348   C833    1.428   1_554 S
Cu349  O366    1.952   .     S
Cu349  O367    1.924   .     S
Cu349  O363    1.956   .     S
Cu349  N362    2.019   .     S
Cu349  Cu350   2.687   .     S
Cu349  O370    1.901   .     S
Cu350  N361    2.019   .     S
Cu350  O364    1.956   .     S
Cu350  O368    1.924   .     S
Cu350  O369    1.901   .     S
Cu350  O365    1.952   .     S
H352   C438    1.085   1_455 S
H355   C391    1.085   .     S
H356   C446    1.085   1_455 S
H358   C8      1.088   1_565 S
H359   N469    1.029   1_455 S
H360   N416    1.029   .     S
N361   H413    1.029   .     S
N361   N416    1.282   .     S
N362   H468    1.029   1_455 S
N362   N469    1.282   1_455 S
O371   H372    0.992   .     S
O371   C448    1.382   1_455 S
O373   H374    0.984   .     S
O375   H376    0.992   .     S
O377   H378    0.990   .     S
C379   O419    1.286   .     A
C379   O417    1.291   .     A
C379   C385    1.428   .     S
C380   O420    1.286   .     A
C380   O418    1.291   .     A
C380   C386    1.428   .     S
C381   C402    1.426   .     A
C381   O429    1.383   .     S
C381   C383    1.401   .     A
C382   O431    1.376   .     S
C382   C384    1.392   .     A
C382   C401    1.431   .     A
C383   H405    1.085   .     S
C383   C885    1.390   1_554 S
C384   C886    1.391   .     S
C384   H460    1.085   .     S
C385   C62     1.328   1_565 S
C385   H87     1.088   1_565 S
C387   O423    1.303   .     A
C387   C389    1.482   .     S
C387   O421    1.299   .     A
C388   O424    1.301   .     A
C388   C390    1.481   .     S
C388   O422    1.302   .     A
C389   C393    1.424   .     A
C389   C395    1.403   .     A
C390   C396    1.403   .     A
C390   C394    1.411   .     A
C391   C393    1.394   .     A
C391   C399    1.399   .     A
C392   C400    1.403   .     A
C392   C394    1.407   .     A
C392   H464    1.085   .     S
C393   O427    1.379   .     S
C394   O479    1.382   .     S
C395   H408    1.081   .     S
C395   C397    1.408   .     A
C396   H407    1.078   .     S
C396   C398    1.405   .     A
C397   C401    1.428   .     A
C397   C399    1.410   .     A
C398   C402    1.427   .     A
C398   C400    1.411   .     A
C399   C869    1.390   .     S
C400   C870    1.391   1_554 S
C401   C888    1.428   .     S
C402   C887    1.428   1_554 S
Cu403  O420    1.952   .     S
Cu403  O421    1.924   .     S
Cu403  O417    1.956   .     S
Cu403  N416    2.019   .     S
Cu403  Cu404   2.687   .     S
Cu403  O424    1.901   .     S
Cu404  N415    2.019   .     S
Cu404  O418    1.956   .     S
Cu404  O422    1.924   .     S
Cu404  O423    1.901   .     S
Cu404  O419    1.952   .     S
H409   C445    1.085   .     S
H412   C62     1.088   1_565 S
H414   N470    1.029   .     S
N415   H467    1.029   .     S
N415   N470    1.282   .     S
O425   H426    0.992   .     S
O427   H428    0.984   .     S
O429   H430    0.992   .     S
O431   H432    0.990   .     S
C433   O473    1.286   .     A
C433   O471    1.291   .     A
C433   C439    1.428   .     S
C434   O474    1.286   .     A
C434   O472    1.291   .     A
C434   C440    1.428   .     S
C435   C456    1.426   .     A
C435   O483    1.383   .     S
C435   C437    1.401   .     A
C436   O485    1.376   .     S
C436   C438    1.392   .     A
C436   C455    1.431   .     A
C437   H459    1.085   .     S
C437   C939    1.390   1_554 S
C438   C940    1.391   .     S
C438   H352    1.085   1_655 S
C439   C116    1.328   1_565 S
C439   H141    1.088   1_565 S
C441   O477    1.303   .     A
C441   C443    1.482   .     S
C441   O475    1.299   .     A
C442   O478    1.301   .     A
C442   C444    1.481   .     S
C442   O476    1.302   .     A
C443   C447    1.424   .     A
C443   C449    1.403   .     A
C444   C450    1.403   .     A
C444   C448    1.411   .     A
C445   C447    1.394   .     A
C445   C453    1.399   .     A
C446   C454    1.403   .     A
C446   C448    1.407   .     A
C446   H356    1.085   1_655 S
C447   O481    1.379   .     S
C448   O371    1.382   1_655 S
C449   H462    1.081   .     S
C449   C451    1.408   .     A
C450   H461    1.078   .     S
C450   C452    1.405   .     A
C451   C455    1.428   .     A
C451   C453    1.410   .     A
C452   C456    1.427   .     A
C452   C454    1.411   .     A
C453   C923    1.390   .     S
C454   C924    1.391   1_554 S
C455   C942    1.428   .     S
C456   C941    1.428   1_554 S
Cu457  O474    1.952   .     S
Cu457  O475    1.924   .     S
Cu457  O471    1.956   .     S
Cu457  N470    2.019   .     S
Cu457  Cu458   2.687   .     S
Cu457  O478    1.901   .     S
Cu458  N469    2.019   .     S
Cu458  O472    1.956   .     S
Cu458  O476    1.924   .     S
Cu458  O477    1.901   .     S
Cu458  O473    1.952   .     S
H463   C337    1.085   1_655 S
H466   C116    1.088   1_565 S
H468   N362    1.029   1_655 S
N469   H359    1.029   1_655 S
N469   N362    1.282   1_655 S
O479   H480    0.992   .     S
O481   H482    0.984   .     S
O483   H484    0.992   .     S
O485   H486    0.990   .     S
C487   O527    1.286   .     A
C487   O525    1.291   .     A
C487   C493    1.428   .     S
C488   O528    1.286   .     A
C488   O526    1.291   .     A
C488   C494    1.428   .     S
C489   C510    1.426   .     A
C489   O537    1.383   .     S
C489   C491    1.401   .     A
C490   O539    1.376   .     S
C490   C492    1.392   .     A
C490   C509    1.431   .     A
C491   H513    1.085   .     S
C492   C22     1.391   1_556 S
C492   H568    1.085   .     S
C493   C656    1.328   .     S
C493   H681    1.088   .     S
C494   C817    1.328   1_545 S
C494   H844    1.088   1_545 S
C495   O531    1.303   .     A
C495   C497    1.482   .     S
C495   O529    1.299   .     A
C496   O532    1.301   .     A
C496   C498    1.481   .     S
C496   O530    1.302   .     A
C497   C501    1.424   .     A
C497   C503    1.403   .     A
C498   C504    1.403   .     A
C498   C502    1.411   .     A
C499   C501    1.394   .     A
C499   C507    1.399   .     A
C499   H625    1.085   1_455 S
C500   C508    1.403   .     A
C500   C502    1.407   .     A
C500   H572    1.085   .     S
C501   O535    1.379   .     S
C502   O587    1.382   .     S
C503   H516    1.081   .     S
C503   C505    1.408   .     A
C504   H515    1.078   .     S
C504   C506    1.405   .     A
C505   C509    1.428   .     A
C505   C507    1.410   .     A
C506   C510    1.427   .     A
C506   C508    1.411   .     A
C507   C5      1.390   1_556 S
C509   C24     1.428   1_556 S
Cu511  O528    1.952   .     S
Cu511  O529    1.924   .     S
Cu511  O525    1.956   .     S
Cu511  N524    2.019   .     S
Cu511  Cu512   2.687   .     S
Cu511  O532    1.901   .     S
Cu512  N523    2.019   .     S
Cu512  O526    1.956   .     S
Cu512  O530    1.924   .     S
Cu512  O531    1.901   .     S
Cu512  O527    1.952   .     S
H514   C600    1.085   1_455 S
H517   C553    1.085   .     S
H518   C608    1.085   1_455 S
H519   C817    1.088   1_545 S
H520   C656    1.088   .     S
H521   N631    1.029   1_455 S
H522   N578    1.029   .     S
N523   H575    1.029   .     S
N523   N578    1.282   .     S
N524   H630    1.029   1_455 S
N524   N631    1.282   1_455 S
O533   H534    0.992   .     S
O533   C610    1.382   1_455 S
O535   H536    0.984   .     S
O537   H538    0.992   .     S
O539   H540    0.990   .     S
C541   O581    1.286   .     A
C541   O579    1.291   .     A
C541   C547    1.428   .     S
C542   O582    1.286   .     A
C542   O580    1.291   .     A
C542   C548    1.428   .     S
C543   C564    1.426   .     A
C543   O591    1.383   .     S
C543   C545    1.401   .     A
C544   O593    1.376   .     S
C544   C546    1.392   .     A
C544   C563    1.431   .     A
C545   H567    1.085   .     S
C546   C76     1.391   1_556 S
C546   H622    1.085   .     S
C547   C710    1.328   .     S
C547   H735    1.088   .     S
C548   C871    1.328   1_545 S
C548   H898    1.088   1_545 S
C549   O585    1.303   .     A
C549   C551    1.482   .     S
C549   O583    1.299   .     A
C550   O586    1.301   .     A
C550   C552    1.481   .     S
C550   O584    1.302   .     A
C551   C555    1.424   .     A
C551   C557    1.403   .     A
C552   C558    1.403   .     A
C552   C556    1.411   .     A
C553   C555    1.394   .     A
C553   C561    1.399   .     A
C554   C562    1.403   .     A
C554   C556    1.407   .     A
C554   H626    1.085   .     S
C555   O589    1.379   .     S
C556   O641    1.382   .     S
C557   H570    1.081   .     S
C557   C559    1.408   .     A
C558   H569    1.078   .     S
C558   C560    1.405   .     A
C559   C563    1.428   .     A
C559   C561    1.410   .     A
C560   C564    1.427   .     A
C560   C562    1.411   .     A
C561   C59     1.390   1_556 S
C563   C78     1.428   1_556 S
Cu565  O582    1.952   .     S
Cu565  O583    1.924   .     S
Cu565  O579    1.956   .     S
Cu565  N578    2.019   .     S
Cu565  Cu566   2.687   .     S
Cu565  O586    1.901   .     S
Cu566  N577    2.019   .     S
Cu566  O580    1.956   .     S
Cu566  O584    1.924   .     S
Cu566  O585    1.901   .     S
Cu566  O581    1.952   .     S
H571   C607    1.085   .     S
H573   C871    1.088   1_545 S
H574   C710    1.088   .     S
H576   N632    1.029   .     S
N577   H629    1.029   .     S
N577   N632    1.282   .     S
O587   H588    0.992   .     S
O589   H590    0.984   .     S
O591   H592    0.992   .     S
O593   H594    0.990   .     S
C595   O635    1.286   .     A
C595   O633    1.291   .     A
C595   C601    1.428   .     S
C596   O636    1.286   .     A
C596   O634    1.291   .     A
C596   C602    1.428   .     S
C597   C618    1.426   .     A
C597   O645    1.383   .     S
C597   C599    1.401   .     A
C598   O647    1.376   .     S
C598   C600    1.392   .     A
C598   C617    1.431   .     A
C599   H621    1.085   .     S
C600   C130    1.391   1_556 S
C600   H514    1.085   1_655 S
C601   C764    1.328   .     S
C601   H789    1.088   .     S
C602   C925    1.328   1_545 S
C602   H952    1.088   1_545 S
C603   O639    1.303   .     A
C603   C605    1.482   .     S
C603   O637    1.299   .     A
C604   O640    1.301   .     A
C604   C606    1.481   .     S
C604   O638    1.302   .     A
C605   C609    1.424   .     A
C605   C611    1.403   .     A
C606   C612    1.403   .     A
C606   C610    1.411   .     A
C607   C609    1.394   .     A
C607   C615    1.399   .     A
C608   C616    1.403   .     A
C608   C610    1.407   .     A
C608   H518    1.085   1_655 S
C609   O643    1.379   .     S
C610   O533    1.382   1_655 S
C611   H624    1.081   .     S
C611   C613    1.408   .     A
C612   H623    1.078   .     S
C612   C614    1.405   .     A
C613   C617    1.428   .     A
C613   C615    1.410   .     A
C614   C618    1.427   .     A
C614   C616    1.411   .     A
C615   C113    1.390   1_556 S
C617   C132    1.428   1_556 S
Cu619  O636    1.952   .     S
Cu619  O637    1.924   .     S
Cu619  O633    1.956   .     S
Cu619  N632    2.019   .     S
Cu619  Cu620   2.687   .     S
Cu619  O640    1.901   .     S
Cu620  N631    2.019   .     S
Cu620  O634    1.956   .     S
Cu620  O638    1.924   .     S
Cu620  O639    1.901   .     S
Cu620  O635    1.952   .     S
H625   C499    1.085   1_655 S
H627   C925    1.088   1_545 S
H628   C764    1.088   .     S
H630   N524    1.029   1_655 S
N631   H521    1.029   1_655 S
N631   N524    1.282   1_655 S
O641   H642    0.992   .     S
O643   H644    0.984   .     S
O645   H646    0.992   .     S
O647   H648    0.990   .     S
C649   O689    1.286   .     A
C649   O687    1.291   .     A
C649   C655    1.428   .     S
C650   O690    1.286   .     A
C650   O688    1.291   .     A
C650   C656    1.428   .     S
C651   C672    1.426   .     A
C651   O699    1.383   .     S
C651   C653    1.401   .     A
C652   O701    1.376   .     S
C652   C654    1.392   .     A
C652   C671    1.431   .     A
C653   H675    1.085   .     S
C654   C184    1.391   1_556 S
C654   H730    1.085   .     S
C655   C818    1.328   .     S
C655   H843    1.088   .     S
C657   O693    1.303   .     A
C657   C659    1.482   .     S
C657   O691    1.299   .     A
C658   O694    1.301   .     A
C658   C660    1.481   .     S
C658   O692    1.302   .     A
C659   C663    1.424   .     A
C659   C665    1.403   .     A
C660   C666    1.403   .     A
C660   C664    1.411   .     A
C661   C663    1.394   .     A
C661   C669    1.399   .     A
C661   H787    1.085   1_455 S
C662   C670    1.403   .     A
C662   C664    1.407   .     A
C662   H734    1.085   .     S
C663   O697    1.379   .     S
C664   O749    1.382   .     S
C665   H678    1.081   .     S
C665   C667    1.408   .     A
C666   H677    1.078   .     S
C666   C668    1.405   .     A
C667   C671    1.428   .     A
C667   C669    1.410   .     A
C668   C672    1.427   .     A
C668   C670    1.411   .     A
C669   C167    1.390   1_556 S
C671   C186    1.428   1_556 S
Cu673  O690    1.952   .     S
Cu673  O691    1.924   .     S
Cu673  O687    1.956   .     S
Cu673  N686    2.019   .     S
Cu673  Cu674   2.687   .     S
Cu673  O694    1.901   .     S
Cu674  N685    2.019   .     S
Cu674  O688    1.956   .     S
Cu674  O692    1.924   .     S
Cu674  O693    1.901   .     S
Cu674  O689    1.952   .     S
H676   C762    1.085   1_455 S
H679   C715    1.085   .     S
H680   C770    1.085   1_455 S
H682   C818    1.088   .     S
H683   N793    1.029   1_455 S
H684   N740    1.029   .     S
N685   H737    1.029   .     S
N685   N740    1.282   .     S
N686   H792    1.029   1_455 S
N686   N793    1.282   1_455 S
O695   H696    0.992   .     S
O695   C772    1.382   1_455 S
O697   H698    0.984   .     S
O699   H700    0.992   .     S
O701   H702    0.990   .     S
C703   O743    1.286   .     A
C703   O741    1.291   .     A
C703   C709    1.428   .     S
C704   O744    1.286   .     A
C704   O742    1.291   .     A
C704   C710    1.428   .     S
C705   C726    1.426   .     A
C705   O753    1.383   .     S
C705   C707    1.401   .     A
C706   O755    1.376   .     S
C706   C708    1.392   .     A
C706   C725    1.431   .     A
C707   H729    1.085   .     S
C708   C238    1.391   1_556 S
C708   H784    1.085   .     S
C709   C872    1.328   .     S
C709   H897    1.088   .     S
C711   O747    1.303   .     A
C711   C713    1.482   .     S
C711   O745    1.299   .     A
C712   O748    1.301   .     A
C712   C714    1.481   .     S
C712   O746    1.302   .     A
C713   C717    1.424   .     A
C713   C719    1.403   .     A
C714   C720    1.403   .     A
C714   C718    1.411   .     A
C715   C717    1.394   .     A
C715   C723    1.399   .     A
C716   C724    1.403   .     A
C716   C718    1.407   .     A
C716   H788    1.085   .     S
C717   O751    1.379   .     S
C718   O803    1.382   .     S
C719   H732    1.081   .     S
C719   C721    1.408   .     A
C720   H731    1.078   .     S
C720   C722    1.405   .     A
C721   C725    1.428   .     A
C721   C723    1.410   .     A
C722   C726    1.427   .     A
C722   C724    1.411   .     A
C723   C221    1.390   1_556 S
C725   C240    1.428   1_556 S
Cu727  O744    1.952   .     S
Cu727  O745    1.924   .     S
Cu727  O741    1.956   .     S
Cu727  N740    2.019   .     S
Cu727  Cu728   2.687   .     S
Cu727  O748    1.901   .     S
Cu728  N739    2.019   .     S
Cu728  O742    1.956   .     S
Cu728  O746    1.924   .     S
Cu728  O747    1.901   .     S
Cu728  O743    1.952   .     S
H733   C769    1.085   .     S
H736   C872    1.088   .     S
H738   N794    1.029   .     S
N739   H791    1.029   .     S
N739   N794    1.282   .     S
O749   H750    0.992   .     S
O751   H752    0.984   .     S
O753   H754    0.992   .     S
O755   H756    0.990   .     S
C757   O797    1.286   .     A
C757   O795    1.291   .     A
C757   C763    1.428   .     S
C758   O798    1.286   .     A
C758   O796    1.291   .     A
C758   C764    1.428   .     S
C759   C780    1.426   .     A
C759   O807    1.383   .     S
C759   C761    1.401   .     A
C760   O809    1.376   .     S
C760   C762    1.392   .     A
C760   C779    1.431   .     A
C761   H783    1.085   .     S
C762   C292    1.391   1_556 S
C762   H676    1.085   1_655 S
C763   C926    1.328   .     S
C763   H951    1.088   .     S
C765   O801    1.303   .     A
C765   C767    1.482   .     S
C765   O799    1.299   .     A
C766   O802    1.301   .     A
C766   C768    1.481   .     S
C766   O800    1.302   .     A
C767   C771    1.424   .     A
C767   C773    1.403   .     A
C768   C774    1.403   .     A
C768   C772    1.411   .     A
C769   C771    1.394   .     A
C769   C777    1.399   .     A
C770   C778    1.403   .     A
C770   C772    1.407   .     A
C770   H680    1.085   1_655 S
C771   O805    1.379   .     S
C772   O695    1.382   1_655 S
C773   H786    1.081   .     S
C773   C775    1.408   .     A
C774   H785    1.078   .     S
C774   C776    1.405   .     A
C775   C779    1.428   .     A
C775   C777    1.410   .     A
C776   C780    1.427   .     A
C776   C778    1.411   .     A
C777   C275    1.390   1_556 S
C779   C294    1.428   1_556 S
Cu781  O798    1.952   .     S
Cu781  O799    1.924   .     S
Cu781  O795    1.956   .     S
Cu781  N794    2.019   .     S
Cu781  Cu782   2.687   .     S
Cu781  O802    1.901   .     S
Cu782  N793    2.019   .     S
Cu782  O796    1.956   .     S
Cu782  O800    1.924   .     S
Cu782  O801    1.901   .     S
Cu782  O797    1.952   .     S
H787   C661    1.085   1_655 S
H790   C926    1.088   .     S
H792   N686    1.029   1_655 S
N793   H683    1.029   1_655 S
N793   N686    1.282   1_655 S
O803   H804    0.992   .     S
O805   H806    0.984   .     S
O807   H808    0.992   .     S
O809   H810    0.990   .     S
C811   O851    1.286   .     A
C811   O849    1.291   .     A
C811   C817    1.428   .     S
C812   O852    1.286   .     A
C812   O850    1.291   .     A
C812   C818    1.428   .     S
C813   C834    1.426   .     A
C813   O861    1.383   .     S
C813   C815    1.401   .     A
C814   O863    1.376   .     S
C814   C816    1.392   .     A
C814   C833    1.431   .     A
C815   H837    1.085   .     S
C816   C346    1.391   1_556 S
C816   H892    1.085   .     S
C817   C494    1.328   1_565 S
C817   H519    1.088   1_565 S
C819   O855    1.303   .     A
C819   C821    1.482   .     S
C819   O853    1.299   .     A
C820   O856    1.301   .     A
C820   C822    1.481   .     S
C820   O854    1.302   .     A
C821   C825    1.424   .     A
C821   C827    1.403   .     A
C822   C828    1.403   .     A
C822   C826    1.411   .     A
C823   C825    1.394   .     A
C823   C831    1.399   .     A
C823   H949    1.085   1_455 S
C824   C832    1.403   .     A
C824   C826    1.407   .     A
C824   H896    1.085   .     S
C825   O859    1.379   .     S
C826   O911    1.382   .     S
C827   H840    1.081   .     S
C827   C829    1.408   .     A
C828   H839    1.078   .     S
C828   C830    1.405   .     A
C829   C833    1.428   .     A
C829   C831    1.410   .     A
C830   C834    1.427   .     A
C830   C832    1.411   .     A
C831   C329    1.390   1_556 S
C833   C348    1.428   1_556 S
Cu835  O852    1.952   .     S
Cu835  O853    1.924   .     S
Cu835  O849    1.956   .     S
Cu835  N848    2.019   .     S
Cu835  Cu836   2.687   .     S
Cu835  O856    1.901   .     S
Cu836  N847    2.019   .     S
Cu836  O850    1.956   .     S
Cu836  O854    1.924   .     S
Cu836  O855    1.901   .     S
Cu836  O851    1.952   .     S
H838   C924    1.085   1_455 S
H841   C877    1.085   .     S
H842   C932    1.085   1_455 S
H844   C494    1.088   1_565 S
H845   N955    1.029   1_455 S
H846   N902    1.029   .     S
N847   H899    1.029   .     S
N847   N902    1.282   .     S
N848   H954    1.029   1_455 S
N848   N955    1.282   1_455 S
O857   H858    0.992   .     S
O857   C934    1.382   1_455 S
O859   H860    0.984   .     S
O861   H862    0.992   .     S
O863   H864    0.990   .     S
C865   O905    1.286   .     A
C865   O903    1.291   .     A
C865   C871    1.428   .     S
C866   O906    1.286   .     A
C866   O904    1.291   .     A
C866   C872    1.428   .     S
C867   C888    1.426   .     A
C867   O915    1.383   .     S
C867   C869    1.401   .     A
C868   O917    1.376   .     S
C868   C870    1.392   .     A
C868   C887    1.431   .     A
C869   H891    1.085   .     S
C870   C400    1.391   1_556 S
C870   H946    1.085   .     S
C871   C548    1.328   1_565 S
C871   H573    1.088   1_565 S
C873   O909    1.303   .     A
C873   C875    1.482   .     S
C873   O907    1.299   .     A
C874   O910    1.301   .     A
C874   C876    1.481   .     S
C874   O908    1.302   .     A
C875   C879    1.424   .     A
C875   C881    1.403   .     A
C876   C882    1.403   .     A
C876   C880    1.411   .     A
C877   C879    1.394   .     A
C877   C885    1.399   .     A
C878   C886    1.403   .     A
C878   C880    1.407   .     A
C878   H950    1.085   .     S
C879   O913    1.379   .     S
C880   O965    1.382   .     S
C881   H894    1.081   .     S
C881   C883    1.408   .     A
C882   H893    1.078   .     S
C882   C884    1.405   .     A
C883   C887    1.428   .     A
C883   C885    1.410   .     A
C884   C888    1.427   .     A
C884   C886    1.411   .     A
C885   C383    1.390   1_556 S
C887   C402    1.428   1_556 S
Cu889  O906    1.952   .     S
Cu889  O907    1.924   .     S
Cu889  O903    1.956   .     S
Cu889  N902    2.019   .     S
Cu889  Cu890   2.687   .     S
Cu889  O910    1.901   .     S
Cu890  N901    2.019   .     S
Cu890  O904    1.956   .     S
Cu890  O908    1.924   .     S
Cu890  O909    1.901   .     S
Cu890  O905    1.952   .     S
H895   C931    1.085   .     S
H898   C548    1.088   1_565 S
H900   N956    1.029   .     S
N901   H953    1.029   .     S
N901   N956    1.282   .     S
O911   H912    0.992   .     S
O913   H914    0.984   .     S
O915   H916    0.992   .     S
O917   H918    0.990   .     S
C919   O959    1.286   .     A
C919   O957    1.291   .     A
C919   C925    1.428   .     S
C920   O960    1.286   .     A
C920   O958    1.291   .     A
C920   C926    1.428   .     S
C921   C942    1.426   .     A
C921   O969    1.383   .     S
C921   C923    1.401   .     A
C922   O971    1.376   .     S
C922   C924    1.392   .     A
C922   C941    1.431   .     A
C923   H945    1.085   .     S
C924   C454    1.391   1_556 S
C924   H838    1.085   1_655 S
C925   C602    1.328   1_565 S
C925   H627    1.088   1_565 S
C927   O963    1.303   .     A
C927   C929    1.482   .     S
C927   O961    1.299   .     A
C928   O964    1.301   .     A
C928   C930    1.481   .     S
C928   O962    1.302   .     A
C929   C933    1.424   .     A
C929   C935    1.403   .     A
C930   C936    1.403   .     A
C930   C934    1.411   .     A
C931   C933    1.394   .     A
C931   C939    1.399   .     A
C932   C940    1.403   .     A
C932   C934    1.407   .     A
C932   H842    1.085   1_655 S
C933   O967    1.379   .     S
C934   O857    1.382   1_655 S
C935   H948    1.081   .     S
C935   C937    1.408   .     A
C936   H947    1.078   .     S
C936   C938    1.405   .     A
C937   C941    1.428   .     A
C937   C939    1.410   .     A
C938   C942    1.427   .     A
C938   C940    1.411   .     A
C939   C437    1.390   1_556 S
C941   C456    1.428   1_556 S
Cu943  O960    1.952   .     S
Cu943  O961    1.924   .     S
Cu943  O957    1.956   .     S
Cu943  N956    2.019   .     S
Cu943  Cu944   2.687   .     S
Cu943  O964    1.901   .     S
Cu944  N955    2.019   .     S
Cu944  O958    1.956   .     S
Cu944  O962    1.924   .     S
Cu944  O963    1.901   .     S
Cu944  O959    1.952   .     S
H949   C823    1.085   1_655 S
H952   C602    1.088   1_565 S
H954   N848    1.029   1_655 S
N955   H845    1.029   1_655 S
N955   N848    1.282   1_655 S
O965   H966    0.992   .     S
O967   H968    0.984   .     S
O969   H970    0.992   .     S
O971   H972    0.990   .     S
