data_str_m2_o10_o18_pcu_sym.99
_audit_creation_date              2020-01-03
_audit_creation_method            'Materials Studio'
_symmetry_space_group_name_H-M    'P1'
_symmetry_Int_Tables_number       1
_symmetry_cell_setting            triclinic
loop_
_symmetry_equiv_pos_as_xyz
  x,y,z
_cell_length_a                    22.4550
_cell_length_b                    26.0600
_cell_length_c                    31.3509
_cell_angle_alpha                 94.3306
_cell_angle_beta                  75.0531
_cell_angle_gamma                 103.2710
loop_
_atom_site_label
_atom_site_type_symbol
_atom_site_fract_x
_atom_site_fract_y
_atom_site_fract_z
_atom_site_U_iso_or_equiv
_atom_site_adp_type
_atom_site_occupancy
C1     C     0.18165   0.26667   0.25139   0.00000  Uiso   1.00
C2     C     0.15163   0.06666   0.24871   0.00000  Uiso   1.00
C3     C     0.09930   0.14199   0.04177   0.00000  Uiso   1.00
C4     C     0.24365   0.19697   0.45703   0.00000  Uiso   1.00
C5     C     0.05932   0.11887   0.01496   0.00000  Uiso   1.00
C6     C     0.28830   0.20635   0.48196   0.00000  Uiso   1.00
C7     C     0.18996   0.32270   0.25212   0.00000  Uiso   1.00
C8     C     0.14326   0.01061   0.24810   0.00000  Uiso   1.00
C9     C     0.12825   0.16340   0.33321   0.00000  Uiso   1.00
C10    C     0.20537   0.17417   0.16695   0.00000  Uiso   1.00
C11    C     0.10514   0.15818   0.38125   0.00000  Uiso   1.00
C12    C     0.22833   0.18583   0.11926   0.00000  Uiso   1.00
C13    C     0.03407   0.10897   0.44374   0.00000  Uiso   1.00
C14    C     0.31299   0.20500   0.05277   0.00000  Uiso   1.00
C15    C     0.05042   0.12048   0.39900   0.00000  Uiso   1.00
C16    C     0.29220   0.19184   0.09737   0.00000  Uiso   1.00
C17    C     0.14259   0.18601   0.40891   0.00000  Uiso   1.00
C18    C     0.18626   0.19415   0.09524   0.00000  Uiso   1.00
C19    C     0.13278   0.16721   0.45196   0.00000  Uiso   1.00
C20    C     0.20402   0.18982   0.04894   0.00000  Uiso   1.00
C21    C     0.07516   0.13153   0.47030   0.00000  Uiso   1.00
C22    C     0.26890   0.20138   0.02774   0.00000  Uiso   1.00
C23    C     0.17851   0.18128   0.47719   0.00000  Uiso   1.00
C24    C     0.15948   0.17312   0.02333   0.00000  Uiso   1.00
Cu25   Cu    0.10737   0.16108   0.24517   0.00000  Uiso   1.00
Cu26   Cu    0.22596   0.17225   0.25484   0.00000  Uiso   1.00
H27    H     0.01486   0.09252   0.02957   0.00000  Uiso   1.00
H28    H     0.00473   0.21581   0.46526   0.00000  Uiso   1.00
H29    H     0.32577   0.18770   0.11492   0.00000  Uiso   1.00
H30    H     0.02076   0.09951   0.37814   0.00000  Uiso   1.00
H31    H     0.32389   0.08086   0.45719   0.00000  Uiso   1.00
H32    H     0.02961   0.21419   0.03711   0.00000  Uiso   1.00
H33    H     0.08470   0.13216   0.07640   0.00000  Uiso   1.00
H34    H     0.26106   0.19737   0.42162   0.00000  Uiso   1.00
H35    H     0.23491   0.01324   0.25594   0.00000  Uiso   1.00
H36    H     0.09832   0.32006   0.24427   0.00000  Uiso   1.00
H37    H     0.00120   0.20552   0.28443   0.00000  Uiso   1.00
H38    H     0.33210   0.12777   0.21560   0.00000  Uiso   1.00
N39    N     0.31506   0.18068   0.26212   0.00000  Uiso   1.00
N40    N     0.01827   0.15265   0.23788   0.00000  Uiso   1.00
O41    O     0.12815   0.23809   0.24686   0.00000  Uiso   1.00
O42    O     0.20518   0.09524   0.25314   0.00000  Uiso   1.00
O43    O     0.22829   0.24753   0.25503   0.00000  Uiso   1.00
O44    O     0.10504   0.08580   0.24498   0.00000  Uiso   1.00
O45    O     0.08851   0.15930   0.30854   0.00000  Uiso   1.00
O46    O     0.24482   0.17403   0.19146   0.00000  Uiso   1.00
O47    O     0.18866   0.16874   0.31671   0.00000  Uiso   1.00
O48    O     0.14468   0.16460   0.18329   0.00000  Uiso   1.00
S49    S     0.13342   0.23614   0.11869   0.00000  Uiso   1.00
O50    O     0.07495   0.20604   0.14918   0.00000  Uiso   1.00
O51    O     0.16531   0.27954   0.14493   0.00000  Uiso   1.00
O52    O     0.11296   0.26336   0.07915   0.00000  Uiso   1.00
H53    H     0.15229   0.28724   0.06332   0.00000  Uiso   1.00
S54    S     0.18563   0.25156   0.39411   0.00000  Uiso   1.00
O55    O     0.24957   0.25060   0.36423   0.00000  Uiso   1.00
O56    O     0.15024   0.27671   0.36992   0.00000  Uiso   1.00
O57    O     0.19485   0.28861   0.43925   0.00000  Uiso   1.00
H58    H     0.15135   0.28873   0.45685   0.00000  Uiso   1.00
C59    C     0.51498   0.26667   0.25139   0.00000  Uiso   1.00
C60    C     0.48497   0.06666   0.24871   0.00000  Uiso   1.00
C61    C     0.43264   0.14199   0.04177   0.00000  Uiso   1.00
C62    C     0.57698   0.19697   0.45703   0.00000  Uiso   1.00
C63    C     0.39265   0.11887   0.01496   0.00000  Uiso   1.00
C64    C     0.62164   0.20635   0.48196   0.00000  Uiso   1.00
C65    C     0.52330   0.32270   0.25212   0.00000  Uiso   1.00
C66    C     0.47659   0.01061   0.24810   0.00000  Uiso   1.00
C67    C     0.46158   0.16340   0.33321   0.00000  Uiso   1.00
C68    C     0.53871   0.17417   0.16695   0.00000  Uiso   1.00
C69    C     0.43848   0.15818   0.38125   0.00000  Uiso   1.00
C70    C     0.56167   0.18583   0.11926   0.00000  Uiso   1.00
C71    C     0.36740   0.10897   0.44374   0.00000  Uiso   1.00
C72    C     0.64633   0.20500   0.05277   0.00000  Uiso   1.00
C73    C     0.38375   0.12048   0.39900   0.00000  Uiso   1.00
C74    C     0.62554   0.19184   0.09737   0.00000  Uiso   1.00
C75    C     0.47592   0.18601   0.40891   0.00000  Uiso   1.00
C76    C     0.51960   0.19415   0.09524   0.00000  Uiso   1.00
C77    C     0.46612   0.16721   0.45196   0.00000  Uiso   1.00
C78    C     0.53735   0.18982   0.04894   0.00000  Uiso   1.00
C79    C     0.40849   0.13153   0.47030   0.00000  Uiso   1.00
C80    C     0.60224   0.20138   0.02774   0.00000  Uiso   1.00
C81    C     0.51184   0.18128   0.47719   0.00000  Uiso   1.00
C82    C     0.49281   0.17312   0.02333   0.00000  Uiso   1.00
Cu83   Cu    0.44071   0.16108   0.24517   0.00000  Uiso   1.00
Cu84   Cu    0.55929   0.17225   0.25484   0.00000  Uiso   1.00
H85    H     0.34820   0.09252   0.02957   0.00000  Uiso   1.00
H86    H     0.33806   0.21581   0.46526   0.00000  Uiso   1.00
H87    H     0.65910   0.18770   0.11492   0.00000  Uiso   1.00
H88    H     0.35410   0.09951   0.37814   0.00000  Uiso   1.00
H89    H     0.65722   0.08086   0.45719   0.00000  Uiso   1.00
H90    H     0.36295   0.21419   0.03711   0.00000  Uiso   1.00
H91    H     0.41804   0.13216   0.07640   0.00000  Uiso   1.00
H92    H     0.59439   0.19737   0.42162   0.00000  Uiso   1.00
H93    H     0.56824   0.01324   0.25594   0.00000  Uiso   1.00
H94    H     0.43165   0.32006   0.24427   0.00000  Uiso   1.00
H95    H     0.33454   0.20552   0.28443   0.00000  Uiso   1.00
H96    H     0.66544   0.12777   0.21560   0.00000  Uiso   1.00
N97    N     0.64839   0.18068   0.26212   0.00000  Uiso   1.00
N98    N     0.35161   0.15265   0.23788   0.00000  Uiso   1.00
O99    O     0.46148   0.23809   0.24686   0.00000  Uiso   1.00
O100   O     0.53852   0.09524   0.25314   0.00000  Uiso   1.00
O101   O     0.56163   0.24753   0.25503   0.00000  Uiso   1.00
O102   O     0.43837   0.08580   0.24498   0.00000  Uiso   1.00
O103   O     0.42185   0.15930   0.30854   0.00000  Uiso   1.00
O104   O     0.57815   0.17403   0.19146   0.00000  Uiso   1.00
O105   O     0.52199   0.16874   0.31671   0.00000  Uiso   1.00
O106   O     0.47801   0.16460   0.18329   0.00000  Uiso   1.00
S107   S     0.46676   0.23614   0.11869   0.00000  Uiso   1.00
O108   O     0.40828   0.20604   0.14918   0.00000  Uiso   1.00
O109   O     0.49864   0.27954   0.14493   0.00000  Uiso   1.00
O110   O     0.44630   0.26336   0.07915   0.00000  Uiso   1.00
H111   H     0.48562   0.28724   0.06332   0.00000  Uiso   1.00
S112   S     0.51896   0.25156   0.39411   0.00000  Uiso   1.00
O113   O     0.58290   0.25060   0.36423   0.00000  Uiso   1.00
O114   O     0.48358   0.27671   0.36992   0.00000  Uiso   1.00
O115   O     0.52818   0.28861   0.43925   0.00000  Uiso   1.00
H116   H     0.48469   0.28873   0.45685   0.00000  Uiso   1.00
C117   C     0.84832   0.26667   0.25139   0.00000  Uiso   1.00
C118   C     0.81830   0.06666   0.24871   0.00000  Uiso   1.00
C119   C     0.76597   0.14199   0.04177   0.00000  Uiso   1.00
C120   C     0.91032   0.19697   0.45703   0.00000  Uiso   1.00
C121   C     0.72598   0.11887   0.01496   0.00000  Uiso   1.00
C122   C     0.95497   0.20635   0.48196   0.00000  Uiso   1.00
C123   C     0.85663   0.32270   0.25212   0.00000  Uiso   1.00
C124   C     0.80992   0.01061   0.24810   0.00000  Uiso   1.00
C125   C     0.79491   0.16340   0.33321   0.00000  Uiso   1.00
C126   C     0.87204   0.17417   0.16695   0.00000  Uiso   1.00
C127   C     0.77181   0.15818   0.38125   0.00000  Uiso   1.00
C128   C     0.89500   0.18583   0.11926   0.00000  Uiso   1.00
C129   C     0.70073   0.10897   0.44374   0.00000  Uiso   1.00
C130   C     0.97966   0.20500   0.05277   0.00000  Uiso   1.00
C131   C     0.71709   0.12048   0.39900   0.00000  Uiso   1.00
C132   C     0.95887   0.19184   0.09737   0.00000  Uiso   1.00
C133   C     0.80925   0.18601   0.40891   0.00000  Uiso   1.00
C134   C     0.85293   0.19415   0.09524   0.00000  Uiso   1.00
C135   C     0.79945   0.16721   0.45196   0.00000  Uiso   1.00
C136   C     0.87068   0.18982   0.04894   0.00000  Uiso   1.00
C137   C     0.74182   0.13153   0.47030   0.00000  Uiso   1.00
C138   C     0.93557   0.20138   0.02774   0.00000  Uiso   1.00
C139   C     0.84518   0.18128   0.47719   0.00000  Uiso   1.00
C140   C     0.82615   0.17312   0.02333   0.00000  Uiso   1.00
Cu141  Cu    0.77404   0.16108   0.24517   0.00000  Uiso   1.00
Cu142  Cu    0.89263   0.17225   0.25484   0.00000  Uiso   1.00
H143   H     0.68153   0.09252   0.02957   0.00000  Uiso   1.00
H144   H     0.67140   0.21581   0.46526   0.00000  Uiso   1.00
H145   H     0.99243   0.18770   0.11492   0.00000  Uiso   1.00
H146   H     0.68743   0.09951   0.37814   0.00000  Uiso   1.00
H147   H     0.99055   0.08086   0.45719   0.00000  Uiso   1.00
H148   H     0.69628   0.21419   0.03711   0.00000  Uiso   1.00
H149   H     0.75137   0.13216   0.07640   0.00000  Uiso   1.00
H150   H     0.92772   0.19737   0.42162   0.00000  Uiso   1.00
H151   H     0.90157   0.01324   0.25594   0.00000  Uiso   1.00
H152   H     0.76499   0.32006   0.24427   0.00000  Uiso   1.00
H153   H     0.66787   0.20552   0.28443   0.00000  Uiso   1.00
H154   H     0.99877   0.12777   0.21560   0.00000  Uiso   1.00
N155   N     0.98173   0.18068   0.26212   0.00000  Uiso   1.00
N156   N     0.68494   0.15265   0.23788   0.00000  Uiso   1.00
O157   O     0.79482   0.23809   0.24686   0.00000  Uiso   1.00
O158   O     0.87185   0.09524   0.25314   0.00000  Uiso   1.00
O159   O     0.89496   0.24753   0.25503   0.00000  Uiso   1.00
O160   O     0.77171   0.08580   0.24498   0.00000  Uiso   1.00
O161   O     0.75518   0.15930   0.30854   0.00000  Uiso   1.00
O162   O     0.91149   0.17403   0.19146   0.00000  Uiso   1.00
O163   O     0.85532   0.16874   0.31671   0.00000  Uiso   1.00
O164   O     0.81134   0.16460   0.18329   0.00000  Uiso   1.00
S165   S     0.80009   0.23614   0.11869   0.00000  Uiso   1.00
O166   O     0.74162   0.20604   0.14918   0.00000  Uiso   1.00
O167   O     0.83197   0.27954   0.14493   0.00000  Uiso   1.00
O168   O     0.77963   0.26336   0.07915   0.00000  Uiso   1.00
H169   H     0.81895   0.28724   0.06332   0.00000  Uiso   1.00
S170   S     0.85230   0.25156   0.39411   0.00000  Uiso   1.00
O171   O     0.91623   0.25060   0.36423   0.00000  Uiso   1.00
O172   O     0.81691   0.27671   0.36992   0.00000  Uiso   1.00
O173   O     0.86152   0.28861   0.43925   0.00000  Uiso   1.00
H174   H     0.81802   0.28873   0.45685   0.00000  Uiso   1.00
C175   C     0.18165   0.60000   0.25139   0.00000  Uiso   1.00
C176   C     0.15163   0.40000   0.24871   0.00000  Uiso   1.00
C177   C     0.09930   0.47533   0.04177   0.00000  Uiso   1.00
C178   C     0.24365   0.53030   0.45703   0.00000  Uiso   1.00
C179   C     0.05932   0.45221   0.01496   0.00000  Uiso   1.00
C180   C     0.28830   0.53968   0.48196   0.00000  Uiso   1.00
C181   C     0.18996   0.65603   0.25212   0.00000  Uiso   1.00
C182   C     0.14326   0.34395   0.24810   0.00000  Uiso   1.00
C183   C     0.12825   0.49673   0.33321   0.00000  Uiso   1.00
C184   C     0.20537   0.50750   0.16695   0.00000  Uiso   1.00
C185   C     0.10514   0.49151   0.38125   0.00000  Uiso   1.00
C186   C     0.22833   0.51917   0.11926   0.00000  Uiso   1.00
C187   C     0.03407   0.44230   0.44374   0.00000  Uiso   1.00
C188   C     0.31299   0.53833   0.05277   0.00000  Uiso   1.00
C189   C     0.05042   0.45382   0.39900   0.00000  Uiso   1.00
C190   C     0.29220   0.52518   0.09737   0.00000  Uiso   1.00
C191   C     0.14259   0.51935   0.40891   0.00000  Uiso   1.00
C192   C     0.18626   0.52748   0.09524   0.00000  Uiso   1.00
C193   C     0.13278   0.50054   0.45196   0.00000  Uiso   1.00
C194   C     0.20402   0.52315   0.04894   0.00000  Uiso   1.00
C195   C     0.07516   0.46486   0.47030   0.00000  Uiso   1.00
C196   C     0.26890   0.53471   0.02774   0.00000  Uiso   1.00
C197   C     0.17851   0.51461   0.47719   0.00000  Uiso   1.00
C198   C     0.15948   0.50645   0.02333   0.00000  Uiso   1.00
Cu199  Cu    0.10737   0.49441   0.24517   0.00000  Uiso   1.00
Cu200  Cu    0.22596   0.50559   0.25484   0.00000  Uiso   1.00
H201   H     0.01486   0.42585   0.02957   0.00000  Uiso   1.00
H202   H     0.00473   0.54915   0.46526   0.00000  Uiso   1.00
H203   H     0.32577   0.52103   0.11492   0.00000  Uiso   1.00
H204   H     0.02076   0.43284   0.37814   0.00000  Uiso   1.00
H205   H     0.32389   0.41419   0.45719   0.00000  Uiso   1.00
H206   H     0.02961   0.54752   0.03711   0.00000  Uiso   1.00
H207   H     0.08470   0.46549   0.07640   0.00000  Uiso   1.00
H208   H     0.26106   0.53071   0.42162   0.00000  Uiso   1.00
H209   H     0.23491   0.34658   0.25594   0.00000  Uiso   1.00
H210   H     0.09832   0.65340   0.24427   0.00000  Uiso   1.00
H211   H     0.00120   0.53885   0.28443   0.00000  Uiso   1.00
H212   H     0.33210   0.46110   0.21560   0.00000  Uiso   1.00
N213   N     0.31506   0.51401   0.26212   0.00000  Uiso   1.00
N214   N     0.01827   0.48599   0.23788   0.00000  Uiso   1.00
O215   O     0.12815   0.57142   0.24686   0.00000  Uiso   1.00
O216   O     0.20518   0.42858   0.25314   0.00000  Uiso   1.00
O217   O     0.22829   0.58086   0.25503   0.00000  Uiso   1.00
O218   O     0.10504   0.41914   0.24498   0.00000  Uiso   1.00
O219   O     0.08851   0.49263   0.30854   0.00000  Uiso   1.00
O220   O     0.24482   0.50737   0.19146   0.00000  Uiso   1.00
O221   O     0.18866   0.50207   0.31671   0.00000  Uiso   1.00
O222   O     0.14468   0.49793   0.18329   0.00000  Uiso   1.00
S223   S     0.13342   0.56947   0.11869   0.00000  Uiso   1.00
O224   O     0.07495   0.53938   0.14918   0.00000  Uiso   1.00
O225   O     0.16531   0.61288   0.14493   0.00000  Uiso   1.00
O226   O     0.11296   0.59670   0.07915   0.00000  Uiso   1.00
H227   H     0.15229   0.62057   0.06332   0.00000  Uiso   1.00
S228   S     0.18563   0.58489   0.39411   0.00000  Uiso   1.00
O229   O     0.24957   0.58393   0.36423   0.00000  Uiso   1.00
O230   O     0.15024   0.61004   0.36992   0.00000  Uiso   1.00
O231   O     0.19485   0.62194   0.43925   0.00000  Uiso   1.00
H232   H     0.15135   0.62206   0.45685   0.00000  Uiso   1.00
C233   C     0.51498   0.60000   0.25139   0.00000  Uiso   1.00
C234   C     0.48497   0.40000   0.24871   0.00000  Uiso   1.00
C235   C     0.43264   0.47533   0.04177   0.00000  Uiso   1.00
C236   C     0.57698   0.53030   0.45703   0.00000  Uiso   1.00
C237   C     0.39265   0.45221   0.01496   0.00000  Uiso   1.00
C238   C     0.62164   0.53968   0.48196   0.00000  Uiso   1.00
C239   C     0.52330   0.65603   0.25212   0.00000  Uiso   1.00
C240   C     0.47659   0.34395   0.24810   0.00000  Uiso   1.00
C241   C     0.46158   0.49673   0.33321   0.00000  Uiso   1.00
C242   C     0.53871   0.50750   0.16695   0.00000  Uiso   1.00
C243   C     0.43848   0.49151   0.38125   0.00000  Uiso   1.00
C244   C     0.56167   0.51917   0.11926   0.00000  Uiso   1.00
C245   C     0.36740   0.44230   0.44374   0.00000  Uiso   1.00
C246   C     0.64633   0.53833   0.05277   0.00000  Uiso   1.00
C247   C     0.38375   0.45382   0.39900   0.00000  Uiso   1.00
C248   C     0.62554   0.52518   0.09737   0.00000  Uiso   1.00
C249   C     0.47592   0.51935   0.40891   0.00000  Uiso   1.00
C250   C     0.51960   0.52748   0.09524   0.00000  Uiso   1.00
C251   C     0.46612   0.50054   0.45196   0.00000  Uiso   1.00
C252   C     0.53735   0.52315   0.04894   0.00000  Uiso   1.00
C253   C     0.40849   0.46486   0.47030   0.00000  Uiso   1.00
C254   C     0.60224   0.53471   0.02774   0.00000  Uiso   1.00
C255   C     0.51184   0.51461   0.47719   0.00000  Uiso   1.00
C256   C     0.49281   0.50645   0.02333   0.00000  Uiso   1.00
Cu257  Cu    0.44071   0.49441   0.24517   0.00000  Uiso   1.00
Cu258  Cu    0.55929   0.50559   0.25484   0.00000  Uiso   1.00
H259   H     0.34820   0.42585   0.02957   0.00000  Uiso   1.00
H260   H     0.33806   0.54915   0.46526   0.00000  Uiso   1.00
H261   H     0.65910   0.52103   0.11492   0.00000  Uiso   1.00
H262   H     0.35410   0.43284   0.37814   0.00000  Uiso   1.00
H263   H     0.65722   0.41419   0.45719   0.00000  Uiso   1.00
H264   H     0.36295   0.54752   0.03711   0.00000  Uiso   1.00
H265   H     0.41804   0.46549   0.07640   0.00000  Uiso   1.00
H266   H     0.59439   0.53071   0.42162   0.00000  Uiso   1.00
H267   H     0.56824   0.34658   0.25594   0.00000  Uiso   1.00
H268   H     0.43165   0.65340   0.24427   0.00000  Uiso   1.00
H269   H     0.33454   0.53885   0.28443   0.00000  Uiso   1.00
H270   H     0.66544   0.46110   0.21560   0.00000  Uiso   1.00
N271   N     0.64839   0.51401   0.26212   0.00000  Uiso   1.00
N272   N     0.35161   0.48599   0.23788   0.00000  Uiso   1.00
O273   O     0.46148   0.57142   0.24686   0.00000  Uiso   1.00
O274   O     0.53852   0.42858   0.25314   0.00000  Uiso   1.00
O275   O     0.56163   0.58086   0.25503   0.00000  Uiso   1.00
O276   O     0.43837   0.41914   0.24498   0.00000  Uiso   1.00
O277   O     0.42185   0.49263   0.30854   0.00000  Uiso   1.00
O278   O     0.57815   0.50737   0.19146   0.00000  Uiso   1.00
O279   O     0.52199   0.50207   0.31671   0.00000  Uiso   1.00
O280   O     0.47801   0.49793   0.18329   0.00000  Uiso   1.00
S281   S     0.46676   0.56947   0.11869   0.00000  Uiso   1.00
O282   O     0.40828   0.53938   0.14918   0.00000  Uiso   1.00
O283   O     0.49864   0.61288   0.14493   0.00000  Uiso   1.00
O284   O     0.44630   0.59670   0.07915   0.00000  Uiso   1.00
H285   H     0.48562   0.62057   0.06332   0.00000  Uiso   1.00
S286   S     0.51896   0.58489   0.39411   0.00000  Uiso   1.00
O287   O     0.58290   0.58393   0.36423   0.00000  Uiso   1.00
O288   O     0.48358   0.61004   0.36992   0.00000  Uiso   1.00
O289   O     0.52818   0.62194   0.43925   0.00000  Uiso   1.00
H290   H     0.48469   0.62206   0.45685   0.00000  Uiso   1.00
C291   C     0.84832   0.60000   0.25139   0.00000  Uiso   1.00
C292   C     0.81830   0.40000   0.24871   0.00000  Uiso   1.00
C293   C     0.76597   0.47533   0.04177   0.00000  Uiso   1.00
C294   C     0.91032   0.53030   0.45703   0.00000  Uiso   1.00
C295   C     0.72598   0.45221   0.01496   0.00000  Uiso   1.00
C296   C     0.95497   0.53968   0.48196   0.00000  Uiso   1.00
C297   C     0.85663   0.65603   0.25212   0.00000  Uiso   1.00
C298   C     0.80992   0.34395   0.24810   0.00000  Uiso   1.00
C299   C     0.79491   0.49673   0.33321   0.00000  Uiso   1.00
C300   C     0.87204   0.50750   0.16695   0.00000  Uiso   1.00
C301   C     0.77181   0.49151   0.38125   0.00000  Uiso   1.00
C302   C     0.89500   0.51917   0.11926   0.00000  Uiso   1.00
C303   C     0.70073   0.44230   0.44374   0.00000  Uiso   1.00
C304   C     0.97966   0.53833   0.05277   0.00000  Uiso   1.00
C305   C     0.71709   0.45382   0.39900   0.00000  Uiso   1.00
C306   C     0.95887   0.52518   0.09737   0.00000  Uiso   1.00
C307   C     0.80925   0.51935   0.40891   0.00000  Uiso   1.00
C308   C     0.85293   0.52748   0.09524   0.00000  Uiso   1.00
C309   C     0.79945   0.50054   0.45196   0.00000  Uiso   1.00
C310   C     0.87068   0.52315   0.04894   0.00000  Uiso   1.00
C311   C     0.74182   0.46486   0.47030   0.00000  Uiso   1.00
C312   C     0.93557   0.53471   0.02774   0.00000  Uiso   1.00
C313   C     0.84518   0.51461   0.47719   0.00000  Uiso   1.00
C314   C     0.82615   0.50645   0.02333   0.00000  Uiso   1.00
Cu315  Cu    0.77404   0.49441   0.24517   0.00000  Uiso   1.00
Cu316  Cu    0.89263   0.50559   0.25484   0.00000  Uiso   1.00
H317   H     0.68153   0.42585   0.02957   0.00000  Uiso   1.00
H318   H     0.67140   0.54915   0.46526   0.00000  Uiso   1.00
H319   H     0.99243   0.52103   0.11492   0.00000  Uiso   1.00
H320   H     0.68743   0.43284   0.37814   0.00000  Uiso   1.00
H321   H     0.99055   0.41419   0.45719   0.00000  Uiso   1.00
H322   H     0.69628   0.54752   0.03711   0.00000  Uiso   1.00
H323   H     0.75137   0.46549   0.07640   0.00000  Uiso   1.00
H324   H     0.92772   0.53071   0.42162   0.00000  Uiso   1.00
H325   H     0.90157   0.34658   0.25594   0.00000  Uiso   1.00
H326   H     0.76499   0.65340   0.24427   0.00000  Uiso   1.00
H327   H     0.66787   0.53885   0.28443   0.00000  Uiso   1.00
H328   H     0.99877   0.46110   0.21560   0.00000  Uiso   1.00
N329   N     0.98173   0.51401   0.26212   0.00000  Uiso   1.00
N330   N     0.68494   0.48599   0.23788   0.00000  Uiso   1.00
O331   O     0.79482   0.57142   0.24686   0.00000  Uiso   1.00
O332   O     0.87185   0.42858   0.25314   0.00000  Uiso   1.00
O333   O     0.89496   0.58086   0.25503   0.00000  Uiso   1.00
O334   O     0.77171   0.41914   0.24498   0.00000  Uiso   1.00
O335   O     0.75518   0.49263   0.30854   0.00000  Uiso   1.00
O336   O     0.91149   0.50737   0.19146   0.00000  Uiso   1.00
O337   O     0.85532   0.50207   0.31671   0.00000  Uiso   1.00
O338   O     0.81134   0.49793   0.18329   0.00000  Uiso   1.00
S339   S     0.80009   0.56947   0.11869   0.00000  Uiso   1.00
O340   O     0.74162   0.53938   0.14918   0.00000  Uiso   1.00
O341   O     0.83197   0.61288   0.14493   0.00000  Uiso   1.00
O342   O     0.77963   0.59670   0.07915   0.00000  Uiso   1.00
H343   H     0.81895   0.62057   0.06332   0.00000  Uiso   1.00
S344   S     0.85230   0.58489   0.39411   0.00000  Uiso   1.00
O345   O     0.91623   0.58393   0.36423   0.00000  Uiso   1.00
O346   O     0.81691   0.61004   0.36992   0.00000  Uiso   1.00
O347   O     0.86152   0.62194   0.43925   0.00000  Uiso   1.00
H348   H     0.81802   0.62206   0.45685   0.00000  Uiso   1.00
C349   C     0.18165   0.93333   0.25139   0.00000  Uiso   1.00
C350   C     0.15163   0.73333   0.24871   0.00000  Uiso   1.00
C351   C     0.09930   0.80866   0.04177   0.00000  Uiso   1.00
C352   C     0.24365   0.86364   0.45703   0.00000  Uiso   1.00
C353   C     0.05932   0.78554   0.01496   0.00000  Uiso   1.00
C354   C     0.28830   0.87301   0.48196   0.00000  Uiso   1.00
C355   C     0.18996   0.98937   0.25212   0.00000  Uiso   1.00
C356   C     0.14326   0.67728   0.24810   0.00000  Uiso   1.00
C357   C     0.12825   0.83007   0.33321   0.00000  Uiso   1.00
C358   C     0.20537   0.84083   0.16695   0.00000  Uiso   1.00
C359   C     0.10514   0.82484   0.38125   0.00000  Uiso   1.00
C360   C     0.22833   0.85250   0.11926   0.00000  Uiso   1.00
C361   C     0.03407   0.77564   0.44374   0.00000  Uiso   1.00
C362   C     0.31299   0.87167   0.05277   0.00000  Uiso   1.00
C363   C     0.05042   0.78715   0.39900   0.00000  Uiso   1.00
C364   C     0.29220   0.85851   0.09737   0.00000  Uiso   1.00
C365   C     0.14259   0.85268   0.40891   0.00000  Uiso   1.00
C366   C     0.18626   0.86082   0.09524   0.00000  Uiso   1.00
C367   C     0.13278   0.83387   0.45196   0.00000  Uiso   1.00
C368   C     0.20402   0.85649   0.04894   0.00000  Uiso   1.00
C369   C     0.07516   0.79820   0.47030   0.00000  Uiso   1.00
C370   C     0.26890   0.86805   0.02774   0.00000  Uiso   1.00
C371   C     0.17851   0.84795   0.47719   0.00000  Uiso   1.00
C372   C     0.15948   0.83978   0.02333   0.00000  Uiso   1.00
Cu373  Cu    0.10737   0.82775   0.24517   0.00000  Uiso   1.00
Cu374  Cu    0.22596   0.83892   0.25484   0.00000  Uiso   1.00
H375   H     0.01486   0.75919   0.02957   0.00000  Uiso   1.00
H376   H     0.00473   0.88248   0.46526   0.00000  Uiso   1.00
H377   H     0.32577   0.85437   0.11492   0.00000  Uiso   1.00
H378   H     0.02076   0.76618   0.37814   0.00000  Uiso   1.00
H379   H     0.32389   0.74753   0.45719   0.00000  Uiso   1.00
H380   H     0.02961   0.88085   0.03711   0.00000  Uiso   1.00
H381   H     0.08470   0.79883   0.07640   0.00000  Uiso   1.00
H382   H     0.26106   0.86404   0.42162   0.00000  Uiso   1.00
H383   H     0.23491   0.67991   0.25594   0.00000  Uiso   1.00
H384   H     0.09832   0.98673   0.24427   0.00000  Uiso   1.00
H385   H     0.00120   0.87219   0.28443   0.00000  Uiso   1.00
H386   H     0.33210   0.79443   0.21560   0.00000  Uiso   1.00
N387   N     0.31506   0.84735   0.26212   0.00000  Uiso   1.00
N388   N     0.01827   0.81932   0.23788   0.00000  Uiso   1.00
O389   O     0.12815   0.90476   0.24686   0.00000  Uiso   1.00
O390   O     0.20518   0.76191   0.25314   0.00000  Uiso   1.00
O391   O     0.22829   0.91420   0.25503   0.00000  Uiso   1.00
O392   O     0.10504   0.75247   0.24498   0.00000  Uiso   1.00
O393   O     0.08851   0.82597   0.30854   0.00000  Uiso   1.00
O394   O     0.24482   0.84070   0.19146   0.00000  Uiso   1.00
O395   O     0.18866   0.83540   0.31671   0.00000  Uiso   1.00
O396   O     0.14468   0.83126   0.18329   0.00000  Uiso   1.00
S397   S     0.13342   0.90281   0.11869   0.00000  Uiso   1.00
O398   O     0.07495   0.87271   0.14918   0.00000  Uiso   1.00
O399   O     0.16531   0.94621   0.14493   0.00000  Uiso   1.00
O400   O     0.11296   0.93003   0.07915   0.00000  Uiso   1.00
H401   H     0.15229   0.95391   0.06332   0.00000  Uiso   1.00
S402   S     0.18563   0.91823   0.39411   0.00000  Uiso   1.00
O403   O     0.24957   0.91727   0.36423   0.00000  Uiso   1.00
O404   O     0.15024   0.94337   0.36992   0.00000  Uiso   1.00
O405   O     0.19485   0.95527   0.43925   0.00000  Uiso   1.00
H406   H     0.15135   0.95540   0.45685   0.00000  Uiso   1.00
C407   C     0.51498   0.93333   0.25139   0.00000  Uiso   1.00
C408   C     0.48497   0.73333   0.24871   0.00000  Uiso   1.00
C409   C     0.43264   0.80866   0.04177   0.00000  Uiso   1.00
C410   C     0.57698   0.86364   0.45703   0.00000  Uiso   1.00
C411   C     0.39265   0.78554   0.01496   0.00000  Uiso   1.00
C412   C     0.62164   0.87301   0.48196   0.00000  Uiso   1.00
C413   C     0.52330   0.98937   0.25212   0.00000  Uiso   1.00
C414   C     0.47659   0.67728   0.24810   0.00000  Uiso   1.00
C415   C     0.46158   0.83007   0.33321   0.00000  Uiso   1.00
C416   C     0.53871   0.84083   0.16695   0.00000  Uiso   1.00
C417   C     0.43848   0.82484   0.38125   0.00000  Uiso   1.00
C418   C     0.56167   0.85250   0.11926   0.00000  Uiso   1.00
C419   C     0.36740   0.77564   0.44374   0.00000  Uiso   1.00
C420   C     0.64633   0.87167   0.05277   0.00000  Uiso   1.00
C421   C     0.38375   0.78715   0.39900   0.00000  Uiso   1.00
C422   C     0.62554   0.85851   0.09737   0.00000  Uiso   1.00
C423   C     0.47592   0.85268   0.40891   0.00000  Uiso   1.00
C424   C     0.51960   0.86082   0.09524   0.00000  Uiso   1.00
C425   C     0.46612   0.83387   0.45196   0.00000  Uiso   1.00
C426   C     0.53735   0.85649   0.04894   0.00000  Uiso   1.00
C427   C     0.40849   0.79820   0.47030   0.00000  Uiso   1.00
C428   C     0.60224   0.86805   0.02774   0.00000  Uiso   1.00
C429   C     0.51184   0.84795   0.47719   0.00000  Uiso   1.00
C430   C     0.49281   0.83978   0.02333   0.00000  Uiso   1.00
Cu431  Cu    0.44071   0.82775   0.24517   0.00000  Uiso   1.00
Cu432  Cu    0.55929   0.83892   0.25484   0.00000  Uiso   1.00
H433   H     0.34820   0.75919   0.02957   0.00000  Uiso   1.00
H434   H     0.33806   0.88248   0.46526   0.00000  Uiso   1.00
H435   H     0.65910   0.85437   0.11492   0.00000  Uiso   1.00
H436   H     0.35410   0.76618   0.37814   0.00000  Uiso   1.00
H437   H     0.65722   0.74753   0.45719   0.00000  Uiso   1.00
H438   H     0.36295   0.88085   0.03711   0.00000  Uiso   1.00
H439   H     0.41804   0.79883   0.07640   0.00000  Uiso   1.00
H440   H     0.59439   0.86404   0.42162   0.00000  Uiso   1.00
H441   H     0.56824   0.67991   0.25594   0.00000  Uiso   1.00
H442   H     0.43165   0.98673   0.24427   0.00000  Uiso   1.00
H443   H     0.33454   0.87219   0.28443   0.00000  Uiso   1.00
H444   H     0.66544   0.79443   0.21560   0.00000  Uiso   1.00
N445   N     0.64839   0.84735   0.26212   0.00000  Uiso   1.00
N446   N     0.35161   0.81932   0.23788   0.00000  Uiso   1.00
O447   O     0.46148   0.90476   0.24686   0.00000  Uiso   1.00
O448   O     0.53852   0.76191   0.25314   0.00000  Uiso   1.00
O449   O     0.56163   0.91420   0.25503   0.00000  Uiso   1.00
O450   O     0.43837   0.75247   0.24498   0.00000  Uiso   1.00
O451   O     0.42185   0.82597   0.30854   0.00000  Uiso   1.00
O452   O     0.57815   0.84070   0.19146   0.00000  Uiso   1.00
O453   O     0.52199   0.83540   0.31671   0.00000  Uiso   1.00
O454   O     0.47801   0.83126   0.18329   0.00000  Uiso   1.00
S455   S     0.46676   0.90281   0.11869   0.00000  Uiso   1.00
O456   O     0.40828   0.87271   0.14918   0.00000  Uiso   1.00
O457   O     0.49864   0.94621   0.14493   0.00000  Uiso   1.00
O458   O     0.44630   0.93003   0.07915   0.00000  Uiso   1.00
H459   H     0.48562   0.95391   0.06332   0.00000  Uiso   1.00
S460   S     0.51896   0.91823   0.39411   0.00000  Uiso   1.00
O461   O     0.58290   0.91727   0.36423   0.00000  Uiso   1.00
O462   O     0.48358   0.94337   0.36992   0.00000  Uiso   1.00
O463   O     0.52818   0.95527   0.43925   0.00000  Uiso   1.00
H464   H     0.48469   0.95540   0.45685   0.00000  Uiso   1.00
C465   C     0.84832   0.93333   0.25139   0.00000  Uiso   1.00
C466   C     0.81830   0.73333   0.24871   0.00000  Uiso   1.00
C467   C     0.76597   0.80866   0.04177   0.00000  Uiso   1.00
C468   C     0.91032   0.86364   0.45703   0.00000  Uiso   1.00
C469   C     0.72598   0.78554   0.01496   0.00000  Uiso   1.00
C470   C     0.95497   0.87301   0.48196   0.00000  Uiso   1.00
C471   C     0.85663   0.98937   0.25212   0.00000  Uiso   1.00
C472   C     0.80992   0.67728   0.24810   0.00000  Uiso   1.00
C473   C     0.79491   0.83007   0.33321   0.00000  Uiso   1.00
C474   C     0.87204   0.84083   0.16695   0.00000  Uiso   1.00
C475   C     0.77181   0.82484   0.38125   0.00000  Uiso   1.00
C476   C     0.89500   0.85250   0.11926   0.00000  Uiso   1.00
C477   C     0.70073   0.77564   0.44374   0.00000  Uiso   1.00
C478   C     0.97966   0.87167   0.05277   0.00000  Uiso   1.00
C479   C     0.71709   0.78715   0.39900   0.00000  Uiso   1.00
C480   C     0.95887   0.85851   0.09737   0.00000  Uiso   1.00
C481   C     0.80925   0.85268   0.40891   0.00000  Uiso   1.00
C482   C     0.85293   0.86082   0.09524   0.00000  Uiso   1.00
C483   C     0.79945   0.83387   0.45196   0.00000  Uiso   1.00
C484   C     0.87068   0.85649   0.04894   0.00000  Uiso   1.00
C485   C     0.74182   0.79820   0.47030   0.00000  Uiso   1.00
C486   C     0.93557   0.86805   0.02774   0.00000  Uiso   1.00
C487   C     0.84518   0.84795   0.47719   0.00000  Uiso   1.00
C488   C     0.82615   0.83978   0.02333   0.00000  Uiso   1.00
Cu489  Cu    0.77404   0.82775   0.24517   0.00000  Uiso   1.00
Cu490  Cu    0.89263   0.83892   0.25484   0.00000  Uiso   1.00
H491   H     0.68153   0.75919   0.02957   0.00000  Uiso   1.00
H492   H     0.67140   0.88248   0.46526   0.00000  Uiso   1.00
H493   H     0.99243   0.85437   0.11492   0.00000  Uiso   1.00
H494   H     0.68743   0.76618   0.37814   0.00000  Uiso   1.00
H495   H     0.99055   0.74753   0.45719   0.00000  Uiso   1.00
H496   H     0.69628   0.88085   0.03711   0.00000  Uiso   1.00
H497   H     0.75137   0.79883   0.07640   0.00000  Uiso   1.00
H498   H     0.92772   0.86404   0.42162   0.00000  Uiso   1.00
H499   H     0.90157   0.67991   0.25594   0.00000  Uiso   1.00
H500   H     0.76499   0.98673   0.24427   0.00000  Uiso   1.00
H501   H     0.66787   0.87219   0.28443   0.00000  Uiso   1.00
H502   H     0.99877   0.79443   0.21560   0.00000  Uiso   1.00
N503   N     0.98173   0.84735   0.26212   0.00000  Uiso   1.00
N504   N     0.68494   0.81932   0.23788   0.00000  Uiso   1.00
O505   O     0.79482   0.90476   0.24686   0.00000  Uiso   1.00
O506   O     0.87185   0.76191   0.25314   0.00000  Uiso   1.00
O507   O     0.89496   0.91420   0.25503   0.00000  Uiso   1.00
O508   O     0.77171   0.75247   0.24498   0.00000  Uiso   1.00
O509   O     0.75518   0.82597   0.30854   0.00000  Uiso   1.00
O510   O     0.91149   0.84070   0.19146   0.00000  Uiso   1.00
O511   O     0.85532   0.83540   0.31671   0.00000  Uiso   1.00
O512   O     0.81134   0.83126   0.18329   0.00000  Uiso   1.00
S513   S     0.80009   0.90281   0.11869   0.00000  Uiso   1.00
O514   O     0.74162   0.87271   0.14918   0.00000  Uiso   1.00
O515   O     0.83197   0.94621   0.14493   0.00000  Uiso   1.00
O516   O     0.77963   0.93003   0.07915   0.00000  Uiso   1.00
H517   H     0.81895   0.95391   0.06332   0.00000  Uiso   1.00
S518   S     0.85230   0.91823   0.39411   0.00000  Uiso   1.00
O519   O     0.91623   0.91727   0.36423   0.00000  Uiso   1.00
O520   O     0.81691   0.94337   0.36992   0.00000  Uiso   1.00
O521   O     0.86152   0.95527   0.43925   0.00000  Uiso   1.00
H522   H     0.81802   0.95540   0.45685   0.00000  Uiso   1.00
C523   C     0.18165   0.26667   0.75139   0.00000  Uiso   1.00
C524   C     0.15163   0.06666   0.74871   0.00000  Uiso   1.00
C525   C     0.09930   0.14199   0.54177   0.00000  Uiso   1.00
C526   C     0.24365   0.19697   0.95703   0.00000  Uiso   1.00
C527   C     0.05932   0.11887   0.51496   0.00000  Uiso   1.00
C528   C     0.28830   0.20635   0.98196   0.00000  Uiso   1.00
C529   C     0.18996   0.32270   0.75212   0.00000  Uiso   1.00
C530   C     0.14326   0.01061   0.74810   0.00000  Uiso   1.00
C531   C     0.12825   0.16340   0.83321   0.00000  Uiso   1.00
C532   C     0.20537   0.17417   0.66695   0.00000  Uiso   1.00
C533   C     0.10514   0.15818   0.88125   0.00000  Uiso   1.00
C534   C     0.22833   0.18583   0.61926   0.00000  Uiso   1.00
C535   C     0.03407   0.10897   0.94374   0.00000  Uiso   1.00
C536   C     0.31299   0.20500   0.55277   0.00000  Uiso   1.00
C537   C     0.05042   0.12048   0.89900   0.00000  Uiso   1.00
C538   C     0.29220   0.19184   0.59737   0.00000  Uiso   1.00
C539   C     0.14259   0.18601   0.90891   0.00000  Uiso   1.00
C540   C     0.18626   0.19415   0.59524   0.00000  Uiso   1.00
C541   C     0.13278   0.16721   0.95196   0.00000  Uiso   1.00
C542   C     0.20402   0.18982   0.54894   0.00000  Uiso   1.00
C543   C     0.07516   0.13153   0.97030   0.00000  Uiso   1.00
C544   C     0.26890   0.20138   0.52774   0.00000  Uiso   1.00
C545   C     0.17851   0.18128   0.97719   0.00000  Uiso   1.00
C546   C     0.15948   0.17312   0.52333   0.00000  Uiso   1.00
Cu547  Cu    0.10737   0.16108   0.74517   0.00000  Uiso   1.00
Cu548  Cu    0.22596   0.17225   0.75484   0.00000  Uiso   1.00
H549   H     0.01486   0.09252   0.52957   0.00000  Uiso   1.00
H550   H     0.00473   0.21581   0.96526   0.00000  Uiso   1.00
H551   H     0.32577   0.18770   0.61492   0.00000  Uiso   1.00
H552   H     0.02076   0.09951   0.87814   0.00000  Uiso   1.00
H553   H     0.32389   0.08086   0.95719   0.00000  Uiso   1.00
H554   H     0.02961   0.21419   0.53711   0.00000  Uiso   1.00
H555   H     0.08470   0.13216   0.57640   0.00000  Uiso   1.00
H556   H     0.26106   0.19737   0.92162   0.00000  Uiso   1.00
H557   H     0.23491   0.01324   0.75594   0.00000  Uiso   1.00
H558   H     0.09832   0.32006   0.74427   0.00000  Uiso   1.00
H559   H     0.00120   0.20552   0.78443   0.00000  Uiso   1.00
H560   H     0.33210   0.12777   0.71560   0.00000  Uiso   1.00
N561   N     0.31506   0.18068   0.76212   0.00000  Uiso   1.00
N562   N     0.01827   0.15265   0.73788   0.00000  Uiso   1.00
O563   O     0.12815   0.23809   0.74686   0.00000  Uiso   1.00
O564   O     0.20518   0.09524   0.75314   0.00000  Uiso   1.00
O565   O     0.22829   0.24753   0.75503   0.00000  Uiso   1.00
O566   O     0.10504   0.08580   0.74498   0.00000  Uiso   1.00
O567   O     0.08851   0.15930   0.80854   0.00000  Uiso   1.00
O568   O     0.24482   0.17403   0.69146   0.00000  Uiso   1.00
O569   O     0.18866   0.16874   0.81671   0.00000  Uiso   1.00
O570   O     0.14468   0.16460   0.68329   0.00000  Uiso   1.00
S571   S     0.13342   0.23614   0.61869   0.00000  Uiso   1.00
O572   O     0.07495   0.20604   0.64918   0.00000  Uiso   1.00
O573   O     0.16531   0.27954   0.64493   0.00000  Uiso   1.00
O574   O     0.11296   0.26336   0.57915   0.00000  Uiso   1.00
H575   H     0.15229   0.28724   0.56332   0.00000  Uiso   1.00
S576   S     0.18563   0.25156   0.89411   0.00000  Uiso   1.00
O577   O     0.24957   0.25060   0.86423   0.00000  Uiso   1.00
O578   O     0.15024   0.27671   0.86992   0.00000  Uiso   1.00
O579   O     0.19485   0.28861   0.93925   0.00000  Uiso   1.00
H580   H     0.15135   0.28873   0.95685   0.00000  Uiso   1.00
C581   C     0.51498   0.26667   0.75139   0.00000  Uiso   1.00
C582   C     0.48497   0.06666   0.74871   0.00000  Uiso   1.00
C583   C     0.43264   0.14199   0.54177   0.00000  Uiso   1.00
C584   C     0.57698   0.19697   0.95703   0.00000  Uiso   1.00
C585   C     0.39265   0.11887   0.51496   0.00000  Uiso   1.00
C586   C     0.62164   0.20635   0.98196   0.00000  Uiso   1.00
C587   C     0.52330   0.32270   0.75212   0.00000  Uiso   1.00
C588   C     0.47659   0.01061   0.74810   0.00000  Uiso   1.00
C589   C     0.46158   0.16340   0.83321   0.00000  Uiso   1.00
C590   C     0.53871   0.17417   0.66695   0.00000  Uiso   1.00
C591   C     0.43848   0.15818   0.88125   0.00000  Uiso   1.00
C592   C     0.56167   0.18583   0.61926   0.00000  Uiso   1.00
C593   C     0.36740   0.10897   0.94374   0.00000  Uiso   1.00
C594   C     0.64633   0.20500   0.55277   0.00000  Uiso   1.00
C595   C     0.38375   0.12048   0.89900   0.00000  Uiso   1.00
C596   C     0.62554   0.19184   0.59737   0.00000  Uiso   1.00
C597   C     0.47592   0.18601   0.90891   0.00000  Uiso   1.00
C598   C     0.51960   0.19415   0.59524   0.00000  Uiso   1.00
C599   C     0.46612   0.16721   0.95196   0.00000  Uiso   1.00
C600   C     0.53735   0.18982   0.54894   0.00000  Uiso   1.00
C601   C     0.40849   0.13153   0.97030   0.00000  Uiso   1.00
C602   C     0.60224   0.20138   0.52774   0.00000  Uiso   1.00
C603   C     0.51184   0.18128   0.97719   0.00000  Uiso   1.00
C604   C     0.49281   0.17312   0.52333   0.00000  Uiso   1.00
Cu605  Cu    0.44071   0.16108   0.74517   0.00000  Uiso   1.00
Cu606  Cu    0.55929   0.17225   0.75484   0.00000  Uiso   1.00
H607   H     0.34820   0.09252   0.52957   0.00000  Uiso   1.00
H608   H     0.33806   0.21581   0.96526   0.00000  Uiso   1.00
H609   H     0.65910   0.18770   0.61492   0.00000  Uiso   1.00
H610   H     0.35410   0.09951   0.87814   0.00000  Uiso   1.00
H611   H     0.65722   0.08086   0.95719   0.00000  Uiso   1.00
H612   H     0.36295   0.21419   0.53711   0.00000  Uiso   1.00
H613   H     0.41804   0.13216   0.57640   0.00000  Uiso   1.00
H614   H     0.59439   0.19737   0.92162   0.00000  Uiso   1.00
H615   H     0.56824   0.01324   0.75594   0.00000  Uiso   1.00
H616   H     0.43165   0.32006   0.74427   0.00000  Uiso   1.00
H617   H     0.33454   0.20552   0.78443   0.00000  Uiso   1.00
H618   H     0.66544   0.12777   0.71560   0.00000  Uiso   1.00
N619   N     0.64839   0.18068   0.76212   0.00000  Uiso   1.00
N620   N     0.35161   0.15265   0.73788   0.00000  Uiso   1.00
O621   O     0.46148   0.23809   0.74686   0.00000  Uiso   1.00
O622   O     0.53852   0.09524   0.75314   0.00000  Uiso   1.00
O623   O     0.56163   0.24753   0.75503   0.00000  Uiso   1.00
O624   O     0.43837   0.08580   0.74498   0.00000  Uiso   1.00
O625   O     0.42185   0.15930   0.80854   0.00000  Uiso   1.00
O626   O     0.57815   0.17403   0.69146   0.00000  Uiso   1.00
O627   O     0.52199   0.16874   0.81671   0.00000  Uiso   1.00
O628   O     0.47801   0.16460   0.68329   0.00000  Uiso   1.00
S629   S     0.46676   0.23614   0.61869   0.00000  Uiso   1.00
O630   O     0.40828   0.20604   0.64918   0.00000  Uiso   1.00
O631   O     0.49864   0.27954   0.64493   0.00000  Uiso   1.00
O632   O     0.44630   0.26336   0.57915   0.00000  Uiso   1.00
H633   H     0.48562   0.28724   0.56332   0.00000  Uiso   1.00
S634   S     0.51896   0.25156   0.89411   0.00000  Uiso   1.00
O635   O     0.58290   0.25060   0.86423   0.00000  Uiso   1.00
O636   O     0.48358   0.27671   0.86992   0.00000  Uiso   1.00
O637   O     0.52818   0.28861   0.93925   0.00000  Uiso   1.00
H638   H     0.48469   0.28873   0.95685   0.00000  Uiso   1.00
C639   C     0.84832   0.26667   0.75139   0.00000  Uiso   1.00
C640   C     0.81830   0.06666   0.74871   0.00000  Uiso   1.00
C641   C     0.76597   0.14199   0.54177   0.00000  Uiso   1.00
C642   C     0.91032   0.19697   0.95703   0.00000  Uiso   1.00
C643   C     0.72598   0.11887   0.51496   0.00000  Uiso   1.00
C644   C     0.95497   0.20635   0.98196   0.00000  Uiso   1.00
C645   C     0.85663   0.32270   0.75212   0.00000  Uiso   1.00
C646   C     0.80992   0.01061   0.74810   0.00000  Uiso   1.00
C647   C     0.79491   0.16340   0.83321   0.00000  Uiso   1.00
C648   C     0.87204   0.17417   0.66695   0.00000  Uiso   1.00
C649   C     0.77181   0.15818   0.88125   0.00000  Uiso   1.00
C650   C     0.89500   0.18583   0.61926   0.00000  Uiso   1.00
C651   C     0.70073   0.10897   0.94374   0.00000  Uiso   1.00
C652   C     0.97966   0.20500   0.55277   0.00000  Uiso   1.00
C653   C     0.71709   0.12048   0.89900   0.00000  Uiso   1.00
C654   C     0.95887   0.19184   0.59737   0.00000  Uiso   1.00
C655   C     0.80925   0.18601   0.90891   0.00000  Uiso   1.00
C656   C     0.85293   0.19415   0.59524   0.00000  Uiso   1.00
C657   C     0.79945   0.16721   0.95196   0.00000  Uiso   1.00
C658   C     0.87068   0.18982   0.54894   0.00000  Uiso   1.00
C659   C     0.74182   0.13153   0.97030   0.00000  Uiso   1.00
C660   C     0.93557   0.20138   0.52774   0.00000  Uiso   1.00
C661   C     0.84518   0.18128   0.97719   0.00000  Uiso   1.00
C662   C     0.82615   0.17312   0.52333   0.00000  Uiso   1.00
Cu663  Cu    0.77404   0.16108   0.74517   0.00000  Uiso   1.00
Cu664  Cu    0.89263   0.17225   0.75484   0.00000  Uiso   1.00
H665   H     0.68153   0.09252   0.52957   0.00000  Uiso   1.00
H666   H     0.67140   0.21581   0.96526   0.00000  Uiso   1.00
H667   H     0.99243   0.18770   0.61492   0.00000  Uiso   1.00
H668   H     0.68743   0.09951   0.87814   0.00000  Uiso   1.00
H669   H     0.99055   0.08086   0.95719   0.00000  Uiso   1.00
H670   H     0.69628   0.21419   0.53711   0.00000  Uiso   1.00
H671   H     0.75137   0.13216   0.57640   0.00000  Uiso   1.00
H672   H     0.92772   0.19737   0.92162   0.00000  Uiso   1.00
H673   H     0.90157   0.01324   0.75594   0.00000  Uiso   1.00
H674   H     0.76499   0.32006   0.74427   0.00000  Uiso   1.00
H675   H     0.66787   0.20552   0.78443   0.00000  Uiso   1.00
H676   H     0.99877   0.12777   0.71560   0.00000  Uiso   1.00
N677   N     0.98173   0.18068   0.76212   0.00000  Uiso   1.00
N678   N     0.68494   0.15265   0.73788   0.00000  Uiso   1.00
O679   O     0.79482   0.23809   0.74686   0.00000  Uiso   1.00
O680   O     0.87185   0.09524   0.75314   0.00000  Uiso   1.00
O681   O     0.89496   0.24753   0.75503   0.00000  Uiso   1.00
O682   O     0.77171   0.08580   0.74498   0.00000  Uiso   1.00
O683   O     0.75518   0.15930   0.80854   0.00000  Uiso   1.00
O684   O     0.91149   0.17403   0.69146   0.00000  Uiso   1.00
O685   O     0.85532   0.16874   0.81671   0.00000  Uiso   1.00
O686   O     0.81134   0.16460   0.68329   0.00000  Uiso   1.00
S687   S     0.80009   0.23614   0.61869   0.00000  Uiso   1.00
O688   O     0.74162   0.20604   0.64918   0.00000  Uiso   1.00
O689   O     0.83197   0.27954   0.64493   0.00000  Uiso   1.00
O690   O     0.77963   0.26336   0.57915   0.00000  Uiso   1.00
H691   H     0.81895   0.28724   0.56332   0.00000  Uiso   1.00
S692   S     0.85230   0.25156   0.89411   0.00000  Uiso   1.00
O693   O     0.91623   0.25060   0.86423   0.00000  Uiso   1.00
O694   O     0.81691   0.27671   0.86992   0.00000  Uiso   1.00
O695   O     0.86152   0.28861   0.93925   0.00000  Uiso   1.00
H696   H     0.81802   0.28873   0.95685   0.00000  Uiso   1.00
C697   C     0.18165   0.60000   0.75139   0.00000  Uiso   1.00
C698   C     0.15163   0.40000   0.74871   0.00000  Uiso   1.00
C699   C     0.09930   0.47533   0.54177   0.00000  Uiso   1.00
C700   C     0.24365   0.53030   0.95703   0.00000  Uiso   1.00
C701   C     0.05932   0.45221   0.51496   0.00000  Uiso   1.00
C702   C     0.28830   0.53968   0.98196   0.00000  Uiso   1.00
C703   C     0.18996   0.65603   0.75212   0.00000  Uiso   1.00
C704   C     0.14326   0.34395   0.74810   0.00000  Uiso   1.00
C705   C     0.12825   0.49673   0.83321   0.00000  Uiso   1.00
C706   C     0.20537   0.50750   0.66695   0.00000  Uiso   1.00
C707   C     0.10514   0.49151   0.88125   0.00000  Uiso   1.00
C708   C     0.22833   0.51917   0.61926   0.00000  Uiso   1.00
C709   C     0.03407   0.44230   0.94374   0.00000  Uiso   1.00
C710   C     0.31299   0.53833   0.55277   0.00000  Uiso   1.00
C711   C     0.05042   0.45382   0.89900   0.00000  Uiso   1.00
C712   C     0.29220   0.52518   0.59737   0.00000  Uiso   1.00
C713   C     0.14259   0.51935   0.90891   0.00000  Uiso   1.00
C714   C     0.18626   0.52748   0.59524   0.00000  Uiso   1.00
C715   C     0.13278   0.50054   0.95196   0.00000  Uiso   1.00
C716   C     0.20402   0.52315   0.54894   0.00000  Uiso   1.00
C717   C     0.07516   0.46486   0.97030   0.00000  Uiso   1.00
C718   C     0.26890   0.53471   0.52774   0.00000  Uiso   1.00
C719   C     0.17851   0.51461   0.97719   0.00000  Uiso   1.00
C720   C     0.15948   0.50645   0.52333   0.00000  Uiso   1.00
Cu721  Cu    0.10737   0.49441   0.74517   0.00000  Uiso   1.00
Cu722  Cu    0.22596   0.50559   0.75484   0.00000  Uiso   1.00
H723   H     0.01486   0.42585   0.52957   0.00000  Uiso   1.00
H724   H     0.00473   0.54915   0.96526   0.00000  Uiso   1.00
H725   H     0.32577   0.52103   0.61492   0.00000  Uiso   1.00
H726   H     0.02076   0.43284   0.87814   0.00000  Uiso   1.00
H727   H     0.32389   0.41419   0.95719   0.00000  Uiso   1.00
H728   H     0.02961   0.54752   0.53711   0.00000  Uiso   1.00
H729   H     0.08470   0.46549   0.57640   0.00000  Uiso   1.00
H730   H     0.26106   0.53071   0.92162   0.00000  Uiso   1.00
H731   H     0.23491   0.34658   0.75594   0.00000  Uiso   1.00
H732   H     0.09832   0.65340   0.74427   0.00000  Uiso   1.00
H733   H     0.00120   0.53885   0.78443   0.00000  Uiso   1.00
H734   H     0.33210   0.46110   0.71560   0.00000  Uiso   1.00
N735   N     0.31506   0.51401   0.76212   0.00000  Uiso   1.00
N736   N     0.01827   0.48599   0.73788   0.00000  Uiso   1.00
O737   O     0.12815   0.57142   0.74686   0.00000  Uiso   1.00
O738   O     0.20518   0.42858   0.75314   0.00000  Uiso   1.00
O739   O     0.22829   0.58086   0.75503   0.00000  Uiso   1.00
O740   O     0.10504   0.41914   0.74498   0.00000  Uiso   1.00
O741   O     0.08851   0.49263   0.80854   0.00000  Uiso   1.00
O742   O     0.24482   0.50737   0.69146   0.00000  Uiso   1.00
O743   O     0.18866   0.50207   0.81671   0.00000  Uiso   1.00
O744   O     0.14468   0.49793   0.68329   0.00000  Uiso   1.00
S745   S     0.13342   0.56947   0.61869   0.00000  Uiso   1.00
O746   O     0.07495   0.53938   0.64918   0.00000  Uiso   1.00
O747   O     0.16531   0.61288   0.64493   0.00000  Uiso   1.00
O748   O     0.11296   0.59670   0.57915   0.00000  Uiso   1.00
H749   H     0.15229   0.62057   0.56332   0.00000  Uiso   1.00
S750   S     0.18563   0.58489   0.89411   0.00000  Uiso   1.00
O751   O     0.24957   0.58393   0.86423   0.00000  Uiso   1.00
O752   O     0.15024   0.61004   0.86992   0.00000  Uiso   1.00
O753   O     0.19485   0.62194   0.93925   0.00000  Uiso   1.00
H754   H     0.15135   0.62206   0.95685   0.00000  Uiso   1.00
C755   C     0.51498   0.60000   0.75139   0.00000  Uiso   1.00
C756   C     0.48497   0.40000   0.74871   0.00000  Uiso   1.00
C757   C     0.43264   0.47533   0.54177   0.00000  Uiso   1.00
C758   C     0.57698   0.53030   0.95703   0.00000  Uiso   1.00
C759   C     0.39265   0.45221   0.51496   0.00000  Uiso   1.00
C760   C     0.62164   0.53968   0.98196   0.00000  Uiso   1.00
C761   C     0.52330   0.65603   0.75212   0.00000  Uiso   1.00
C762   C     0.47659   0.34395   0.74810   0.00000  Uiso   1.00
C763   C     0.46158   0.49673   0.83321   0.00000  Uiso   1.00
C764   C     0.53871   0.50750   0.66695   0.00000  Uiso   1.00
C765   C     0.43848   0.49151   0.88125   0.00000  Uiso   1.00
C766   C     0.56167   0.51917   0.61926   0.00000  Uiso   1.00
C767   C     0.36740   0.44230   0.94374   0.00000  Uiso   1.00
C768   C     0.64633   0.53833   0.55277   0.00000  Uiso   1.00
C769   C     0.38375   0.45382   0.89900   0.00000  Uiso   1.00
C770   C     0.62554   0.52518   0.59737   0.00000  Uiso   1.00
C771   C     0.47592   0.51935   0.90891   0.00000  Uiso   1.00
C772   C     0.51960   0.52748   0.59524   0.00000  Uiso   1.00
C773   C     0.46612   0.50054   0.95196   0.00000  Uiso   1.00
C774   C     0.53735   0.52315   0.54894   0.00000  Uiso   1.00
C775   C     0.40849   0.46486   0.97030   0.00000  Uiso   1.00
C776   C     0.60224   0.53471   0.52774   0.00000  Uiso   1.00
C777   C     0.51184   0.51461   0.97719   0.00000  Uiso   1.00
C778   C     0.49281   0.50645   0.52333   0.00000  Uiso   1.00
Cu779  Cu    0.44071   0.49441   0.74517   0.00000  Uiso   1.00
Cu780  Cu    0.55929   0.50559   0.75484   0.00000  Uiso   1.00
H781   H     0.34820   0.42585   0.52957   0.00000  Uiso   1.00
H782   H     0.33806   0.54915   0.96526   0.00000  Uiso   1.00
H783   H     0.65910   0.52103   0.61492   0.00000  Uiso   1.00
H784   H     0.35410   0.43284   0.87814   0.00000  Uiso   1.00
H785   H     0.65722   0.41419   0.95719   0.00000  Uiso   1.00
H786   H     0.36295   0.54752   0.53711   0.00000  Uiso   1.00
H787   H     0.41804   0.46549   0.57640   0.00000  Uiso   1.00
H788   H     0.59439   0.53071   0.92162   0.00000  Uiso   1.00
H789   H     0.56824   0.34658   0.75594   0.00000  Uiso   1.00
H790   H     0.43165   0.65340   0.74427   0.00000  Uiso   1.00
H791   H     0.33454   0.53885   0.78443   0.00000  Uiso   1.00
H792   H     0.66544   0.46110   0.71560   0.00000  Uiso   1.00
N793   N     0.64839   0.51401   0.76212   0.00000  Uiso   1.00
N794   N     0.35161   0.48599   0.73788   0.00000  Uiso   1.00
O795   O     0.46148   0.57142   0.74686   0.00000  Uiso   1.00
O796   O     0.53852   0.42858   0.75314   0.00000  Uiso   1.00
O797   O     0.56163   0.58086   0.75503   0.00000  Uiso   1.00
O798   O     0.43837   0.41914   0.74498   0.00000  Uiso   1.00
O799   O     0.42185   0.49263   0.80854   0.00000  Uiso   1.00
O800   O     0.57815   0.50737   0.69146   0.00000  Uiso   1.00
O801   O     0.52199   0.50207   0.81671   0.00000  Uiso   1.00
O802   O     0.47801   0.49793   0.68329   0.00000  Uiso   1.00
S803   S     0.46676   0.56947   0.61869   0.00000  Uiso   1.00
O804   O     0.40828   0.53938   0.64918   0.00000  Uiso   1.00
O805   O     0.49864   0.61288   0.64493   0.00000  Uiso   1.00
O806   O     0.44630   0.59670   0.57915   0.00000  Uiso   1.00
H807   H     0.48562   0.62057   0.56332   0.00000  Uiso   1.00
S808   S     0.51896   0.58489   0.89411   0.00000  Uiso   1.00
O809   O     0.58290   0.58393   0.86423   0.00000  Uiso   1.00
O810   O     0.48358   0.61004   0.86992   0.00000  Uiso   1.00
O811   O     0.52818   0.62194   0.93925   0.00000  Uiso   1.00
H812   H     0.48469   0.62206   0.95685   0.00000  Uiso   1.00
C813   C     0.84832   0.60000   0.75139   0.00000  Uiso   1.00
C814   C     0.81830   0.40000   0.74871   0.00000  Uiso   1.00
C815   C     0.76597   0.47533   0.54177   0.00000  Uiso   1.00
C816   C     0.91032   0.53030   0.95703   0.00000  Uiso   1.00
C817   C     0.72598   0.45221   0.51496   0.00000  Uiso   1.00
C818   C     0.95497   0.53968   0.98196   0.00000  Uiso   1.00
C819   C     0.85663   0.65603   0.75212   0.00000  Uiso   1.00
C820   C     0.80992   0.34395   0.74810   0.00000  Uiso   1.00
C821   C     0.79491   0.49673   0.83321   0.00000  Uiso   1.00
C822   C     0.87204   0.50750   0.66695   0.00000  Uiso   1.00
C823   C     0.77181   0.49151   0.88125   0.00000  Uiso   1.00
C824   C     0.89500   0.51917   0.61926   0.00000  Uiso   1.00
C825   C     0.70073   0.44230   0.94374   0.00000  Uiso   1.00
C826   C     0.97966   0.53833   0.55277   0.00000  Uiso   1.00
C827   C     0.71709   0.45382   0.89900   0.00000  Uiso   1.00
C828   C     0.95887   0.52518   0.59737   0.00000  Uiso   1.00
C829   C     0.80925   0.51935   0.90891   0.00000  Uiso   1.00
C830   C     0.85293   0.52748   0.59524   0.00000  Uiso   1.00
C831   C     0.79945   0.50054   0.95196   0.00000  Uiso   1.00
C832   C     0.87068   0.52315   0.54894   0.00000  Uiso   1.00
C833   C     0.74182   0.46486   0.97030   0.00000  Uiso   1.00
C834   C     0.93557   0.53471   0.52774   0.00000  Uiso   1.00
C835   C     0.84518   0.51461   0.97719   0.00000  Uiso   1.00
C836   C     0.82615   0.50645   0.52333   0.00000  Uiso   1.00
Cu837  Cu    0.77404   0.49441   0.74517   0.00000  Uiso   1.00
Cu838  Cu    0.89263   0.50559   0.75484   0.00000  Uiso   1.00
H839   H     0.68153   0.42585   0.52957   0.00000  Uiso   1.00
H840   H     0.67140   0.54915   0.96526   0.00000  Uiso   1.00
H841   H     0.99243   0.52103   0.61492   0.00000  Uiso   1.00
H842   H     0.68743   0.43284   0.87814   0.00000  Uiso   1.00
H843   H     0.99055   0.41419   0.95719   0.00000  Uiso   1.00
H844   H     0.69628   0.54752   0.53711   0.00000  Uiso   1.00
H845   H     0.75137   0.46549   0.57640   0.00000  Uiso   1.00
H846   H     0.92772   0.53071   0.92162   0.00000  Uiso   1.00
H847   H     0.90157   0.34658   0.75594   0.00000  Uiso   1.00
H848   H     0.76499   0.65340   0.74427   0.00000  Uiso   1.00
H849   H     0.66787   0.53885   0.78443   0.00000  Uiso   1.00
H850   H     0.99877   0.46110   0.71560   0.00000  Uiso   1.00
N851   N     0.98173   0.51401   0.76212   0.00000  Uiso   1.00
N852   N     0.68494   0.48599   0.73788   0.00000  Uiso   1.00
O853   O     0.79482   0.57142   0.74686   0.00000  Uiso   1.00
O854   O     0.87185   0.42858   0.75314   0.00000  Uiso   1.00
O855   O     0.89496   0.58086   0.75503   0.00000  Uiso   1.00
O856   O     0.77171   0.41914   0.74498   0.00000  Uiso   1.00
O857   O     0.75518   0.49263   0.80854   0.00000  Uiso   1.00
O858   O     0.91149   0.50737   0.69146   0.00000  Uiso   1.00
O859   O     0.85532   0.50207   0.81671   0.00000  Uiso   1.00
O860   O     0.81134   0.49793   0.68329   0.00000  Uiso   1.00
S861   S     0.80009   0.56947   0.61869   0.00000  Uiso   1.00
O862   O     0.74162   0.53938   0.64918   0.00000  Uiso   1.00
O863   O     0.83197   0.61288   0.64493   0.00000  Uiso   1.00
O864   O     0.77963   0.59670   0.57915   0.00000  Uiso   1.00
H865   H     0.81895   0.62057   0.56332   0.00000  Uiso   1.00
S866   S     0.85230   0.58489   0.89411   0.00000  Uiso   1.00
O867   O     0.91623   0.58393   0.86423   0.00000  Uiso   1.00
O868   O     0.81691   0.61004   0.86992   0.00000  Uiso   1.00
O869   O     0.86152   0.62194   0.93925   0.00000  Uiso   1.00
H870   H     0.81802   0.62206   0.95685   0.00000  Uiso   1.00
C871   C     0.18165   0.93333   0.75139   0.00000  Uiso   1.00
C872   C     0.15163   0.73333   0.74871   0.00000  Uiso   1.00
C873   C     0.09930   0.80866   0.54177   0.00000  Uiso   1.00
C874   C     0.24365   0.86364   0.95703   0.00000  Uiso   1.00
C875   C     0.05932   0.78554   0.51496   0.00000  Uiso   1.00
C876   C     0.28830   0.87301   0.98196   0.00000  Uiso   1.00
C877   C     0.18996   0.98937   0.75212   0.00000  Uiso   1.00
C878   C     0.14326   0.67728   0.74810   0.00000  Uiso   1.00
C879   C     0.12825   0.83007   0.83321   0.00000  Uiso   1.00
C880   C     0.20537   0.84083   0.66695   0.00000  Uiso   1.00
C881   C     0.10514   0.82484   0.88125   0.00000  Uiso   1.00
C882   C     0.22833   0.85250   0.61926   0.00000  Uiso   1.00
C883   C     0.03407   0.77564   0.94374   0.00000  Uiso   1.00
C884   C     0.31299   0.87167   0.55277   0.00000  Uiso   1.00
C885   C     0.05042   0.78715   0.89900   0.00000  Uiso   1.00
C886   C     0.29220   0.85851   0.59737   0.00000  Uiso   1.00
C887   C     0.14259   0.85268   0.90891   0.00000  Uiso   1.00
C888   C     0.18626   0.86082   0.59524   0.00000  Uiso   1.00
C889   C     0.13278   0.83387   0.95196   0.00000  Uiso   1.00
C890   C     0.20402   0.85649   0.54894   0.00000  Uiso   1.00
C891   C     0.07516   0.79820   0.97030   0.00000  Uiso   1.00
C892   C     0.26890   0.86805   0.52774   0.00000  Uiso   1.00
C893   C     0.17851   0.84795   0.97719   0.00000  Uiso   1.00
C894   C     0.15948   0.83978   0.52333   0.00000  Uiso   1.00
Cu895  Cu    0.10737   0.82775   0.74517   0.00000  Uiso   1.00
Cu896  Cu    0.22596   0.83892   0.75484   0.00000  Uiso   1.00
H897   H     0.01486   0.75919   0.52957   0.00000  Uiso   1.00
H898   H     0.00473   0.88248   0.96526   0.00000  Uiso   1.00
H899   H     0.32577   0.85437   0.61492   0.00000  Uiso   1.00
H900   H     0.02076   0.76618   0.87814   0.00000  Uiso   1.00
H901   H     0.32389   0.74753   0.95719   0.00000  Uiso   1.00
H902   H     0.02961   0.88085   0.53711   0.00000  Uiso   1.00
H903   H     0.08470   0.79883   0.57640   0.00000  Uiso   1.00
H904   H     0.26106   0.86404   0.92162   0.00000  Uiso   1.00
H905   H     0.23491   0.67991   0.75594   0.00000  Uiso   1.00
H906   H     0.09832   0.98673   0.74427   0.00000  Uiso   1.00
H907   H     0.00120   0.87219   0.78443   0.00000  Uiso   1.00
H908   H     0.33210   0.79443   0.71560   0.00000  Uiso   1.00
N909   N     0.31506   0.84735   0.76212   0.00000  Uiso   1.00
N910   N     0.01827   0.81932   0.73788   0.00000  Uiso   1.00
O911   O     0.12815   0.90476   0.74686   0.00000  Uiso   1.00
O912   O     0.20518   0.76191   0.75314   0.00000  Uiso   1.00
O913   O     0.22829   0.91420   0.75503   0.00000  Uiso   1.00
O914   O     0.10504   0.75247   0.74498   0.00000  Uiso   1.00
O915   O     0.08851   0.82597   0.80854   0.00000  Uiso   1.00
O916   O     0.24482   0.84070   0.69146   0.00000  Uiso   1.00
O917   O     0.18866   0.83540   0.81671   0.00000  Uiso   1.00
O918   O     0.14468   0.83126   0.68329   0.00000  Uiso   1.00
S919   S     0.13342   0.90281   0.61869   0.00000  Uiso   1.00
O920   O     0.07495   0.87271   0.64918   0.00000  Uiso   1.00
O921   O     0.16531   0.94621   0.64493   0.00000  Uiso   1.00
O922   O     0.11296   0.93003   0.57915   0.00000  Uiso   1.00
H923   H     0.15229   0.95391   0.56332   0.00000  Uiso   1.00
S924   S     0.18563   0.91823   0.89411   0.00000  Uiso   1.00
O925   O     0.24957   0.91727   0.86423   0.00000  Uiso   1.00
O926   O     0.15024   0.94337   0.86992   0.00000  Uiso   1.00
O927   O     0.19485   0.95527   0.93925   0.00000  Uiso   1.00
H928   H     0.15135   0.95540   0.95685   0.00000  Uiso   1.00
C929   C     0.51498   0.93333   0.75139   0.00000  Uiso   1.00
C930   C     0.48497   0.73333   0.74871   0.00000  Uiso   1.00
C931   C     0.43264   0.80866   0.54177   0.00000  Uiso   1.00
C932   C     0.57698   0.86364   0.95703   0.00000  Uiso   1.00
C933   C     0.39265   0.78554   0.51496   0.00000  Uiso   1.00
C934   C     0.62164   0.87301   0.98196   0.00000  Uiso   1.00
C935   C     0.52330   0.98937   0.75212   0.00000  Uiso   1.00
C936   C     0.47659   0.67728   0.74810   0.00000  Uiso   1.00
C937   C     0.46158   0.83007   0.83321   0.00000  Uiso   1.00
C938   C     0.53871   0.84083   0.66695   0.00000  Uiso   1.00
C939   C     0.43848   0.82484   0.88125   0.00000  Uiso   1.00
C940   C     0.56167   0.85250   0.61926   0.00000  Uiso   1.00
C941   C     0.36740   0.77564   0.94374   0.00000  Uiso   1.00
C942   C     0.64633   0.87167   0.55277   0.00000  Uiso   1.00
C943   C     0.38375   0.78715   0.89900   0.00000  Uiso   1.00
C944   C     0.62554   0.85851   0.59737   0.00000  Uiso   1.00
C945   C     0.47592   0.85268   0.90891   0.00000  Uiso   1.00
C946   C     0.51960   0.86082   0.59524   0.00000  Uiso   1.00
C947   C     0.46612   0.83387   0.95196   0.00000  Uiso   1.00
C948   C     0.53735   0.85649   0.54894   0.00000  Uiso   1.00
C949   C     0.40849   0.79820   0.97030   0.00000  Uiso   1.00
C950   C     0.60224   0.86805   0.52774   0.00000  Uiso   1.00
C951   C     0.51184   0.84795   0.97719   0.00000  Uiso   1.00
C952   C     0.49281   0.83978   0.52333   0.00000  Uiso   1.00
Cu953  Cu    0.44071   0.82775   0.74517   0.00000  Uiso   1.00
Cu954  Cu    0.55929   0.83892   0.75484   0.00000  Uiso   1.00
H955   H     0.34820   0.75919   0.52957   0.00000  Uiso   1.00
H956   H     0.33806   0.88248   0.96526   0.00000  Uiso   1.00
H957   H     0.65910   0.85437   0.61492   0.00000  Uiso   1.00
H958   H     0.35410   0.76618   0.87814   0.00000  Uiso   1.00
H959   H     0.65722   0.74753   0.95719   0.00000  Uiso   1.00
H960   H     0.36295   0.88085   0.53711   0.00000  Uiso   1.00
H961   H     0.41804   0.79883   0.57640   0.00000  Uiso   1.00
H962   H     0.59439   0.86404   0.92162   0.00000  Uiso   1.00
H963   H     0.56824   0.67991   0.75594   0.00000  Uiso   1.00
H964   H     0.43165   0.98673   0.74427   0.00000  Uiso   1.00
H965   H     0.33454   0.87219   0.78443   0.00000  Uiso   1.00
H966   H     0.66544   0.79443   0.71560   0.00000  Uiso   1.00
N967   N     0.64839   0.84735   0.76212   0.00000  Uiso   1.00
N968   N     0.35161   0.81932   0.73788   0.00000  Uiso   1.00
O969   O     0.46148   0.90476   0.74686   0.00000  Uiso   1.00
O970   O     0.53852   0.76191   0.75314   0.00000  Uiso   1.00
O971   O     0.56163   0.91420   0.75503   0.00000  Uiso   1.00
O972   O     0.43837   0.75247   0.74498   0.00000  Uiso   1.00
O973   O     0.42185   0.82597   0.80854   0.00000  Uiso   1.00
O974   O     0.57815   0.84070   0.69146   0.00000  Uiso   1.00
O975   O     0.52199   0.83540   0.81671   0.00000  Uiso   1.00
O976   O     0.47801   0.83126   0.68329   0.00000  Uiso   1.00
S977   S     0.46676   0.90281   0.61869   0.00000  Uiso   1.00
O978   O     0.40828   0.87271   0.64918   0.00000  Uiso   1.00
O979   O     0.49864   0.94621   0.64493   0.00000  Uiso   1.00
O980   O     0.44630   0.93003   0.57915   0.00000  Uiso   1.00
H981   H     0.48562   0.95391   0.56332   0.00000  Uiso   1.00
S982   S     0.51896   0.91823   0.89411   0.00000  Uiso   1.00
O983   O     0.58290   0.91727   0.86423   0.00000  Uiso   1.00
O984   O     0.48358   0.94337   0.86992   0.00000  Uiso   1.00
O985   O     0.52818   0.95527   0.93925   0.00000  Uiso   1.00
H986   H     0.48469   0.95540   0.95685   0.00000  Uiso   1.00
C987   C     0.84832   0.93333   0.75139   0.00000  Uiso   1.00
C988   C     0.81830   0.73333   0.74871   0.00000  Uiso   1.00
C989   C     0.76597   0.80866   0.54177   0.00000  Uiso   1.00
C990   C     0.91032   0.86364   0.95703   0.00000  Uiso   1.00
C991   C     0.72598   0.78554   0.51496   0.00000  Uiso   1.00
C992   C     0.95497   0.87301   0.98196   0.00000  Uiso   1.00
C993   C     0.85663   0.98937   0.75212   0.00000  Uiso   1.00
C994   C     0.80992   0.67728   0.74810   0.00000  Uiso   1.00
C995   C     0.79491   0.83007   0.83321   0.00000  Uiso   1.00
C996   C     0.87204   0.84083   0.66695   0.00000  Uiso   1.00
C997   C     0.77181   0.82484   0.88125   0.00000  Uiso   1.00
C998   C     0.89500   0.85250   0.61926   0.00000  Uiso   1.00
C999   C     0.70073   0.77564   0.94374   0.00000  Uiso   1.00
C1000  C     0.97966   0.87167   0.55277   0.00000  Uiso   1.00
C1001  C     0.71709   0.78715   0.89900   0.00000  Uiso   1.00
C1002  C     0.95887   0.85851   0.59737   0.00000  Uiso   1.00
C1003  C     0.80925   0.85268   0.90891   0.00000  Uiso   1.00
C1004  C     0.85293   0.86082   0.59524   0.00000  Uiso   1.00
C1005  C     0.79945   0.83387   0.95196   0.00000  Uiso   1.00
C1006  C     0.87068   0.85649   0.54894   0.00000  Uiso   1.00
C1007  C     0.74182   0.79820   0.97030   0.00000  Uiso   1.00
C1008  C     0.93557   0.86805   0.52774   0.00000  Uiso   1.00
C1009  C     0.84518   0.84795   0.97719   0.00000  Uiso   1.00
C1010  C     0.82615   0.83978   0.52333   0.00000  Uiso   1.00
Cu1011 Cu    0.77404   0.82775   0.74517   0.00000  Uiso   1.00
Cu1012 Cu    0.89263   0.83892   0.75484   0.00000  Uiso   1.00
H1013  H     0.68153   0.75919   0.52957   0.00000  Uiso   1.00
H1014  H     0.67140   0.88248   0.96526   0.00000  Uiso   1.00
H1015  H     0.99243   0.85437   0.61492   0.00000  Uiso   1.00
H1016  H     0.68743   0.76618   0.87814   0.00000  Uiso   1.00
H1017  H     0.99055   0.74753   0.95719   0.00000  Uiso   1.00
H1018  H     0.69628   0.88085   0.53711   0.00000  Uiso   1.00
H1019  H     0.75137   0.79883   0.57640   0.00000  Uiso   1.00
H1020  H     0.92772   0.86404   0.92162   0.00000  Uiso   1.00
H1021  H     0.90157   0.67991   0.75594   0.00000  Uiso   1.00
H1022  H     0.76499   0.98673   0.74427   0.00000  Uiso   1.00
H1023  H     0.66787   0.87219   0.78443   0.00000  Uiso   1.00
H1024  H     0.99877   0.79443   0.71560   0.00000  Uiso   1.00
N1025  N     0.98173   0.84735   0.76212   0.00000  Uiso   1.00
N1026  N     0.68494   0.81932   0.73788   0.00000  Uiso   1.00
O1027  O     0.79482   0.90476   0.74686   0.00000  Uiso   1.00
O1028  O     0.87185   0.76191   0.75314   0.00000  Uiso   1.00
O1029  O     0.89496   0.91420   0.75503   0.00000  Uiso   1.00
O1030  O     0.77171   0.75247   0.74498   0.00000  Uiso   1.00
O1031  O     0.75518   0.82597   0.80854   0.00000  Uiso   1.00
O1032  O     0.91149   0.84070   0.69146   0.00000  Uiso   1.00
O1033  O     0.85532   0.83540   0.81671   0.00000  Uiso   1.00
O1034  O     0.81134   0.83126   0.68329   0.00000  Uiso   1.00
S1035  S     0.80009   0.90281   0.61869   0.00000  Uiso   1.00
O1036  O     0.74162   0.87271   0.64918   0.00000  Uiso   1.00
O1037  O     0.83197   0.94621   0.64493   0.00000  Uiso   1.00
O1038  O     0.77963   0.93003   0.57915   0.00000  Uiso   1.00
H1039  H     0.81895   0.95391   0.56332   0.00000  Uiso   1.00
S1040  S     0.85230   0.91823   0.89411   0.00000  Uiso   1.00
O1041  O     0.91623   0.91727   0.86423   0.00000  Uiso   1.00
O1042  O     0.81691   0.94337   0.86992   0.00000  Uiso   1.00
O1043  O     0.86152   0.95527   0.93925   0.00000  Uiso   1.00
H1044  H     0.81802   0.95540   0.95685   0.00000  Uiso   1.00
loop_
_geom_bond_atom_site_label_1
_geom_bond_atom_site_label_2
_geom_bond_distance
_geom_bond_site_symmetry_2
_ccdc_geom_bond_type
C1     O43     1.292   .     A
C1     O41     1.296   .     A
C1     C7      1.428   .     S
C2     O42     1.296   .     A
C2     O44     1.292   .     A
C2     C8      1.428   .     S
C3     C5      1.393   .     A
C3     C24     1.408   .     A
C3     H33     1.083   .     S
C4     H34     1.078   .     S
C4     C6      1.392   .     A
C4     C23     1.412   .     A
C5     H27     1.084   .     S
C5     C543    1.398   1_554 S
C6     C544    1.395   .     S
C6     H86     1.084   .     S
C7     C182    1.330   .     S
C7     H209    1.088   .     S
C8     C355    1.330   1_545 S
C8     H384    1.088   1_545 S
C9     O45     1.306   .     A
C9     C11     1.467   .     S
C9     O47     1.300   .     A
C10    O46     1.314   .     A
C10    C12     1.481   .     S
C10    O48     1.298   .     A
C11    C17     1.409   .     A
C11    C15     1.400   .     A
C12    C18     1.411   .     A
C12    C16     1.399   .     A
C13    C21     1.401   .     A
C13    C15     1.393   .     A
C13    H147    1.084   1_455 S
C14    C22     1.397   .     A
C14    C16     1.398   .     A
C14    H90     1.080   .     S
C15    H30     1.083   .     S
C16    H29     1.069   .     S
C17    C19     1.417   .     A
C17    S54     1.788   .     S
C18    C20     1.406   .     A
C18    S49     1.781   .     S
C19    C23     1.420   .     A
C19    C21     1.419   .     A
C20    C22     1.409   .     A
C20    C24     1.413   .     A
C21    C527    1.398   .     S
C22    C528    1.395   1_554 S
C23    C546    1.417   .     S
C24    C545    1.417   1_554 S
Cu25   Cu26    2.705   .     S
Cu25   O41     1.953   .     S
Cu25   O48     1.904   .     S
Cu25   O44     1.950   .     S
Cu25   N40     2.032   .     S
Cu25   O45     1.924   .     S
Cu26   O47     1.904   .     S
Cu26   O43     1.950   .     S
Cu26   N39     2.032   .     S
Cu26   O42     1.953   .     S
Cu26   O46     1.924   .     S
H28    C122    1.084   1_455 S
H31    C71     1.084   .     S
H32    C130    1.080   1_455 S
H35    C355    1.088   1_545 S
H36    C182    1.088   .     S
H37    N155    1.029   1_455 S
H38    N98     1.029   .     S
N39    H95     1.029   .     S
N39    N98     1.286   .     S
N40    H154    1.029   1_455 S
N40    N155    1.286   1_455 S
S49    O52     1.681   .     S
S49    O50     1.499   .     D
S49    O51     1.503   .     D
O52    H53     0.991   .     S
S54    O56     1.504   .     D
S54    O55     1.503   .     D
S54    O57     1.683   .     S
O57    H58     0.991   .     S
C59    O101    1.292   .     A
C59    O99     1.296   .     A
C59    C65     1.428   .     S
C60    O100    1.296   .     A
C60    O102    1.292   .     A
C60    C66     1.428   .     S
C61    C63     1.393   .     A
C61    C82     1.408   .     A
C61    H91     1.083   .     S
C62    H92     1.078   .     S
C62    C64     1.392   .     A
C62    C81     1.412   .     A
C63    H85     1.084   .     S
C63    C601    1.398   1_554 S
C64    C602    1.395   .     S
C64    H144    1.084   .     S
C65    C240    1.330   .     S
C65    H267    1.088   .     S
C66    C413    1.330   1_545 S
C66    H442    1.088   1_545 S
C67    O103    1.306   .     A
C67    C69     1.467   .     S
C67    O105    1.300   .     A
C68    O104    1.314   .     A
C68    C70     1.481   .     S
C68    O106    1.298   .     A
C69    C75     1.409   .     A
C69    C73     1.400   .     A
C70    C76     1.411   .     A
C70    C74     1.399   .     A
C71    C79     1.401   .     A
C71    C73     1.393   .     A
C72    C80     1.397   .     A
C72    C74     1.398   .     A
C72    H148    1.080   .     S
C73    H88     1.083   .     S
C74    H87     1.069   .     S
C75    C77     1.417   .     A
C75    S112    1.788   .     S
C76    C78     1.406   .     A
C76    S107    1.781   .     S
C77    C81     1.420   .     A
C77    C79     1.419   .     A
C78    C80     1.409   .     A
C78    C82     1.413   .     A
C79    C585    1.398   .     S
C80    C586    1.395   1_554 S
C81    C604    1.417   .     S
C82    C603    1.417   1_554 S
Cu83   Cu84    2.705   .     S
Cu83   O99     1.953   .     S
Cu83   O106    1.904   .     S
Cu83   O102    1.950   .     S
Cu83   N98     2.032   .     S
Cu83   O103    1.924   .     S
Cu84   O105    1.904   .     S
Cu84   O101    1.950   .     S
Cu84   N97     2.032   .     S
Cu84   O100    1.953   .     S
Cu84   O104    1.924   .     S
H89    C129    1.084   .     S
H93    C413    1.088   1_545 S
H94    C240    1.088   .     S
H96    N156    1.029   .     S
N97    H153    1.029   .     S
N97    N156    1.286   .     S
S107   O110    1.681   .     S
S107   O108    1.499   .     D
S107   O109    1.503   .     D
O110   H111    0.991   .     S
S112   O114    1.504   .     D
S112   O113    1.503   .     D
S112   O115    1.683   .     S
O115   H116    0.991   .     S
C117   O159    1.292   .     A
C117   O157    1.296   .     A
C117   C123    1.428   .     S
C118   O158    1.296   .     A
C118   O160    1.292   .     A
C118   C124    1.428   .     S
C119   C121    1.393   .     A
C119   C140    1.408   .     A
C119   H149    1.083   .     S
C120   H150    1.078   .     S
C120   C122    1.392   .     A
C120   C139    1.412   .     A
C121   H143    1.084   .     S
C121   C659    1.398   1_554 S
C122   C660    1.395   .     S
C122   H28     1.084   1_655 S
C123   C298    1.330   .     S
C123   H325    1.088   .     S
C124   C471    1.330   1_545 S
C124   H500    1.088   1_545 S
C125   O161    1.306   .     A
C125   C127    1.467   .     S
C125   O163    1.300   .     A
C126   O162    1.314   .     A
C126   C128    1.481   .     S
C126   O164    1.298   .     A
C127   C133    1.409   .     A
C127   C131    1.400   .     A
C128   C134    1.411   .     A
C128   C132    1.399   .     A
C129   C137    1.401   .     A
C129   C131    1.393   .     A
C130   C138    1.397   .     A
C130   C132    1.398   .     A
C130   H32     1.080   1_655 S
C131   H146    1.083   .     S
C132   H145    1.069   .     S
C133   C135    1.417   .     A
C133   S170    1.788   .     S
C134   C136    1.406   .     A
C134   S165    1.781   .     S
C135   C139    1.420   .     A
C135   C137    1.419   .     A
C136   C138    1.409   .     A
C136   C140    1.413   .     A
C137   C643    1.398   .     S
C138   C644    1.395   1_554 S
C139   C662    1.417   .     S
C140   C661    1.417   1_554 S
Cu141  Cu142   2.705   .     S
Cu141  O157    1.953   .     S
Cu141  O164    1.904   .     S
Cu141  O160    1.950   .     S
Cu141  N156    2.032   .     S
Cu141  O161    1.924   .     S
Cu142  O163    1.904   .     S
Cu142  O159    1.950   .     S
Cu142  N155    2.032   .     S
Cu142  O158    1.953   .     S
Cu142  O162    1.924   .     S
H147   C13     1.084   1_655 S
H151   C471    1.088   1_545 S
H152   C298    1.088   .     S
H154   N40     1.029   1_655 S
N155   H37     1.029   1_655 S
N155   N40     1.286   1_655 S
S165   O168    1.681   .     S
S165   O166    1.499   .     D
S165   O167    1.503   .     D
O168   H169    0.991   .     S
S170   O172    1.504   .     D
S170   O171    1.503   .     D
S170   O173    1.683   .     S
O173   H174    0.991   .     S
C175   O217    1.292   .     A
C175   O215    1.296   .     A
C175   C181    1.428   .     S
C176   O216    1.296   .     A
C176   O218    1.292   .     A
C176   C182    1.428   .     S
C177   C179    1.393   .     A
C177   C198    1.408   .     A
C177   H207    1.083   .     S
C178   H208    1.078   .     S
C178   C180    1.392   .     A
C178   C197    1.412   .     A
C179   H201    1.084   .     S
C179   C717    1.398   1_554 S
C180   C718    1.395   .     S
C180   H260    1.084   .     S
C181   C356    1.330   .     S
C181   H383    1.088   .     S
C183   O219    1.306   .     A
C183   C185    1.467   .     S
C183   O221    1.300   .     A
C184   O220    1.314   .     A
C184   C186    1.481   .     S
C184   O222    1.298   .     A
C185   C191    1.409   .     A
C185   C189    1.400   .     A
C186   C192    1.411   .     A
C186   C190    1.399   .     A
C187   C195    1.401   .     A
C187   C189    1.393   .     A
C187   H321    1.084   1_455 S
C188   C196    1.397   .     A
C188   C190    1.398   .     A
C188   H264    1.080   .     S
C189   H204    1.083   .     S
C190   H203    1.069   .     S
C191   C193    1.417   .     A
C191   S228    1.788   .     S
C192   C194    1.406   .     A
C192   S223    1.781   .     S
C193   C197    1.420   .     A
C193   C195    1.419   .     A
C194   C196    1.409   .     A
C194   C198    1.413   .     A
C195   C701    1.398   .     S
C196   C702    1.395   1_554 S
C197   C720    1.417   .     S
C198   C719    1.417   1_554 S
Cu199  Cu200   2.705   .     S
Cu199  O215    1.953   .     S
Cu199  O222    1.904   .     S
Cu199  O218    1.950   .     S
Cu199  N214    2.032   .     S
Cu199  O219    1.924   .     S
Cu200  O221    1.904   .     S
Cu200  O217    1.950   .     S
Cu200  N213    2.032   .     S
Cu200  O216    1.953   .     S
Cu200  O220    1.924   .     S
H202   C296    1.084   1_455 S
H205   C245    1.084   .     S
H206   C304    1.080   1_455 S
H210   C356    1.088   .     S
H211   N329    1.029   1_455 S
H212   N272    1.029   .     S
N213   H269    1.029   .     S
N213   N272    1.286   .     S
N214   H328    1.029   1_455 S
N214   N329    1.286   1_455 S
S223   O226    1.681   .     S
S223   O224    1.499   .     D
S223   O225    1.503   .     D
O226   H227    0.991   .     S
S228   O230    1.504   .     D
S228   O229    1.503   .     D
S228   O231    1.683   .     S
O231   H232    0.991   .     S
C233   O275    1.292   .     A
C233   O273    1.296   .     A
C233   C239    1.428   .     S
C234   O274    1.296   .     A
C234   O276    1.292   .     A
C234   C240    1.428   .     S
C235   C237    1.393   .     A
C235   C256    1.408   .     A
C235   H265    1.083   .     S
C236   H266    1.078   .     S
C236   C238    1.392   .     A
C236   C255    1.412   .     A
C237   H259    1.084   .     S
C237   C775    1.398   1_554 S
C238   C776    1.395   .     S
C238   H318    1.084   .     S
C239   C414    1.330   .     S
C239   H441    1.088   .     S
C241   O277    1.306   .     A
C241   C243    1.467   .     S
C241   O279    1.300   .     A
C242   O278    1.314   .     A
C242   C244    1.481   .     S
C242   O280    1.298   .     A
C243   C249    1.409   .     A
C243   C247    1.400   .     A
C244   C250    1.411   .     A
C244   C248    1.399   .     A
C245   C253    1.401   .     A
C245   C247    1.393   .     A
C246   C254    1.397   .     A
C246   C248    1.398   .     A
C246   H322    1.080   .     S
C247   H262    1.083   .     S
C248   H261    1.069   .     S
C249   C251    1.417   .     A
C249   S286    1.788   .     S
C250   C252    1.406   .     A
C250   S281    1.781   .     S
C251   C255    1.420   .     A
C251   C253    1.419   .     A
C252   C254    1.409   .     A
C252   C256    1.413   .     A
C253   C759    1.398   .     S
C254   C760    1.395   1_554 S
C255   C778    1.417   .     S
C256   C777    1.417   1_554 S
Cu257  Cu258   2.705   .     S
Cu257  O273    1.953   .     S
Cu257  O280    1.904   .     S
Cu257  O276    1.950   .     S
Cu257  N272    2.032   .     S
Cu257  O277    1.924   .     S
Cu258  O279    1.904   .     S
Cu258  O275    1.950   .     S
Cu258  N271    2.032   .     S
Cu258  O274    1.953   .     S
Cu258  O278    1.924   .     S
H263   C303    1.084   .     S
H268   C414    1.088   .     S
H270   N330    1.029   .     S
N271   H327    1.029   .     S
N271   N330    1.286   .     S
S281   O284    1.681   .     S
S281   O282    1.499   .     D
S281   O283    1.503   .     D
O284   H285    0.991   .     S
S286   O288    1.504   .     D
S286   O287    1.503   .     D
S286   O289    1.683   .     S
O289   H290    0.991   .     S
C291   O333    1.292   .     A
C291   O331    1.296   .     A
C291   C297    1.428   .     S
C292   O332    1.296   .     A
C292   O334    1.292   .     A
C292   C298    1.428   .     S
C293   C295    1.393   .     A
C293   C314    1.408   .     A
C293   H323    1.083   .     S
C294   H324    1.078   .     S
C294   C296    1.392   .     A
C294   C313    1.412   .     A
C295   H317    1.084   .     S
C295   C833    1.398   1_554 S
C296   C834    1.395   .     S
C296   H202    1.084   1_655 S
C297   C472    1.330   .     S
C297   H499    1.088   .     S
C299   O335    1.306   .     A
C299   C301    1.467   .     S
C299   O337    1.300   .     A
C300   O336    1.314   .     A
C300   C302    1.481   .     S
C300   O338    1.298   .     A
C301   C307    1.409   .     A
C301   C305    1.400   .     A
C302   C308    1.411   .     A
C302   C306    1.399   .     A
C303   C311    1.401   .     A
C303   C305    1.393   .     A
C304   C312    1.397   .     A
C304   C306    1.398   .     A
C304   H206    1.080   1_655 S
C305   H320    1.083   .     S
C306   H319    1.069   .     S
C307   C309    1.417   .     A
C307   S344    1.788   .     S
C308   C310    1.406   .     A
C308   S339    1.781   .     S
C309   C313    1.420   .     A
C309   C311    1.419   .     A
C310   C312    1.409   .     A
C310   C314    1.413   .     A
C311   C817    1.398   .     S
C312   C818    1.395   1_554 S
C313   C836    1.417   .     S
C314   C835    1.417   1_554 S
Cu315  Cu316   2.705   .     S
Cu315  O331    1.953   .     S
Cu315  O338    1.904   .     S
Cu315  O334    1.950   .     S
Cu315  N330    2.032   .     S
Cu315  O335    1.924   .     S
Cu316  O337    1.904   .     S
Cu316  O333    1.950   .     S
Cu316  N329    2.032   .     S
Cu316  O332    1.953   .     S
Cu316  O336    1.924   .     S
H321   C187    1.084   1_655 S
H326   C472    1.088   .     S
H328   N214    1.029   1_655 S
N329   H211    1.029   1_655 S
N329   N214    1.286   1_655 S
S339   O342    1.681   .     S
S339   O340    1.499   .     D
S339   O341    1.503   .     D
O342   H343    0.991   .     S
S344   O346    1.504   .     D
S344   O345    1.503   .     D
S344   O347    1.683   .     S
O347   H348    0.991   .     S
C349   O391    1.292   .     A
C349   O389    1.296   .     A
C349   C355    1.428   .     S
C350   O390    1.296   .     A
C350   O392    1.292   .     A
C350   C356    1.428   .     S
C351   C353    1.393   .     A
C351   C372    1.408   .     A
C351   H381    1.083   .     S
C352   H382    1.078   .     S
C352   C354    1.392   .     A
C352   C371    1.412   .     A
C353   H375    1.084   .     S
C353   C891    1.398   1_554 S
C354   C892    1.395   .     S
C354   H434    1.084   .     S
C355   C8      1.330   1_565 S
C355   H35     1.088   1_565 S
C357   O393    1.306   .     A
C357   C359    1.467   .     S
C357   O395    1.300   .     A
C358   O394    1.314   .     A
C358   C360    1.481   .     S
C358   O396    1.298   .     A
C359   C365    1.409   .     A
C359   C363    1.400   .     A
C360   C366    1.411   .     A
C360   C364    1.399   .     A
C361   C369    1.401   .     A
C361   C363    1.393   .     A
C361   H495    1.084   1_455 S
C362   C370    1.397   .     A
C362   C364    1.398   .     A
C362   H438    1.080   .     S
C363   H378    1.083   .     S
C364   H377    1.069   .     S
C365   C367    1.417   .     A
C365   S402    1.788   .     S
C366   C368    1.406   .     A
C366   S397    1.781   .     S
C367   C371    1.420   .     A
C367   C369    1.419   .     A
C368   C370    1.409   .     A
C368   C372    1.413   .     A
C369   C875    1.398   .     S
C370   C876    1.395   1_554 S
C371   C894    1.417   .     S
C372   C893    1.417   1_554 S
Cu373  Cu374   2.705   .     S
Cu373  O389    1.953   .     S
Cu373  O396    1.904   .     S
Cu373  O392    1.950   .     S
Cu373  N388    2.032   .     S
Cu373  O393    1.924   .     S
Cu374  O395    1.904   .     S
Cu374  O391    1.950   .     S
Cu374  N387    2.032   .     S
Cu374  O390    1.953   .     S
Cu374  O394    1.924   .     S
H376   C470    1.084   1_455 S
H379   C419    1.084   .     S
H380   C478    1.080   1_455 S
H384   C8      1.088   1_565 S
H385   N503    1.029   1_455 S
H386   N446    1.029   .     S
N387   H443    1.029   .     S
N387   N446    1.286   .     S
N388   H502    1.029   1_455 S
N388   N503    1.286   1_455 S
S397   O400    1.681   .     S
S397   O398    1.499   .     D
S397   O399    1.503   .     D
O400   H401    0.991   .     S
S402   O404    1.504   .     D
S402   O403    1.503   .     D
S402   O405    1.683   .     S
O405   H406    0.991   .     S
C407   O449    1.292   .     A
C407   O447    1.296   .     A
C407   C413    1.428   .     S
C408   O448    1.296   .     A
C408   O450    1.292   .     A
C408   C414    1.428   .     S
C409   C411    1.393   .     A
C409   C430    1.408   .     A
C409   H439    1.083   .     S
C410   H440    1.078   .     S
C410   C412    1.392   .     A
C410   C429    1.412   .     A
C411   H433    1.084   .     S
C411   C949    1.398   1_554 S
C412   C950    1.395   .     S
C412   H492    1.084   .     S
C413   C66     1.330   1_565 S
C413   H93     1.088   1_565 S
C415   O451    1.306   .     A
C415   C417    1.467   .     S
C415   O453    1.300   .     A
C416   O452    1.314   .     A
C416   C418    1.481   .     S
C416   O454    1.298   .     A
C417   C423    1.409   .     A
C417   C421    1.400   .     A
C418   C424    1.411   .     A
C418   C422    1.399   .     A
C419   C427    1.401   .     A
C419   C421    1.393   .     A
C420   C428    1.397   .     A
C420   C422    1.398   .     A
C420   H496    1.080   .     S
C421   H436    1.083   .     S
C422   H435    1.069   .     S
C423   C425    1.417   .     A
C423   S460    1.788   .     S
C424   C426    1.406   .     A
C424   S455    1.781   .     S
C425   C429    1.420   .     A
C425   C427    1.419   .     A
C426   C428    1.409   .     A
C426   C430    1.413   .     A
C427   C933    1.398   .     S
C428   C934    1.395   1_554 S
C429   C952    1.417   .     S
C430   C951    1.417   1_554 S
Cu431  Cu432   2.705   .     S
Cu431  O447    1.953   .     S
Cu431  O454    1.904   .     S
Cu431  O450    1.950   .     S
Cu431  N446    2.032   .     S
Cu431  O451    1.924   .     S
Cu432  O453    1.904   .     S
Cu432  O449    1.950   .     S
Cu432  N445    2.032   .     S
Cu432  O448    1.953   .     S
Cu432  O452    1.924   .     S
H437   C477    1.084   .     S
H442   C66     1.088   1_565 S
H444   N504    1.029   .     S
N445   H501    1.029   .     S
N445   N504    1.286   .     S
S455   O458    1.681   .     S
S455   O456    1.499   .     D
S455   O457    1.503   .     D
O458   H459    0.991   .     S
S460   O462    1.504   .     D
S460   O461    1.503   .     D
S460   O463    1.683   .     S
O463   H464    0.991   .     S
C465   O507    1.292   .     A
C465   O505    1.296   .     A
C465   C471    1.428   .     S
C466   O506    1.296   .     A
C466   O508    1.292   .     A
C466   C472    1.428   .     S
C467   C469    1.393   .     A
C467   C488    1.408   .     A
C467   H497    1.083   .     S
C468   H498    1.078   .     S
C468   C470    1.392   .     A
C468   C487    1.412   .     A
C469   H491    1.084   .     S
C469   C1007   1.398   1_554 S
C470   C1008   1.395   .     S
C470   H376    1.084   1_655 S
C471   C124    1.330   1_565 S
C471   H151    1.088   1_565 S
C473   O509    1.306   .     A
C473   C475    1.467   .     S
C473   O511    1.300   .     A
C474   O510    1.314   .     A
C474   C476    1.481   .     S
C474   O512    1.298   .     A
C475   C481    1.409   .     A
C475   C479    1.400   .     A
C476   C482    1.411   .     A
C476   C480    1.399   .     A
C477   C485    1.401   .     A
C477   C479    1.393   .     A
C478   C486    1.397   .     A
C478   C480    1.398   .     A
C478   H380    1.080   1_655 S
C479   H494    1.083   .     S
C480   H493    1.069   .     S
C481   C483    1.417   .     A
C481   S518    1.788   .     S
C482   C484    1.406   .     A
C482   S513    1.781   .     S
C483   C487    1.420   .     A
C483   C485    1.419   .     A
C484   C486    1.409   .     A
C484   C488    1.413   .     A
C485   C991    1.398   .     S
C486   C992    1.395   1_554 S
C487   C1010   1.417   .     S
C488   C1009   1.417   1_554 S
Cu489  Cu490   2.705   .     S
Cu489  O505    1.953   .     S
Cu489  O512    1.904   .     S
Cu489  O508    1.950   .     S
Cu489  N504    2.032   .     S
Cu489  O509    1.924   .     S
Cu490  O511    1.904   .     S
Cu490  O507    1.950   .     S
Cu490  N503    2.032   .     S
Cu490  O506    1.953   .     S
Cu490  O510    1.924   .     S
H495   C361    1.084   1_655 S
H500   C124    1.088   1_565 S
H502   N388    1.029   1_655 S
N503   H385    1.029   1_655 S
N503   N388    1.286   1_655 S
S513   O516    1.681   .     S
S513   O514    1.499   .     D
S513   O515    1.503   .     D
O516   H517    0.991   .     S
S518   O520    1.504   .     D
S518   O519    1.503   .     D
S518   O521    1.683   .     S
O521   H522    0.991   .     S
C523   O565    1.292   .     A
C523   O563    1.296   .     A
C523   C529    1.428   .     S
C524   O564    1.296   .     A
C524   O566    1.292   .     A
C524   C530    1.428   .     S
C525   C527    1.393   .     A
C525   C546    1.408   .     A
C525   H555    1.083   .     S
C526   H556    1.078   .     S
C526   C528    1.392   .     A
C526   C545    1.412   .     A
C527   H549    1.084   .     S
C528   C22     1.395   1_556 S
C528   H608    1.084   .     S
C529   C704    1.330   .     S
C529   H731    1.088   .     S
C530   C877    1.330   1_545 S
C530   H906    1.088   1_545 S
C531   O567    1.306   .     A
C531   C533    1.467   .     S
C531   O569    1.300   .     A
C532   O568    1.314   .     A
C532   C534    1.481   .     S
C532   O570    1.298   .     A
C533   C539    1.409   .     A
C533   C537    1.400   .     A
C534   C540    1.411   .     A
C534   C538    1.399   .     A
C535   C543    1.401   .     A
C535   C537    1.393   .     A
C535   H669    1.084   1_455 S
C536   C544    1.397   .     A
C536   C538    1.398   .     A
C536   H612    1.080   .     S
C537   H552    1.083   .     S
C538   H551    1.069   .     S
C539   C541    1.417   .     A
C539   S576    1.788   .     S
C540   C542    1.406   .     A
C540   S571    1.781   .     S
C541   C545    1.420   .     A
C541   C543    1.419   .     A
C542   C544    1.409   .     A
C542   C546    1.413   .     A
C543   C5      1.398   1_556 S
C545   C24     1.417   1_556 S
Cu547  Cu548   2.705   .     S
Cu547  O563    1.953   .     S
Cu547  O570    1.904   .     S
Cu547  O566    1.950   .     S
Cu547  N562    2.032   .     S
Cu547  O567    1.924   .     S
Cu548  O569    1.904   .     S
Cu548  O565    1.950   .     S
Cu548  N561    2.032   .     S
Cu548  O564    1.953   .     S
Cu548  O568    1.924   .     S
H550   C644    1.084   1_455 S
H553   C593    1.084   .     S
H554   C652    1.080   1_455 S
H557   C877    1.088   1_545 S
H558   C704    1.088   .     S
H559   N677    1.029   1_455 S
H560   N620    1.029   .     S
N561   H617    1.029   .     S
N561   N620    1.286   .     S
N562   H676    1.029   1_455 S
N562   N677    1.286   1_455 S
S571   O574    1.681   .     S
S571   O572    1.499   .     D
S571   O573    1.503   .     D
O574   H575    0.991   .     S
S576   O578    1.504   .     D
S576   O577    1.503   .     D
S576   O579    1.683   .     S
O579   H580    0.991   .     S
C581   O623    1.292   .     A
C581   O621    1.296   .     A
C581   C587    1.428   .     S
C582   O622    1.296   .     A
C582   O624    1.292   .     A
C582   C588    1.428   .     S
C583   C585    1.393   .     A
C583   C604    1.408   .     A
C583   H613    1.083   .     S
C584   H614    1.078   .     S
C584   C586    1.392   .     A
C584   C603    1.412   .     A
C585   H607    1.084   .     S
C586   C80     1.395   1_556 S
C586   H666    1.084   .     S
C587   C762    1.330   .     S
C587   H789    1.088   .     S
C588   C935    1.330   1_545 S
C588   H964    1.088   1_545 S
C589   O625    1.306   .     A
C589   C591    1.467   .     S
C589   O627    1.300   .     A
C590   O626    1.314   .     A
C590   C592    1.481   .     S
C590   O628    1.298   .     A
C591   C597    1.409   .     A
C591   C595    1.400   .     A
C592   C598    1.411   .     A
C592   C596    1.399   .     A
C593   C601    1.401   .     A
C593   C595    1.393   .     A
C594   C602    1.397   .     A
C594   C596    1.398   .     A
C594   H670    1.080   .     S
C595   H610    1.083   .     S
C596   H609    1.069   .     S
C597   C599    1.417   .     A
C597   S634    1.788   .     S
C598   C600    1.406   .     A
C598   S629    1.781   .     S
C599   C603    1.420   .     A
C599   C601    1.419   .     A
C600   C602    1.409   .     A
C600   C604    1.413   .     A
C601   C63     1.398   1_556 S
C603   C82     1.417   1_556 S
Cu605  Cu606   2.705   .     S
Cu605  O621    1.953   .     S
Cu605  O628    1.904   .     S
Cu605  O624    1.950   .     S
Cu605  N620    2.032   .     S
Cu605  O625    1.924   .     S
Cu606  O627    1.904   .     S
Cu606  O623    1.950   .     S
Cu606  N619    2.032   .     S
Cu606  O622    1.953   .     S
Cu606  O626    1.924   .     S
H611   C651    1.084   .     S
H615   C935    1.088   1_545 S
H616   C762    1.088   .     S
H618   N678    1.029   .     S
N619   H675    1.029   .     S
N619   N678    1.286   .     S
S629   O632    1.681   .     S
S629   O630    1.499   .     D
S629   O631    1.503   .     D
O632   H633    0.991   .     S
S634   O636    1.504   .     D
S634   O635    1.503   .     D
S634   O637    1.683   .     S
O637   H638    0.991   .     S
C639   O681    1.292   .     A
C639   O679    1.296   .     A
C639   C645    1.428   .     S
C640   O680    1.296   .     A
C640   O682    1.292   .     A
C640   C646    1.428   .     S
C641   C643    1.393   .     A
C641   C662    1.408   .     A
C641   H671    1.083   .     S
C642   H672    1.078   .     S
C642   C644    1.392   .     A
C642   C661    1.412   .     A
C643   H665    1.084   .     S
C644   C138    1.395   1_556 S
C644   H550    1.084   1_655 S
C645   C820    1.330   .     S
C645   H847    1.088   .     S
C646   C993    1.330   1_545 S
C646   H1022   1.088   1_545 S
C647   O683    1.306   .     A
C647   C649    1.467   .     S
C647   O685    1.300   .     A
C648   O684    1.314   .     A
C648   C650    1.481   .     S
C648   O686    1.298   .     A
C649   C655    1.409   .     A
C649   C653    1.400   .     A
C650   C656    1.411   .     A
C650   C654    1.399   .     A
C651   C659    1.401   .     A
C651   C653    1.393   .     A
C652   C660    1.397   .     A
C652   C654    1.398   .     A
C652   H554    1.080   1_655 S
C653   H668    1.083   .     S
C654   H667    1.069   .     S
C655   C657    1.417   .     A
C655   S692    1.788   .     S
C656   C658    1.406   .     A
C656   S687    1.781   .     S
C657   C661    1.420   .     A
C657   C659    1.419   .     A
C658   C660    1.409   .     A
C658   C662    1.413   .     A
C659   C121    1.398   1_556 S
C661   C140    1.417   1_556 S
Cu663  Cu664   2.705   .     S
Cu663  O679    1.953   .     S
Cu663  O686    1.904   .     S
Cu663  O682    1.950   .     S
Cu663  N678    2.032   .     S
Cu663  O683    1.924   .     S
Cu664  O685    1.904   .     S
Cu664  O681    1.950   .     S
Cu664  N677    2.032   .     S
Cu664  O680    1.953   .     S
Cu664  O684    1.924   .     S
H669   C535    1.084   1_655 S
H673   C993    1.088   1_545 S
H674   C820    1.088   .     S
H676   N562    1.029   1_655 S
N677   H559    1.029   1_655 S
N677   N562    1.286   1_655 S
S687   O690    1.681   .     S
S687   O688    1.499   .     D
S687   O689    1.503   .     D
O690   H691    0.991   .     S
S692   O694    1.504   .     D
S692   O693    1.503   .     D
S692   O695    1.683   .     S
O695   H696    0.991   .     S
C697   O739    1.292   .     A
C697   O737    1.296   .     A
C697   C703    1.428   .     S
C698   O738    1.296   .     A
C698   O740    1.292   .     A
C698   C704    1.428   .     S
C699   C701    1.393   .     A
C699   C720    1.408   .     A
C699   H729    1.083   .     S
C700   H730    1.078   .     S
C700   C702    1.392   .     A
C700   C719    1.412   .     A
C701   H723    1.084   .     S
C702   C196    1.395   1_556 S
C702   H782    1.084   .     S
C703   C878    1.330   .     S
C703   H905    1.088   .     S
C705   O741    1.306   .     A
C705   C707    1.467   .     S
C705   O743    1.300   .     A
C706   O742    1.314   .     A
C706   C708    1.481   .     S
C706   O744    1.298   .     A
C707   C713    1.409   .     A
C707   C711    1.400   .     A
C708   C714    1.411   .     A
C708   C712    1.399   .     A
C709   C717    1.401   .     A
C709   C711    1.393   .     A
C709   H843    1.084   1_455 S
C710   C718    1.397   .     A
C710   C712    1.398   .     A
C710   H786    1.080   .     S
C711   H726    1.083   .     S
C712   H725    1.069   .     S
C713   C715    1.417   .     A
C713   S750    1.788   .     S
C714   C716    1.406   .     A
C714   S745    1.781   .     S
C715   C719    1.420   .     A
C715   C717    1.419   .     A
C716   C718    1.409   .     A
C716   C720    1.413   .     A
C717   C179    1.398   1_556 S
C719   C198    1.417   1_556 S
Cu721  Cu722   2.705   .     S
Cu721  O737    1.953   .     S
Cu721  O744    1.904   .     S
Cu721  O740    1.950   .     S
Cu721  N736    2.032   .     S
Cu721  O741    1.924   .     S
Cu722  O743    1.904   .     S
Cu722  O739    1.950   .     S
Cu722  N735    2.032   .     S
Cu722  O738    1.953   .     S
Cu722  O742    1.924   .     S
H724   C818    1.084   1_455 S
H727   C767    1.084   .     S
H728   C826    1.080   1_455 S
H732   C878    1.088   .     S
H733   N851    1.029   1_455 S
H734   N794    1.029   .     S
N735   H791    1.029   .     S
N735   N794    1.286   .     S
N736   H850    1.029   1_455 S
N736   N851    1.286   1_455 S
S745   O748    1.681   .     S
S745   O746    1.499   .     D
S745   O747    1.503   .     D
O748   H749    0.991   .     S
S750   O752    1.504   .     D
S750   O751    1.503   .     D
S750   O753    1.683   .     S
O753   H754    0.991   .     S
C755   O797    1.292   .     A
C755   O795    1.296   .     A
C755   C761    1.428   .     S
C756   O796    1.296   .     A
C756   O798    1.292   .     A
C756   C762    1.428   .     S
C757   C759    1.393   .     A
C757   C778    1.408   .     A
C757   H787    1.083   .     S
C758   H788    1.078   .     S
C758   C760    1.392   .     A
C758   C777    1.412   .     A
C759   H781    1.084   .     S
C760   C254    1.395   1_556 S
C760   H840    1.084   .     S
C761   C936    1.330   .     S
C761   H963    1.088   .     S
C763   O799    1.306   .     A
C763   C765    1.467   .     S
C763   O801    1.300   .     A
C764   O800    1.314   .     A
C764   C766    1.481   .     S
C764   O802    1.298   .     A
C765   C771    1.409   .     A
C765   C769    1.400   .     A
C766   C772    1.411   .     A
C766   C770    1.399   .     A
C767   C775    1.401   .     A
C767   C769    1.393   .     A
C768   C776    1.397   .     A
C768   C770    1.398   .     A
C768   H844    1.080   .     S
C769   H784    1.083   .     S
C770   H783    1.069   .     S
C771   C773    1.417   .     A
C771   S808    1.788   .     S
C772   C774    1.406   .     A
C772   S803    1.781   .     S
C773   C777    1.420   .     A
C773   C775    1.419   .     A
C774   C776    1.409   .     A
C774   C778    1.413   .     A
C775   C237    1.398   1_556 S
C777   C256    1.417   1_556 S
Cu779  Cu780   2.705   .     S
Cu779  O795    1.953   .     S
Cu779  O802    1.904   .     S
Cu779  O798    1.950   .     S
Cu779  N794    2.032   .     S
Cu779  O799    1.924   .     S
Cu780  O801    1.904   .     S
Cu780  O797    1.950   .     S
Cu780  N793    2.032   .     S
Cu780  O796    1.953   .     S
Cu780  O800    1.924   .     S
H785   C825    1.084   .     S
H790   C936    1.088   .     S
H792   N852    1.029   .     S
N793   H849    1.029   .     S
N793   N852    1.286   .     S
S803   O806    1.681   .     S
S803   O804    1.499   .     D
S803   O805    1.503   .     D
O806   H807    0.991   .     S
S808   O810    1.504   .     D
S808   O809    1.503   .     D
S808   O811    1.683   .     S
O811   H812    0.991   .     S
C813   O855    1.292   .     A
C813   O853    1.296   .     A
C813   C819    1.428   .     S
C814   O854    1.296   .     A
C814   O856    1.292   .     A
C814   C820    1.428   .     S
C815   C817    1.393   .     A
C815   C836    1.408   .     A
C815   H845    1.083   .     S
C816   H846    1.078   .     S
C816   C818    1.392   .     A
C816   C835    1.412   .     A
C817   H839    1.084   .     S
C818   C312    1.395   1_556 S
C818   H724    1.084   1_655 S
C819   C994    1.330   .     S
C819   H1021   1.088   .     S
C821   O857    1.306   .     A
C821   C823    1.467   .     S
C821   O859    1.300   .     A
C822   O858    1.314   .     A
C822   C824    1.481   .     S
C822   O860    1.298   .     A
C823   C829    1.409   .     A
C823   C827    1.400   .     A
C824   C830    1.411   .     A
C824   C828    1.399   .     A
C825   C833    1.401   .     A
C825   C827    1.393   .     A
C826   C834    1.397   .     A
C826   C828    1.398   .     A
C826   H728    1.080   1_655 S
C827   H842    1.083   .     S
C828   H841    1.069   .     S
C829   C831    1.417   .     A
C829   S866    1.788   .     S
C830   C832    1.406   .     A
C830   S861    1.781   .     S
C831   C835    1.420   .     A
C831   C833    1.419   .     A
C832   C834    1.409   .     A
C832   C836    1.413   .     A
C833   C295    1.398   1_556 S
C835   C314    1.417   1_556 S
Cu837  Cu838   2.705   .     S
Cu837  O853    1.953   .     S
Cu837  O860    1.904   .     S
Cu837  O856    1.950   .     S
Cu837  N852    2.032   .     S
Cu837  O857    1.924   .     S
Cu838  O859    1.904   .     S
Cu838  O855    1.950   .     S
Cu838  N851    2.032   .     S
Cu838  O854    1.953   .     S
Cu838  O858    1.924   .     S
H843   C709    1.084   1_655 S
H848   C994    1.088   .     S
H850   N736    1.029   1_655 S
N851   H733    1.029   1_655 S
N851   N736    1.286   1_655 S
S861   O864    1.681   .     S
S861   O862    1.499   .     D
S861   O863    1.503   .     D
O864   H865    0.991   .     S
S866   O868    1.504   .     D
S866   O867    1.503   .     D
S866   O869    1.683   .     S
O869   H870    0.991   .     S
C871   O913    1.292   .     A
C871   O911    1.296   .     A
C871   C877    1.428   .     S
C872   O912    1.296   .     A
C872   O914    1.292   .     A
C872   C878    1.428   .     S
C873   C875    1.393   .     A
C873   C894    1.408   .     A
C873   H903    1.083   .     S
C874   H904    1.078   .     S
C874   C876    1.392   .     A
C874   C893    1.412   .     A
C875   H897    1.084   .     S
C876   C370    1.395   1_556 S
C876   H956    1.084   .     S
C877   C530    1.330   1_565 S
C877   H557    1.088   1_565 S
C879   O915    1.306   .     A
C879   C881    1.467   .     S
C879   O917    1.300   .     A
C880   O916    1.314   .     A
C880   C882    1.481   .     S
C880   O918    1.298   .     A
C881   C887    1.409   .     A
C881   C885    1.400   .     A
C882   C888    1.411   .     A
C882   C886    1.399   .     A
C883   C891    1.401   .     A
C883   C885    1.393   .     A
C883   H1017   1.084   1_455 S
C884   C892    1.397   .     A
C884   C886    1.398   .     A
C884   H960    1.080   .     S
C885   H900    1.083   .     S
C886   H899    1.069   .     S
C887   C889    1.417   .     A
C887   S924    1.788   .     S
C888   C890    1.406   .     A
C888   S919    1.781   .     S
C889   C893    1.420   .     A
C889   C891    1.419   .     A
C890   C892    1.409   .     A
C890   C894    1.413   .     A
C891   C353    1.398   1_556 S
C893   C372    1.417   1_556 S
Cu895  Cu896   2.705   .     S
Cu895  O911    1.953   .     S
Cu895  O918    1.904   .     S
Cu895  O914    1.950   .     S
Cu895  N910    2.032   .     S
Cu895  O915    1.924   .     S
Cu896  O917    1.904   .     S
Cu896  O913    1.950   .     S
Cu896  N909    2.032   .     S
Cu896  O912    1.953   .     S
Cu896  O916    1.924   .     S
H898   C992    1.084   1_455 S
H901   C941    1.084   .     S
H902   C1000   1.080   1_455 S
H906   C530    1.088   1_565 S
H907   N1025   1.029   1_455 S
H908   N968    1.029   .     S
N909   H965    1.029   .     S
N909   N968    1.286   .     S
N910   H1024   1.029   1_455 S
N910   N1025   1.286   1_455 S
S919   O922    1.681   .     S
S919   O920    1.499   .     D
S919   O921    1.503   .     D
O922   H923    0.991   .     S
S924   O926    1.504   .     D
S924   O925    1.503   .     D
S924   O927    1.683   .     S
O927   H928    0.991   .     S
C929   O971    1.292   .     A
C929   O969    1.296   .     A
C929   C935    1.428   .     S
C930   O970    1.296   .     A
C930   O972    1.292   .     A
C930   C936    1.428   .     S
C931   C933    1.393   .     A
C931   C952    1.408   .     A
C931   H961    1.083   .     S
C932   H962    1.078   .     S
C932   C934    1.392   .     A
C932   C951    1.412   .     A
C933   H955    1.084   .     S
C934   C428    1.395   1_556 S
C934   H1014   1.084   .     S
C935   C588    1.330   1_565 S
C935   H615    1.088   1_565 S
C937   O973    1.306   .     A
C937   C939    1.467   .     S
C937   O975    1.300   .     A
C938   O974    1.314   .     A
C938   C940    1.481   .     S
C938   O976    1.298   .     A
C939   C945    1.409   .     A
C939   C943    1.400   .     A
C940   C946    1.411   .     A
C940   C944    1.399   .     A
C941   C949    1.401   .     A
C941   C943    1.393   .     A
C942   C950    1.397   .     A
C942   C944    1.398   .     A
C942   H1018   1.080   .     S
C943   H958    1.083   .     S
C944   H957    1.069   .     S
C945   C947    1.417   .     A
C945   S982    1.788   .     S
C946   C948    1.406   .     A
C946   S977    1.781   .     S
C947   C951    1.420   .     A
C947   C949    1.419   .     A
C948   C950    1.409   .     A
C948   C952    1.413   .     A
C949   C411    1.398   1_556 S
C951   C430    1.417   1_556 S
Cu953  Cu954   2.705   .     S
Cu953  O969    1.953   .     S
Cu953  O976    1.904   .     S
Cu953  O972    1.950   .     S
Cu953  N968    2.032   .     S
Cu953  O973    1.924   .     S
Cu954  O975    1.904   .     S
Cu954  O971    1.950   .     S
Cu954  N967    2.032   .     S
Cu954  O970    1.953   .     S
Cu954  O974    1.924   .     S
H959   C999    1.084   .     S
H964   C588    1.088   1_565 S
H966   N1026   1.029   .     S
N967   H1023   1.029   .     S
N967   N1026   1.286   .     S
S977   O980    1.681   .     S
S977   O978    1.499   .     D
S977   O979    1.503   .     D
O980   H981    0.991   .     S
S982   O984    1.504   .     D
S982   O983    1.503   .     D
S982   O985    1.683   .     S
O985   H986    0.991   .     S
C987   O1029   1.292   .     A
C987   O1027   1.296   .     A
C987   C993    1.428   .     S
C988   O1028   1.296   .     A
C988   O1030   1.292   .     A
C988   C994    1.428   .     S
C989   C991    1.393   .     A
C989   C1010   1.408   .     A
C989   H1019   1.083   .     S
C990   H1020   1.078   .     S
C990   C992    1.392   .     A
C990   C1009   1.412   .     A
C991   H1013   1.084   .     S
C992   C486    1.395   1_556 S
C992   H898    1.084   1_655 S
C993   C646    1.330   1_565 S
C993   H673    1.088   1_565 S
C995   O1031   1.306   .     A
C995   C997    1.467   .     S
C995   O1033   1.300   .     A
C996   O1032   1.314   .     A
C996   C998    1.481   .     S
C996   O1034   1.298   .     A
C997   C1003   1.409   .     A
C997   C1001   1.400   .     A
C998   C1004   1.411   .     A
C998   C1002   1.399   .     A
C999   C1007   1.401   .     A
C999   C1001   1.393   .     A
C1000  C1008   1.397   .     A
C1000  C1002   1.398   .     A
C1000  H902    1.080   1_655 S
C1001  H1016   1.083   .     S
C1002  H1015   1.069   .     S
C1003  C1005   1.417   .     A
C1003  S1040   1.788   .     S
C1004  C1006   1.406   .     A
C1004  S1035   1.781   .     S
C1005  C1009   1.420   .     A
C1005  C1007   1.419   .     A
C1006  C1008   1.409   .     A
C1006  C1010   1.413   .     A
C1007  C469    1.398   1_556 S
C1009  C488    1.417   1_556 S
Cu1011 Cu1012  2.705   .     S
Cu1011 O1027   1.953   .     S
Cu1011 O1034   1.904   .     S
Cu1011 O1030   1.950   .     S
Cu1011 N1026   2.032   .     S
Cu1011 O1031   1.924   .     S
Cu1012 O1033   1.904   .     S
Cu1012 O1029   1.950   .     S
Cu1012 N1025   2.032   .     S
Cu1012 O1028   1.953   .     S
Cu1012 O1032   1.924   .     S
H1017  C883    1.084   1_655 S
H1022  C646    1.088   1_565 S
H1024  N910    1.029   1_655 S
N1025  H907    1.029   1_655 S
N1025  N910    1.286   1_655 S
S1035  O1038   1.681   .     S
S1035  O1036   1.499   .     D
S1035  O1037   1.503   .     D
O1038  H1039   0.991   .     S
S1040  O1042   1.504   .     D
S1040  O1041   1.503   .     D
S1040  O1043   1.683   .     S
O1043  H1044   0.991   .     S
